data_mof_unit_56404.cif
_audit_creation_date              2012-12-11T14:27:35-0500
_audit_creation_method            fapswitch 2.2
_symmetry_space_group_name_H-M    P1
_symmetry_Int_Tables_number       1
_space_group_crystal_system       triclinic
_cell_length_a                    6.929308
_cell_length_b                    14.770051
_cell_length_c                    16.153143
_cell_angle_alpha                 91.060919
_cell_angle_beta                  90.289882
_cell_angle_gamma                 89.772974
_cell_volume                      1652.896397

loop_
_atom_site_label
_atom_site_type_symbol
_atom_type_description
_atom_site_fract_x
_atom_site_fract_y
_atom_site_fract_z
_atom_type_partial_charge
O1    O     O_R   0.494510 0.415970 0.413200 -0.545954
O2    O     O_R   0.823800 0.407430 0.586200 -0.543425
O3    O     O_R   0.994130 0.584030 0.586800 -0.525352
C1    C     C_R   0.654754 0.384034 0.612388 0.741213
O4    O     O_R   0.824220 0.405090 0.413820 -0.537982
O5    O     O_R   0.994560 0.581670 0.413190 -0.531125
C2    C     C_R   0.655716 0.383268 0.384940 0.754573
O6    O     O_R   0.494090 0.418330 0.586810 -0.544696
O7    O     O_3   0.660810 0.557940 0.500000 -0.363879
V1    V     V_3+5 0.935650 0.489250 0.500000 1.427178
O8    O     O_R   0.324270 0.592570 0.413800 -0.548224
C3    C     C_R   0.154021 0.614446 0.385889 0.754618
O9    O     O_R   0.323850 0.594910 0.586180 -0.545340
C4    C     C_R   0.155089 0.617093 0.614820 0.716838
V2    V     V_3+5 0.435660 0.510750 0.500000 1.412536
O10   O     O_3   0.160630 0.442060 0.500000 -0.378672
C5    C     C_3   0.078003 0.664784 0.773350 -0.197043
C6    C     C_3   0.248994 0.721189 0.808979 -0.106150
H1    H     H_    0.344689 0.700827 0.860776 0.107437
H2    H     H_    0.034000 0.597094 0.795076 0.116591
C7    C     C_3   0.120688 0.806796 0.808244 -0.056323
C8    C     C_3   0.948675 0.750842 0.773827 -0.197909
C9    C     C_3   0.018853 0.771362 0.685831 0.476120
C10   C     C_3   0.188623 0.828366 0.719632 -0.235521
C11   C     C_3   0.316178 0.741624 0.719708 -0.173247
C12   C     C_3   0.144927 0.685971 0.684819 -0.054855
H3    H     H_    0.797407 0.754624 0.796008 0.110936
H4    H     H_    0.233352 0.895812 0.697554 0.104153
H5    H     H_    0.467421 0.736897 0.697675 0.140906
C13   C     C_2   0.987391 0.704256 0.274277 0.183752
C14   C     C_2   0.142230 0.687018 0.323828 -0.311367
H6    H     H_    0.267851 0.730293 0.320257 0.121808
C15   C     C_2   0.988136 0.781937 0.216600 -0.152621
C16   C     C_2   0.130604 0.800011 0.162476 -0.008044
H7    H     H_    0.857928 0.823208 0.215444 0.110347
C17   C     C_2   0.766060 0.200842 0.773776 -0.141983
C18   C     C_2   0.615728 0.189440 0.826155 0.019141
H8    H     H_    0.884425 0.152406 0.774629 0.105462
C19   C     C_2   0.787497 0.276841 0.715207 -0.140359
C20   C     C_2   0.638085 0.310299 0.671987 -0.319226
H9    H     H_    0.932339 0.301353 0.703824 0.135284
H10   H     H_    0.495874 0.281164 0.678647 0.148879
C21   C     C_2   0.777531 0.197833 0.221369 0.171773
C22   C     C_2   0.622205 0.183387 0.171250 -0.350340
H11   H     H_    0.502260 0.230983 0.173510 0.105948
C23   C     C_2   0.792708 0.282180 0.272975 0.169950
C24   C     C_2   0.644452 0.309019 0.322277 -0.348709
H12   H     H_    0.509759 0.271601 0.319351 0.107555
O11   O     O_R   0.771000 0.074870 0.906030 -0.548035
O12   O     O_R   0.440710 0.088040 0.078970 -0.548006
O13   O     O_R   0.270540 0.911420 0.079570 -0.535568
C25   C     C_R   0.610090 0.109659 0.108060 0.762813
O14   O     O_R   0.441280 0.085700 0.906600 -0.538693
O15   O     O_R   0.271110 0.909060 0.905960 -0.537807
C26   C     C_R   0.609825 0.110264 0.881212 0.717210
O16   O     O_R   0.770430 0.077230 0.079640 -0.532450
O17   O     O_3   0.604340 0.935220 0.992820 -0.371140
V3    V     V_3+5 0.329430 0.003850 0.992770 1.397818
O18   O     O_R   0.941400 0.898110 0.906530 -0.545984
C27   C     C_R   0.110220 0.875910 0.877970 0.692878
O19   O     O_R   0.940830 0.900450 0.078910 -0.550131
C28   C     C_R   0.111378 0.876586 0.104883 0.730923
V4    V     V_3+5 0.829450 0.982250 0.992700 1.393995
O20   O     O_3   0.104410 0.051000 0.992740 -0.371245
C29   C     C_3   0.308334 0.740605 0.154000 -0.771097
H13   H     H_    0.369894 0.745002 0.090845 0.203180
H14   H     H_    0.420315 0.763512 0.198879 0.201703
H15   H     H_    0.273586 0.668198 0.163284 0.215429
C30   C     C_3   0.458647 0.260079 0.838366 -0.759975
H16   H     H_    0.406293 0.260157 0.903263 0.197386
H17   H     H_    0.512574 0.329530 0.827748 0.218860
H18   H     H_    0.334120 0.244592 0.797072 0.197502
C31   C     C_3   0.943221 0.130919 0.226734 -0.714807
H19   H     H_    0.037025 0.146594 0.281050 0.189740
H20   H     H_    0.887531 0.061196 0.234610 0.187820
H21   H     H_    0.034186 0.133967 0.170493 0.218212
C32   C     C_3   0.980182 0.334260 0.268925 -0.717082
H22   H     H_    0.069427 0.310199 0.215931 0.190658
H23   H     H_    0.950683 0.407344 0.259680 0.188554
H24   H     H_    0.066066 0.324736 0.326324 0.212934
O21   O     O_3   0.898629 0.793052 0.618220 -0.556965
C33   C     C_3   0.799710 0.874832 0.635542 0.082615
H25   H     H_    0.902552 0.932486 0.638759 0.113539
H26   H     H_    0.718379 0.871695 0.694694 0.107414
C34   C     C_3   0.654912 0.892193 0.566515 -0.701495
H27   H     H_    0.549082 0.835957 0.562414 0.221864
H28   H     H_    0.576175 0.956517 0.579402 0.168923
H29   H     H_    0.730844 0.897350 0.506402 0.222694
C35   C     C_3   0.804306 0.649291 0.276576 -0.714788
H30   H     H_    0.703656 0.669209 0.226384 0.184482
H31   H     H_    0.837551 0.576249 0.267065 0.191130
H32   H     H_    0.729226 0.660619 0.336450 0.220340

loop_
_geom_bond_atom_site_label_1
_geom_bond_atom_site_label_2
_ccdc_geom_bond_type
C21   C31   S    
O11   V4    S    
C18   C30   S    
C6    C7    S    
C31   H19   S    
C1    O6    A    
O21   C33   S    
C19   H9    S    
O15   C27   A    
C32   H22   S    
O13   C28   A    
C5    C12   S    
C17   C18   D    
C34   H27   S    
C13   C14   D    
C34   H29   S    
V2    O10   S    
C16   C28   S    
C5    H2    S    
O19   V4    S    
C6    H1    S    
C9    C12   S    
C30   H17   S    
O8    V2    S    
C24   H12   S    
C29   H14   S    
O12   C25   A    
C9    C10   S    
O17   V4    S    
O1    V2    S    
C35   H31   S    
O7    V1    S    
C22   C25   S    
C32   H23   S    
O18   C27   A    
O9    C4    A    
C11   H5    S    
C31   H20   S    
O19   C28   A    
C6    C11   S    
C13   C35   S    
C16   C29   S    
C15   C16   D    
O14   C26   A    
V3    O20   S    
C34   H28   S    
O12   V3    S    
C1    C20   S    
C10   C11   S    
C7    C27   S    
C19   C20   D    
O4    C2    A    
C11   C12   S    
O11   C26   A    
C2    C24   S    
C30   H18   S    
O2    C1    A    
C21   C22   D    
C14   H6    S    
O14   V3    S    
C29   H15   S    
C5    C6    S    
O16   V4    S    
O13   V3    S    
C4    C12   S    
C35   H32   S    
O3    C4    A    
C29   H13   S    
O6    V2    S    
C33   H26   S    
C8    H3    S    
O9    V2    S    
C3    C14   S    
C31   H21   S    
O2    V1    S    
C22   H11   S    
O15   V3    S    
C32   H24   S    
C23   C24   D    
C9    O21   S    
C13   C15   S    
O1    C2    A    
C17   C19   S    
C10   H4    S    
O5    V1    S    
C23   C32   S    
O8    C3    A    
C33   C34   S    
O18   V4    S    
C5    C8    S    
C17   H8    S    
O7    V2    S    
O4    V1    S    
O3    V1    S    
V1    O10   S    
O5    C3    A    
O17   V3    S    
C20   H10   S    
C15   H7    S    
C30   H16   S    
C21   C23   S    
V4    O20   S    
C18   C26   S    
C33   H25   S    
C7    C10   S    
C8    C9    S    
C35   H30   S    
C7    C8    S    
C25   O16   A    
