data_mof_unit_29655.cif
_audit_creation_date              2012-10-26T18:53:18-0400
_audit_creation_method            fapswitch 2.2
_symmetry_space_group_name_H-M    P1
_symmetry_Int_Tables_number       1
_space_group_crystal_system       triclinic
_cell_length_a                    14.742219
_cell_length_b                    14.745943
_cell_length_c                    15.883214
_cell_angle_alpha                 76.516846
_cell_angle_beta                  103.215857
_cell_angle_gamma                 115.339451
_cell_volume                      3001.82694753

loop_
_atom_site_label
_atom_site_type_symbol
_atom_type_description
_atom_site_fract_x
_atom_site_fract_y
_atom_site_fract_z
_atom_type_partial_charge
C1    C     C_R   0.879816 0.312009 0.514154 0.575273
C2    C     C_R   0.187922 0.795510 0.488045 -0.043685
C3    C     C_R   0.783463 0.029692 0.593113 -0.151245
C4    C     C_R   0.000001 0.499898 0.659714 0.542000
C5    C     C_R   0.849276 0.130495 0.573148 -0.170781
C6    C     C_R   0.705853 0.174217 0.502375 0.222266
C7    C     C_R   0.638213 0.076256 0.535974 0.011475
C8    C     C_R   0.678264 0.002171 0.575852 -0.030367
C9    C     C_R   0.532651 0.049960 0.531237 -0.009330
C10   C     C_R   0.466070 0.946274 0.546512 0.017262
C11   C     C_R   0.508603 0.873448 0.588503 0.222235
C12   C     C_3   0.056988 0.433935 0.075140 0.137598
C13   C     C_R   0.613302 0.902193 0.601199 -0.062877
C14   C     C_R   0.492600 0.124454 0.518463 -0.165221
C15   C     C_R   0.388666 0.098220 0.507228 -0.109533
C16   C     C_R   0.120002 0.687888 0.486851 0.543252
C17   C     C_R   0.321059 0.997194 0.504217 0.092030
C18   C     C_R   0.359976 0.920714 0.520980 -0.023325
C19   C     C_R   0.215493 0.971611 0.483845 0.239666
C20   C     C_R   0.149461 0.870062 0.477393 -0.128941
C21   C     C_R   0.292675 0.822340 0.506253 -0.160914
C22   C     C_R   0.721647 0.676188 0.360787 -0.155695
C23   C     C_3   0.999989 0.498624 0.083034 0.109300
C24   C     C_R   0.800536 0.643015 0.381610 0.043777
C25   C     C_R   0.713166 0.507694 0.485823 0.059868
C26   C     C_R   0.629270 0.536604 0.466597 0.004130
C27   C     C_R   0.636154 0.623901 0.403636 0.037764
C28   C     C_R   0.999982 0.500062 0.340288 0.551398
C29   C     C_R   0.540149 0.483007 0.507910 0.028555
C30   C     C_R   0.460582 0.519924 0.487873 0.040619
C31   C     C_R   0.472692 0.608775 0.426159 -0.124260
C32   C     C_R   0.558330 0.658909 0.384408 -0.125006
C33   C     C_R   0.527546 0.392796 0.567662 -0.136190
C34   C     C_3   0.054103 0.608440 0.036869 -0.267130
C35   C     C_R   0.441152 0.340371 0.606929 -0.133672
C36   C     C_R   0.363964 0.375615 0.588867 -0.004066
C37   C     C_R   0.371452 0.465758 0.529856 0.000785
C38   C     C_R   0.278323 0.319410 0.629360 -0.071887
C39   C     C_R   0.199747 0.351619 0.613634 0.390573
C40   C     C_3   0.055764 0.433619 0.976955 -0.179173
C41   C     C_R   0.287986 0.495523 0.514987 0.024396
C42   C     C_3   0.889789 0.454474 0.937555 -0.218122
C43   C     C_3   0.889693 0.454610 0.035061 -0.189079
C44   C     C_1   0.999843 0.499805 0.250597 -0.014970
C45   C     C_3   0.054431 0.608630 0.939339 -0.232052
C46   C     C_3   0.000003 0.499089 0.917363 0.040224
C47   C     C_1   0.999852 0.499378 0.175117 -0.025796
C48   C     C_1   0.999955 0.499431 0.825088 -0.072371
C49   C     C_1   0.999958 0.499672 0.749463 -0.026810
C50   C     C_R   0.811099 0.203832 0.529026 0.040614
Cu1   Cu    Cu3+1 0.081750 0.475690 0.522550 0.966843
Cu2   Cu    Cu3+1 0.918250 0.524310 0.477450 0.966245
H1    H     H_    0.135157 0.463953 0.963362 0.086943
H2    H     H_    0.563932 0.726328 0.336758 0.111406
H3    H     H_    0.286615 0.561583 0.469272 0.124775
H4    H     H_    0.434525 0.270777 0.651884 0.111085
H5    H     H_    0.867149 0.684178 0.349364 0.124660
H6    H     H_    0.716727 0.445254 0.535390 0.129318
H7    H     H_    0.847825 0.499976 0.895289 0.119191
H8    H     H_    0.416600 0.641183 0.407995 0.098793
H9    H     H_    0.582514 0.359165 0.584940 0.093408
H10   H     H_    0.849193 0.375425 0.922720 0.127339
H11   H     H_    0.848103 0.375853 0.066831 0.171941
H12   H     H_    0.137344 0.468905 0.106738 0.107151
H13   H     H_    0.848338 0.500848 0.039463 0.100651
H14   H     H_    0.134080 0.642202 0.925750 0.124006
H15   H     H_    0.015808 0.657287 0.897163 0.129571
H16   H     H_    0.133584 0.642499 0.069937 0.108102
H17   H     H_    0.060703 0.302119 0.125274 0.322677
H18   H     H_    0.014937 0.656677 0.041413 0.122584
H19   H     H_    0.361650 0.158192 0.497412 0.178818
H20   H     H_    0.612006 0.196916 0.400948 0.325999
H21   H     H_    0.398252 0.781308 0.651724 0.328836
H22   H     H_    0.103587 0.015750 0.457056 0.325674
H23   H     H_    0.644230 0.846180 0.634255 0.142663
H24   H     H_    0.086090 0.330996 0.666532 0.364741
H25   H     H_    0.727899 0.742891 0.312084 0.096125
H26   H     H_    0.271899 0.249552 0.673882 0.129096
H27   H     H_    0.321528 0.765884 0.507334 0.180724
H28   H     H_    0.068254 0.849528 0.463733 0.116928
H29   H     H_    0.814890 0.973940 0.625474 0.123857
H30   H     H_    0.930063 0.150849 0.592076 0.183691
H31   H     H_    0.017811 0.354601 0.961802 0.148174
H32   H     H_    0.541317 0.203653 0.519816 0.161213
N1    N     N_R   0.795410 0.560790 0.443550 -0.231122
N2    N     N_R   0.204590 0.439170 0.556520 -0.236390
O1    O     O_R   0.977910 0.338120 0.529720 -0.500477
O2    O     O_3   0.672585 0.238816 0.438033 -0.700089
O3    O     O_3   0.452751 0.777347 0.627846 -0.717188
O4    O     O_3   0.178640 0.046475 0.470701 -0.711321
O5    O     O_3   0.116992 0.289137 0.654798 -0.718259
O6    O     O_R   0.839850 0.379180 0.491640 -0.443446
O7    O     O_R   0.069060 0.479460 0.639610 -0.520702
O8    O     O_R   0.931000 0.520530 0.601530 -0.504142
O9    O     O_R   0.160150 0.620820 0.508360 -0.508934
O10   O     O_R   0.022090 0.661880 0.470280 -0.512012
O11   O     O_R   0.069000 0.479470 0.398470 -0.493415
O12   O     O_R   0.930940 0.520540 0.360390 -0.493670
O13   O     O_3   0.011659 0.334077 0.118045 -0.704625

loop_
_geom_bond_atom_site_label_1
_geom_bond_atom_site_label_2
_ccdc_geom_bond_type
C28   O11   A    
Cu1   O11   S    
C1    O1    A    
C8    C13   A    
C18   C21   A    
C19   C20   A    
C14   H32   S    
C43   H11   S    
C7    C8    A    
C45   C46   S    
C40   C46   S    
C41   N2    A    
C12   C23   S    
C26   C27   A    
C36   C37   A    
C30   C31   A    
C12   H12   S    
C29   C33   A    
C6    O2    S    
C7    C9    A    
C42   C46   S    
C32   H2    S    
C41   H3    S    
C12   O13   S    
C17   C19   A    
C13   H23   S    
C24   H5    S    
C45   H15   S    
Cu2   O8    S    
C2    C16   S    
C1    C50   S    
C42   H10   S    
C44   C47   T    
C35   H4    S    
C40   H31   S    
Cu1   N2    S    
C39   O5    S    
H20   O2    S    
C46   C48   S    
C16   O10   A    
C23   C47   S    
C20   H28   S    
C2    C20   A    
Cu1   Cu2   S    
C3    C8    A    
C34   H16   S    
C24   N1    A    
C38   H26   S    
C25   C26   A    
C28   C44   S    
C30   C37   A    
C35   C36   A    
C31   H8    S    
C12   C40   S    
C9    C14   A    
C3    H29   S    
C29   C30   A    
C11   O3    S    
C31   C32   A    
C43   H13   S    
C23   C34   S    
C21   H27   S    
C2    C21   A    
C25   N1    A    
C17   C18   A    
C34   C45   S    
C6    C50   A    
Cu1   O7    S    
C4    O8    A    
H17   O13   S    
C48   C49   T    
C1    O6    A    
C22   C27   A    
C22   C24   A    
C5    C50   A    
Cu2   O6    S    
C25   H6    S    
Cu1   O1    S    
C9    C10   A    
C28   O12   A    
C15   C17   A    
C34   H18   S    
Cu2   N1    S    
C16   O9    A    
C27   C32   A    
C23   C43   S    
C22   H25   S    
C3    C5    A    
C42   H7    S    
C6    C7    A    
C15   H19   S    
C4    C49   S    
H22   O4    S    
C36   C38   A    
H21   O3    S    
C19   O4    S    
C5    H30   S    
C11   C13   A    
C38   C39   A    
C10   C18   A    
Cu2   O12   S    
C33   C35   A    
Cu2   O10   S    
C37   C41   A    
C10   C11   A    
H24   O5    S    
C4    O7    A    
C26   C29   A    
C33   H9    S    
C40   H1    S    
C42   C43   S    
C45   H14   S    
C14   C15   A    
C39   N2    A    
Cu1   O9    S    
