data_mof_unit_22063.cif
_audit_creation_date              2012-12-10T19:16:26-0500
_audit_creation_method            fapswitch 2.2
_symmetry_space_group_name_H-M    P1
_symmetry_Int_Tables_number       1
_space_group_crystal_system       triclinic
_cell_length_a                    10.638688
_cell_length_b                    9.773104
_cell_length_c                    27.439689
_cell_angle_alpha                 90.508651
_cell_angle_beta                  89.808821
_cell_angle_gamma                 90.357979
_cell_volume                      2852.80343426

loop_
_atom_site_label
_atom_site_type_symbol
_atom_type_description
_atom_site_fract_x
_atom_site_fract_y
_atom_site_fract_z
_atom_type_partial_charge
C1    C     C_R   0.258086 0.499563 0.498571 0.868066
C2    C     C_R   0.320670 0.381135 0.974142 0.069179
C3    C     C_R   0.551396 0.368038 0.973139 0.048366
C4    C     C_R   0.495300 0.499139 0.405872 0.827807
C5    C     C_R   0.435569 0.372303 0.948137 0.066805
C6    C     C_R   0.209682 0.407610 0.947852 -0.148874
C7    C     C_R   0.211785 0.419755 0.897370 -0.166077
C8    C     C_R   0.324263 0.403256 0.871426 -0.014065
C9    C     C_R   0.435536 0.374423 0.896718 -0.057356
C10   C     C_R   0.547889 0.353020 0.870712 -0.015050
C11   C     C_R   0.546743 0.360933 0.819920 0.497729
C12   C     C_R   0.475020 0.605317 0.274454 -0.092444
C13   C     C_R   0.330075 0.423193 0.820955 0.511636
C14   C     C_R   0.363116 0.382608 0.711950 -0.110527
C15   C     C_R   0.374874 0.412388 0.662720 -0.238123
C16   C     C_R   0.742298 0.499928 0.498759 0.863167
C17   C     C_R   0.564130 0.543707 0.679156 -0.276727
C18   C     C_R   0.548139 0.521183 0.728697 -0.097235
C19   C     C_R   0.449616 0.437104 0.745404 0.287034
C20   C     C_R   0.322147 0.374048 0.025737 -0.066939
C21   C     C_R   0.438077 0.396499 0.049951 0.006822
C22   C     C_R   0.552872 0.397006 0.023581 0.084092
C23   C     C_R   0.445449 0.479677 0.252232 0.321861
C24   C     C_R   0.212440 0.347106 0.053773 0.513008
C25   C     C_R   0.664685 0.460380 0.097755 -0.145067
C26   C     C_R   0.661973 0.339571 0.946487 -0.221460
C27   C     C_R   0.659533 0.329183 0.895981 -0.132167
C28   C     C_R   0.497394 0.499621 0.593934 0.837796
C29   C     C_R   0.664806 0.432512 0.048092 -0.229442
C30   C     C_3   0.073052 0.542052 0.549626 0.371604
C31   C     C_3   0.069172 0.350680 0.486747 0.341799
C32   C     C_3   0.927764 0.538868 0.549291 -0.478801
C33   C     C_3   0.926232 0.353287 0.483611 -0.432490
C34   C     C_R   0.439364 0.419551 0.100740 -0.057478
C35   C     C_3   0.072213 0.606280 0.460905 -0.392961
C36   C     C_3   0.121817 0.499084 0.497870 -0.028418
C37   C     C_3   0.878684 0.498590 0.497924 0.033843
C38   C     C_3   0.928400 0.602044 0.459873 -0.412798
C39   C     C_3   0.374334 0.079472 0.511214 -0.416959
C40   C     C_3   0.371259 0.918838 0.505273 -0.376161
C41   C     C_3   0.535533 0.081557 0.449995 0.353035
C42   C     C_3   0.550549 0.918117 0.451950 0.302387
C43   C     C_3   0.594126 0.081237 0.534205 0.396746
C44   C     C_3   0.578758 0.919894 0.539301 0.396894
C45   C     C_R   0.327495 0.408858 0.127814 -0.087139
C46   C     C_R   0.330701 0.433784 0.178164 0.532884
C47   C     C_R   0.551665 0.477231 0.174776 0.496917
C48   C     C_R   0.427015 0.363064 0.280477 -0.118379
C49   C     C_R   0.441609 0.370687 0.330580 -0.263598
C50   C     C_R   0.489730 0.613089 0.324834 -0.239650
C51   C     C_3   0.134695 0.689699 0.612456 -0.294262
C52   C     C_3   0.129355 0.334809 0.402819 -0.255582
C53   C     C_3   0.700831 0.195684 0.598215 0.092104
C54   C     C_3   0.695883 0.216796 0.653335 -0.779454
C55   C     C_3   0.613034 0.862935 0.621007 0.167566
C56   C     C_R   0.216601 0.366941 0.104687 -0.249354
C57   C     C_3   0.551323 0.875758 0.670933 -0.783897
C58   C     C_3   0.661878 0.152418 0.383421 -0.234431
C59   C     C_3   0.711507 0.828568 0.401283 -0.249174
C60   C     C_3   0.994831 0.321635 0.049343 -0.358803
C61   C     C_R   0.552814 0.452957 0.124501 0.007574
C62   C     C_R   0.476806 0.494782 0.353053 -0.044814
C63   C     C_R   0.475684 0.492796 0.646114 -0.013755
H1    H     H_    0.512109 0.710729 0.341482 0.137408
H2    H     H_    0.089732 0.290434 0.520071 0.085251
H3    H     H_    0.893582 0.463990 0.576696 0.103363
H4    H     H_    0.887733 0.274782 0.508915 0.155398
H5    H     H_    0.488381 0.696032 0.252606 0.137233
H6    H     H_    0.889977 0.640713 0.560206 0.204338
H7    H     H_    0.892602 0.324449 0.446601 0.215730
H8    H     H_    0.102643 0.711162 0.471978 0.229380
H9    H     H_    0.111085 0.593156 0.423770 0.146361
H10   H     H_    0.892586 0.706480 0.468087 0.229302
H11   H     H_    0.895474 0.572695 0.422756 0.151939
H12   H     H_    0.403745 0.265867 0.263391 0.138571
H13   H     H_    0.301678 0.123744 0.487258 0.225639
H14   H     H_    0.311992 0.890156 0.473381 0.154535
H15   H     H_    0.348209 0.108525 0.549190 0.231699
H16   H     H_    0.324190 0.872470 0.537422 0.266932
H17   H     H_    0.457601 0.106221 0.424355 0.045830
H18   H     H_    0.493105 0.873763 0.421652 0.061932
H19   H     H_    0.689976 0.098856 0.518540 0.063830
H20   H     H_    0.673898 0.872570 0.536378 0.058000
H21   H     H_    0.134496 0.345364 0.126684 0.197077
H22   H     H_    0.308387 0.367800 0.637184 0.141155
H23   H     H_    0.752770 0.488022 0.115052 0.185306
H24   H     H_    0.288449 0.314791 0.723811 0.166392
H25   H     H_    0.125115 0.444254 0.878855 0.191205
H26   H     H_    0.121693 0.429369 0.965909 0.182930
H27   H     H_    0.425630 0.279070 0.351644 0.155700
H28   H     H_    0.215985 0.627466 0.624223 0.174378
H29   H     H_    0.048696 0.660983 0.633277 0.155127
H30   H     H_    0.156791 0.798352 0.620968 0.194087
H31   H     H_    0.211681 0.404567 0.400278 0.157970
H32   H     H_    0.040566 0.387083 0.393498 0.154565
H33   H     H_    0.143536 0.254030 0.374734 0.182546
H34   H     H_    0.751149 0.323286 0.964061 0.138879
H35   H     H_    0.721487 0.295781 0.581469 0.169040
H36   H     H_    0.780923 0.126432 0.589739 0.073917
H37   H     H_    0.716627 0.120150 0.672451 0.234067
H38   H     H_    0.767197 0.294183 0.664608 0.212790
H39   H     H_    0.601690 0.252074 0.664945 0.289569
H40   H     H_    0.694111 0.933797 0.619609 0.112867
H41   H     H_    0.652461 0.759773 0.615476 0.121407
H42   H     H_    0.468944 0.805859 0.673339 0.262902
H43   H     H_    0.619867 0.849967 0.699807 0.197750
H44   H     H_    0.518225 0.982124 0.676902 0.268406
H45   H     H_    0.648660 0.594326 0.666938 0.132419
H46   H     H_    0.663705 0.261150 0.372387 0.181367
H47   H     H_    0.587526 0.097482 0.362398 0.098476
H48   H     H_    0.754078 0.108890 0.372769 0.177066
H49   H     H_    0.657258 0.873144 0.370900 0.118230
H50   H     H_    0.700511 0.715939 0.401237 0.181545
H51   H     H_    0.812162 0.850857 0.394060 0.171403
H52   H     H_    0.990790 0.434746 0.054470 0.152292
H53   H     H_    0.969571 0.267607 0.083455 0.193213
H54   H     H_    0.923077 0.292585 0.021943 0.192683
H55   H     H_    0.746781 0.309342 0.876786 0.190226
H56   H     H_    0.615968 0.564192 0.753960 0.160304
H57   H     H_    0.752604 0.446257 0.029011 0.131808
H58   H     H_    0.107251 0.464455 0.576202 0.017839
N1    N     N_R   0.441660 0.467272 0.200401 -0.356813
N2    N     N_R   0.440972 0.403886 0.796233 -0.349684
N3    N     N_3   0.499750 0.138610 0.498940 -0.122697
N4    N     N_3   0.499750 0.861390 0.498940 -0.133955
O1    O     O_R   0.314910 0.616040 0.499990 -0.595617
O2    O     O_2   0.226802 0.465780 0.797188 -0.575433
O3    O     O_2   0.659898 0.507826 0.198118 -0.565281
O4    O     O_2   0.651225 0.328222 0.794403 -0.574777
O5    O     O_3   0.116195 0.676078 0.561772 -0.595392
O6    O     O_3   0.126359 0.271761 0.448774 -0.605962
O7    O     O_3   0.583245 0.144684 0.580941 -0.557393
O8    O     O_3   0.522087 0.888930 0.584909 -0.567673
O9    O     O_3   0.649546 0.145439 0.434699 -0.560761
O10   O     O_3   0.680135 0.883204 0.447557 -0.592808
O11   O     O_3   0.112696 0.277743 0.031714 -0.600920
O12   O     O_R   0.314910 0.383960 0.499990 -0.620796
O13   O     O_R   0.500140 0.616020 0.428740 -0.634523
O14   O     O_R   0.500140 0.383980 0.428740 -0.591072
O15   O     O_R   0.685320 0.616040 0.499970 -0.609660
O16   O     O_R   0.685320 0.383960 0.499970 -0.608007
O17   O     O_R   0.500090 0.616050 0.571230 -0.583276
O18   O     O_R   0.500090 0.383950 0.571230 -0.567607
O19   O     O_2   0.224095 0.424631 0.204782 -0.565371
Zn1   Zn    Zn3+2 0.500150 0.654960 0.499980 0.968831
Zn2   Zn    Zn3+2 0.500150 0.345040 0.499980 0.988262

loop_
_geom_bond_atom_site_label_1
_geom_bond_atom_site_label_2
_ccdc_geom_bond_type
C10   C27   A    
O18   Zn2   S    
C57   H42   S    
O14   Zn2   S    
C8    C13   A    
C22   C29   A    
C55   H40   S    
C58   H46   S    
C50   H1    S    
C41   C42   S    
C54   H38   S    
C35   C36   S    
O17   Zn1   S    
C49   H27   S    
C44   H20   S    
C41   H17   S    
C7    C8    A    
C2    C6    A    
C53   C54   S    
C58   O9    S    
C12   H5    S    
C12   C23   A    
C19   N2    S    
C26   C27   A    
C41   N3    S    
C43   O7    S    
C14   H24   S    
C31   C36   S    
C13   N2    A    
O13   Zn1   S    
C4    C62   S    
C52   H32   S    
C17   C18   A    
C18   C19   A    
C31   O6    S    
C42   N4    S    
C51   H28   S    
O1    Zn1   S    
C20   C24   A    
C45   C56   A    
C8    C9    A    
C31   C33   S    
C52   H31   S    
C23   C48   A    
C30   C32   S    
C9    C10   A    
C60   O11   S    
C16   C37   S    
C15   H22   S    
C24   O11   S    
C57   H43   S    
C35   H8    S    
C21   C22   A    
C48   H12   S    
C54   H37   S    
C16   O15   A    
C42   H18   S    
C11   O4    S    
C41   O9    S    
C51   O5    S    
C56   H21   S    
C23   N1    S    
C25   C29   A    
C29   H57   S    
C44   N4    S    
C2    C20   A    
C58   H48   S    
C53   H36   S    
C39   H15   S    
O12   Zn2   S    
C47   O3    S    
C35   C38   S    
C1    O1    A    
C17   H45   S    
C39   C40   S    
C53   O7    S    
C47   N1    A    
C46   O19   S    
C21   C34   A    
C3    C22   A    
C30   O5    S    
N3    Zn2   S    
C55   H41   S    
C34   C61   A    
C33   C37   S    
C39   N3    S    
C42   O10   S    
C43   C44   S    
C5    C9    A    
C37   C38   S    
C51   H29   S    
C7    H25   S    
C30   H58   S    
C59   H50   S    
C59   H49   S    
C40   H16   S    
C60   H54   S    
C28   O18   A    
C25   C61   A    
C32   C37   S    
C32   H6    S    
C34   C45   A    
O16   Zn2   S    
C51   H30   S    
C33   H7    S    
C48   C49   A    
C57   H44   S    
C35   H9    S    
C55   C57   S    
C50   C62   A    
C60   H53   S    
C2    C5    A    
C28   O17   A    
C1    O12   A    
C33   H4    S    
C32   H3    S    
C38   H11   S    
C27   H55   S    
C44   O8    S    
C31   H2    S    
C49   C62   A    
C58   H47   S    
C52   O6    S    
C14   C19   A    
C54   H39   S    
C3    C26   A    
C11   N2    A    
C3    C5    A    
O15   Zn1   S    
C47   C61   A    
C12   C50   A    
C6    C7    A    
C53   H35   S    
C24   C56   A    
C6    H26   S    
C30   C36   S    
C16   O16   A    
N4    Zn1   S    
C17   C63   A    
C4    O14   A    
C39   H13   S    
C59   H51   S    
C40   N4    S    
C43   N3    S    
C59   O10   S    
C25   H23   S    
C52   H33   S    
C40   H14   S    
C55   O8    S    
C10   C11   A    
C26   H34   S    
C4    O13   A    
C13   O2    S    
C28   C63   S    
C45   C46   A    
C20   C21   A    
C43   H19   S    
C15   C63   A    
C14   C15   A    
C46   N1    A    
C60   H52   S    
C18   H56   S    
C1    C36   S    
C38   H10   S    
