data_mof_unit_15195.cif
_audit_creation_date              2012-12-10T19:53:42-0500
_audit_creation_method            fapswitch 2.2
_symmetry_space_group_name_H-M    P1
_symmetry_Int_Tables_number       1
_space_group_crystal_system       triclinic
_cell_length_a                    14.950583
_cell_length_b                    14.174068
_cell_length_c                    10.510042
_cell_angle_alpha                 90.31896
_cell_angle_beta                  90.099563
_cell_angle_gamma                 89.86458
_cell_volume                      2227.14505358

loop_
_atom_site_label
_atom_site_type_symbol
_atom_type_description
_atom_site_fract_x
_atom_site_fract_y
_atom_site_fract_z
_atom_type_partial_charge
C1    C     C_R   0.327731 0.500087 0.501721 0.862354
C2    C     C_R   0.672426 0.499974 0.503350 0.872442
C3    C     C_R   0.464411 0.104882 0.397191 -0.285029
C4    C     C_R   0.568091 0.894849 0.561202 -0.284691
C5    C     C_R   0.535241 0.105551 0.603057 -0.285847
C6    C     C_R   0.431783 0.894639 0.438892 -0.285517
C7    C     C_R   0.464906 0.204133 0.399242 0.013106
C8    C     C_R   0.566733 0.795600 0.560284 0.013892
C9    C     C_R   0.534875 0.204783 0.600917 0.002846
C10   C     C_R   0.433242 0.795395 0.439726 0.017891
C11   C     C_R   0.499845 0.053347 0.500114 0.141624
C12   C     C_R   0.499903 0.946614 0.500080 0.139974
C13   C     C_R   0.499377 0.499638 0.257285 0.883255
C14   C     C_R   0.499794 0.500274 0.742668 0.884495
C15   C     C_3   0.434836 0.558985 0.043074 -0.222712
C16   C     C_3   0.562858 0.440401 0.956671 -0.236843
C17   C     C_3   0.515519 0.588445 0.959998 -0.197017
C18   C     C_3   0.482351 0.410957 0.039843 -0.213757
C19   C     C_3   0.419127 0.471536 0.958120 0.053370
C20   C     C_3   0.578720 0.527635 0.041508 0.051778
C21   C     C_3   0.498869 0.500667 0.877320 -0.019591
C22   C     C_3   0.499126 0.498708 0.122534 -0.019034
C23   C     C_R   0.098102 0.573190 0.592703 -0.195174
C24   C     C_R   0.904075 0.418147 0.571547 -0.195017
C25   C     C_R   0.907712 0.583804 0.512648 -0.197144
C26   C     C_R   0.091483 0.422743 0.480341 -0.195307
C27   C     C_R   0.189799 0.574735 0.577076 -0.182789
C28   C     C_R   0.812253 0.417766 0.556831 -0.209484
C29   C     C_R   0.815825 0.583882 0.500020 -0.184287
C30   C     C_R   0.183263 0.423555 0.466604 -0.197008
C31   C     C_R   0.232149 0.500078 0.513584 -0.005797
C32   C     C_R   0.768198 0.500261 0.518919 -0.025469
C33   C     C_R   0.048726 0.497730 0.543005 0.112509
C34   C     C_R   0.952078 0.500557 0.546456 0.118928
H1    H     H_    0.383918 0.607319 0.084315 0.131104
H2    H     H_    0.615080 0.392816 0.917054 0.138932
H3    H     H_    0.528015 0.660274 0.922538 0.141385
H4    H     H_    0.468458 0.339023 0.076038 0.141264
H5    H     H_    0.065666 0.630916 0.642564 0.126548
H6    H     H_    0.937846 0.353826 0.599696 0.123804
H7    H     H_    0.944259 0.647588 0.490860 0.126980
H8    H     H_    0.053793 0.364945 0.439163 0.129064
H9    H     H_    0.227653 0.633225 0.616176 0.147820
H10   H     H_    0.775965 0.353147 0.574810 0.153970
H11   H     H_    0.782551 0.648349 0.471304 0.157718
H12   H     H_    0.215821 0.365498 0.417542 0.145128
H13   H     H_    0.437319 0.242542 0.319607 0.119667
H14   H     H_    0.619473 0.756916 0.607688 0.120796
H15   H     H_    0.562418 0.243686 0.680603 0.120984
H16   H     H_    0.380545 0.756546 0.392292 0.121724
N1    N     N_R   0.500000 0.252470 0.500000 -0.089615
N2    N     N_R   0.500000 0.747530 0.500000 -0.090468
O1    O     O_R   0.369060 0.579480 0.500010 -0.635665
O2    O     O_R   0.630940 0.420520 0.499990 -0.625581
O3    O     O_R   0.630940 0.579480 0.499990 -0.627084
O4    O     O_R   0.369060 0.420520 0.500010 -0.616840
O5    O     O_R   0.499980 0.579460 0.313950 -0.615639
O6    O     O_R   0.500020 0.420540 0.686050 -0.639323
O7    O     O_R   0.500020 0.579460 0.686050 -0.626407
O8    O     O_R   0.499980 0.420540 0.313950 -0.637298
Zn1   Zn    Zn3+2 0.500000 0.606140 0.500000 0.940928
Zn2   Zn    Zn3+2 0.500000 0.393860 0.500000 0.931833
C35   C     C_R   0.331288 0.437732 0.904518 0.089886
C36   C     C_R   0.252480 0.490380 0.921917 -0.170410
C37   C     C_R   0.171562 0.458325 0.870817 -0.124142
C38   C     C_R   0.168773 0.373898 0.801698 -0.089814
C39   C     C_R   0.246903 0.321283 0.783644 -0.135370
C40   C     C_R   0.327817 0.352774 0.835259 -0.132082
H17   H     H_    0.253269 0.556258 0.974296 0.119824
H18   H     H_    0.111051 0.499246 0.884159 0.130028
H19   H     H_    0.106152 0.349485 0.761699 0.123748
H20   H     H_    0.244772 0.256047 0.729730 0.128238
H21   H     H_    0.387725 0.310927 0.821262 0.139050
C41   C     C_R   0.669660 0.553541 0.091962 0.114105
C42   C     C_R   0.705071 0.644066 0.073279 -0.134378
C43   C     C_R   0.791070 0.665776 0.116902 -0.148643
C44   C     C_R   0.842346 0.597261 0.178573 -0.112055
C45   C     C_R   0.807384 0.507151 0.197860 -0.126846
C46   C     C_R   0.721125 0.485462 0.155569 -0.176426
H22   H     H_    0.666698 0.697815 0.024848 0.113898
H23   H     H_    0.818147 0.735625 0.102321 0.123600
H24   H     H_    0.909002 0.614077 0.211898 0.126594
H25   H     H_    0.846997 0.454244 0.246155 0.142182
H26   H     H_    0.694768 0.415367 0.171161 0.131719
H27   H     H_    0.437540 0.069083 0.314418 0.130435
H28   H     H_    0.623066 0.930454 0.608054 0.130042
H29   H     H_    0.562029 0.070299 0.685881 0.130079
H30   H     H_    0.376773 0.930089 0.392067 0.130057

loop_
_geom_bond_atom_site_label_1
_geom_bond_atom_site_label_2
_ccdc_geom_bond_type
O6    Zn2   S    
C16   C21   S    
C3    H27   S    
C9    N1    A    
C4    C8    A    
C10   N2    A    
C13   O8    A    
C44   C45   A    
C15   C19   S    
C14   O7    A    
C14   C21   S    
O8    Zn2   S    
C19   C21   S    
C1    O4    A    
C5    C11   A    
C29   C32   A    
C3    C7    A    
C2    O3    A    
C6    C12   A    
C30   C31   A    
C13   O5    A    
C37   H18   S    
C1    C31   S    
C17   C20   S    
C6    H30   S    
C2    C32   S    
C39   H20   S    
C1    O1    A    
O1    Zn1   S    
C45   H25   S    
C15   C22   S    
C19   C35   S    
C23   C33   A    
C23   C27   A    
C4    C12   A    
C42   H22   S    
C8    N2    A    
C25   C34   A    
C38   C39   A    
N1    Zn2   S    
C15   H1    S    
C25   C29   A    
C14   O6    A    
O7    Zn1   S    
C41   C42   A    
C27   C31   A    
C39   C40   A    
C28   C32   A    
C9    H15   S    
C43   C44   A    
C2    O2    A    
C25   H7    S    
C45   C46   A    
C18   C19   S    
O2    Zn2   S    
C40   H21   S    
C28   H10   S    
C17   C21   S    
C29   H11   S    
C7    H13   S    
C42   C43   A    
C8    H14   S    
C5    C9    A    
C26   C33   A    
C38   H19   S    
C16   C20   S    
C33   C34   S    
C20   C41   S    
C17   H3    S    
C36   H17   S    
C20   C22   S    
C26   C30   A    
C41   C46   A    
O4    Zn2   S    
C10   H16   S    
C26   H8    S    
C15   C17   S    
C35   C40   A    
C18   C22   S    
C30   H12   S    
C24   C28   A    
C43   H23   S    
C6    C10   A    
C11   C12   S    
O5    Zn1   S    
N2    Zn1   S    
C36   C37   A    
C18   H4    S    
C7    N1    A    
C16   H2    S    
C46   H26   S    
C44   H24   S    
C23   H5    S    
O3    Zn1   S    
C24   H6    S    
C13   C22   S    
C24   C34   A    
C3    C11   A    
C35   C36   A    
C5    H29   S    
C27   H9    S    
C4    H28   S    
C16   C18   S    
C37   C38   A    
