data_mof_unit_45461.cif
_audit_creation_date              2012-12-10T18:53:39-0500
_audit_creation_method            fapswitch 2.2
_symmetry_space_group_name_H-M    P1
_symmetry_Int_Tables_number       1
_space_group_crystal_system       triclinic
_cell_length_a                    10.810709
_cell_length_b                    9.801015
_cell_length_c                    19.178228
_cell_angle_alpha                 90.132122
_cell_angle_beta                  89.980327
_cell_angle_gamma                 90.118647
_cell_volume                      2032.03693625

loop_
_atom_site_label
_atom_site_type_symbol
_atom_type_description
_atom_site_fract_x
_atom_site_fract_y
_atom_site_fract_z
_atom_type_partial_charge
C1    C     C_R   0.259943 0.499888 0.500127 1.057922
C2    C     C_R   0.740642 0.500203 0.500350 1.015966
C3    C     C_R   0.518327 0.501119 0.930051 0.422803
C4    C     C_R   0.517666 0.499313 0.069732 0.416124
C5    C     C_R   0.500927 0.499864 0.365419 0.958007
C6    C     C_R   0.501150 0.500163 0.634608 0.961042
C7    C     C_R   0.062332 0.380279 0.482763 0.305834
C8    C     C_R   0.940161 0.625878 0.501571 0.297621
C9    C     C_R   0.939173 0.375140 0.501464 0.301993
C10   C     C_R   0.063625 0.619487 0.519754 0.300864
C11   C     C_R   0.873727 0.500578 0.501167 -0.412805
C12   C     C_R   0.127866 0.499826 0.500808 -0.413619
C13   C     C_R   0.523266 0.072248 0.559860 0.017778
C14   C     C_R   0.476131 0.927698 0.440197 -0.017188
C15   C     C_R   0.476399 0.071652 0.440166 0.043236
C16   C     C_R   0.523442 0.928320 0.559849 0.035738
C17   C     C_R   0.541898 0.617519 0.254348 -0.221410
C18   C     C_R   0.536704 0.380948 0.745901 -0.216760
C19   C     C_R   0.483454 0.621382 0.747009 -0.222985
C20   C     C_R   0.476276 0.380696 0.252966 -0.213795
C21   C     C_R   0.548126 0.618413 0.181957 0.413619
C22   C     C_R   0.543536 0.380378 0.818267 0.408981
C23   C     C_R   0.487958 0.623181 0.819412 0.411058
C24   C     C_R   0.480835 0.378795 0.180573 0.414351
C25   C     C_R   0.516656 0.498511 0.144979 -0.208146
C26   C     C_R   0.517995 0.501929 0.854970 -0.204607
C27   C     C_R   0.505727 0.499545 0.289767 -0.162812
C28   C     C_R   0.506428 0.500655 0.710299 -0.158703
H1    H     H_    0.566126 0.708672 0.283331 0.206677
H2    H     H_    0.555778 0.288175 0.717156 0.201855
H3    H     H_    0.461214 0.714016 0.719142 0.193582
H4    H     H_    0.449030 0.289548 0.280799 0.192069
H5    H     H_    0.541895 0.126665 0.607766 0.137656
H6    H     H_    0.456640 0.873199 0.392383 0.148458
H7    H     H_    0.457024 0.125644 0.392354 0.137668
H8    H     H_    0.542699 0.874310 0.607686 0.141942
N1    N     N_R   0.500000 0.857200 0.500000 -0.087700
N2    N     N_R   0.500000 0.142800 0.500000 -0.084500
N3    N     N_R   0.409862 0.490254 0.034223 -0.065858
N4    N     N_R   0.626211 0.510802 0.965453 -0.065172
N5    N     N_R   0.410212 0.490530 0.965114 -0.067884
N6    N     N_R   0.625900 0.509335 0.034614 -0.063547
O1    O     O_R   0.316770 0.614620 0.500000 -0.567802
O2    O     O_R   0.683230 0.385380 0.500000 -0.556748
O3    O     O_R   0.683230 0.614620 0.500000 -0.563963
O4    O     O_R   0.316770 0.385380 0.500000 -0.565273
O5    O     O_R   0.499990 0.614700 0.398140 -0.639030
O6    O     O_R   0.500010 0.385300 0.601860 -0.632775
O7    O     O_R   0.500010 0.614700 0.601860 -0.633074
O8    O     O_R   0.499990 0.385300 0.398140 -0.630297
Zn1   Zn    Zn3+2 0.500000 0.653120 0.500000 1.055092
Zn2   Zn    Zn3+2 0.500000 0.346880 0.500000 1.066357
S1    S     S_3+6 0.123472 0.248520 0.428392 0.119539
O9    O     O_2   0.192297 0.146381 0.471876 -0.212687
O10   O     O_2   0.020298 0.177201 0.390366 -0.194525
O11   O     O_3   0.220389 0.316603 0.369273 -0.574168
H9    H     H_    0.247179 0.238560 0.340100 0.379069
S2    S     S_3+6 0.881137 0.785377 0.471083 0.144757
O12   O     O_2   0.807479 0.852314 0.528127 -0.242709
O13   O     O_2   0.985164 0.878493 0.450065 -0.142372
O14   O     O_3   0.790416 0.760088 0.400880 -0.540928
H10   H     H_    0.748948 0.848752 0.392970 0.384899
S3    S     S_3+6 0.880100 0.218243 0.535474 0.138616
O15   O     O_2   0.805487 0.145913 0.480492 -0.224446
O16   O     O_2   0.984448 0.127503 0.558145 -0.156426
O17   O     O_3   0.790235 0.250139 0.605293 -0.560675
H11   H     H_    0.774272 0.159638 0.626378 0.384259
S4    S     S_3+6 0.126903 0.748664 0.575249 0.126018
O18   O     O_2   0.196697 0.851866 0.532658 -0.212075
O19   O     O_2   0.025174 0.819561 0.614502 -0.192891
O20   O     O_3   0.223601 0.677119 0.633220 -0.566657
H12   H     H_    0.256784 0.754606 0.660724 0.383867
S5    S     S_3+6 0.592697 0.771447 0.139367 0.098781
O21   O     O_2   0.497189 0.808171 0.085656 -0.240437
O22   O     O_2   0.604934 0.886253 0.191011 -0.228472
O23   O     O_3   0.729838 0.747853 0.099823 -0.498213
H13   H     H_    0.742126 0.830254 0.070799 0.411468
S6    S     S_3+6 0.581302 0.226068 0.861461 0.100645
O24   O     O_2   0.474544 0.184107 0.906917 -0.230411
O25   O     O_2   0.607690 0.114778 0.809524 -0.232258
O26   O     O_3   0.707234 0.250220 0.911432 -0.503529
H14   H     H_    0.712604 0.167454 0.940816 0.415598
S7    S     S_3+6 0.457072 0.778257 0.864021 0.098666
O27   O     O_2   0.567963 0.816900 0.907086 -0.228953
O28   O     O_2   0.429543 0.890590 0.813147 -0.233014
O29   O     O_3   0.334364 0.757361 0.916830 -0.503996
H15   H     H_    0.332264 0.840774 0.946072 0.415672
S8    S     S_3+6 0.442995 0.224988 0.136319 0.094118
O30   O     O_2   0.543016 0.191488 0.084583 -0.236946
O31   O     O_2   0.429872 0.109415 0.187174 -0.237726
O32   O     O_3   0.308192 0.245033 0.093912 -0.500469
H16   H     H_    0.299875 0.162571 0.064305 0.411174

loop_
_geom_bond_atom_site_label_1
_geom_bond_atom_site_label_2
_ccdc_geom_bond_type
S3    O16   D    
O4    Zn2   S    
C17   H1    S    
S5    O21   D    
C19   H3    S    
C4    C25   S    
N3    N5    A    
S1    O9    D    
C5    O5    A    
C6    O6    A    
S4    O20   S    
N1    Zn1   S    
S6    O25   D    
C1    O4    A    
N2    Zn2   S    
O3    Zn1   S    
S2    O13   D    
C21   S5    S    
O11   H9    S    
C23   C26   A    
C8    S2    S    
C5    C27   S    
C1    O1    A    
C6    C28   S    
C20   C24   A    
C2    O2    A    
S4    O18   D    
O7    Zn1   S    
O8    Zn2   S    
S8    O32   S    
C18   H2    S    
C16   N1    A    
O2    Zn2   S    
S2    O14   S    
N4    N6    A    
O17   H11   S    
S3    O17   S    
C9    S3    S    
S5    O22   D    
C1    C12   S    
C2    C11   S    
C10   C12   A    
C15   H7    S    
O26   H14   S    
S1    O10   D    
C2    O3    A    
C7    C12   A    
C17   C27   A    
C18   C28   A    
C24   C25   A    
C22   S6    S    
O32   H16   S    
O29   H15   S    
O5    Zn1   S    
S2    O12   D    
C17   C21   A    
C19   C23   A    
C15   N2    A    
C13   H5    S    
C24   S8    S    
S7    O27   D    
C4    N3    A    
O23   H13   S    
C19   C28   A    
C9    C11   A    
C13   N2    A    
C23   S7    S    
C8    C10   A    
S7    O28   D    
S8    O31   D    
C3    N4    A    
S5    O23   S    
C5    O8    A    
C7    S1    S    
C20   H4    S    
S1    O11   S    
C7    C9    A    
C21   C25   A    
C3    N5    A    
C18   C22   A    
C3    C26   S    
C14   H6    S    
C20   C27   A    
C10   S4    S    
O20   H12   S    
C16   H8    S    
C14   N1    A    
S6    O24   D    
S6    O26   S    
O1    Zn1   S    
C4    N6    A    
C8    C11   A    
C6    O7    A    
O14   H10   S    
S3    O15   D    
O6    Zn2   S    
S7    O29   S    
S8    O30   D    
S4    O19   D    
C22   C26   A    
C13   C16   A    
C14   C15   A    
