data_mof_unit_23578.cif
_audit_creation_date              2012-12-10T18:59:54-0500
_audit_creation_method            fapswitch 2.2
_symmetry_space_group_name_H-M    P1
_symmetry_Int_Tables_number       1
_space_group_crystal_system       triclinic
_cell_length_a                    11.148486
_cell_length_b                    10.855544
_cell_length_c                    10.48097
_cell_angle_alpha                 87.462074
_cell_angle_beta                  92.261876
_cell_angle_gamma                 95.747283
_cell_volume                      1260.03985518

loop_
_atom_site_label
_atom_site_type_symbol
_atom_type_description
_atom_site_fract_x
_atom_site_fract_y
_atom_site_fract_z
_atom_type_partial_charge
C1    C     C_R   0.508213 0.261488 0.501425 0.883300
C2    C     C_R   0.487555 0.736716 0.497992 0.902811
C3    C     C_R   0.872388 0.483056 0.506685 -0.125892
C4    C     C_R   0.124549 0.481302 0.495841 -0.183923
C5    C     C_R   0.952346 0.510057 0.612510 0.015527
C6    C     C_R   0.047514 0.445702 0.390965 0.004614
C7    C     C_R   0.510458 0.064045 0.383769 0.067966
C8    C     C_R   0.469785 0.928850 0.612706 0.064718
C9    C     C_R   0.466744 0.939890 0.382475 -0.075308
C10   C     C_R   0.514540 0.053902 0.615741 -0.101405
C11   C     C_R   0.466993 0.868874 0.496764 -0.163188
C12   C     C_R   0.517412 0.125944 0.500735 -0.188979
C13   C     C_R   0.548484 0.600102 0.068275 -0.089166
C14   C     C_R   0.457134 0.398198 0.933403 -0.002851
C15   C     C_R   0.553470 0.598551 0.927256 -0.081068
C16   C     C_R   0.445906 0.402567 0.072537 -0.047223
C17   C     C_R   0.260370 0.495467 0.497656 0.868420
C18   C     C_R   0.739057 0.497433 0.502659 0.898150
C19   C     C_R   0.161689 0.604671 0.095836 0.048414
C20   C     C_R   0.823916 0.392179 0.913112 0.072229
C21   C     C_R   0.125435 0.580044 0.218996 -0.060335
C22   C     C_R   0.853920 0.405819 0.788236 -0.176148
C23   C     C_R   0.088159 0.459824 0.261686 0.073373
C24   C     C_R   0.904306 0.517730 0.737602 0.045800
C25   C     C_R   0.081667 0.360219 0.180212 -0.044449
C26   C     C_R   0.920432 0.624783 0.810309 0.064925
C27   C     C_R   0.109443 0.385357 0.051651 -0.046290
C28   C     C_R   0.889289 0.612440 0.940233 -0.063824
C29   C     C_R   0.151034 0.509058 0.009006 -0.067119
C30   C     C_R   0.838954 0.495001 0.990619 -0.077943
C31   C     C_R   0.921952 0.422325 0.408623 0.124499
C32   C     C_R   0.067461 0.466223 0.611097 0.107015
H1    H     H_    0.127329 0.655689 0.283416 0.200087
H2    H     H_    0.844904 0.325338 0.730539 0.194341
N1    N     N_R   0.499970 0.499970 0.857200 -0.131493
N2    N     N_R   0.500030 0.500030 0.142800 -0.147465
O1    O     O_R   0.499990 0.316750 0.614620 -0.577058
O2    O     O_R   0.500010 0.683250 0.385380 -0.591627
O3    O     O_R   0.499990 0.316780 0.385290 -0.634115
O4    O     O_R   0.500010 0.683220 0.614710 -0.578548
O5    O     O_R   0.316760 0.500000 0.614660 -0.558341
O6    O     O_R   0.683240 0.500000 0.385340 -0.566576
O7    O     O_R   0.316760 0.500020 0.385330 -0.547156
O8    O     O_R   0.683240 0.499980 0.614670 -0.563778
Zn1   Zn    Zn3+2 0.500000 0.499980 0.653120 1.064643
Zn2   Zn    Zn3+2 0.500000 0.500020 0.346880 1.045089
C33   C     C_2   0.195389 0.537886 0.880315 0.886866
O9    O     O_2   0.245653 0.461104 0.830067 -0.601843
O10   O     O_R   0.187893 0.653654 0.818488 -0.842024
H3    H     H_    0.226438 0.662177 0.732339 0.366235
C34   C     C_2   0.791693 0.477265 0.118665 0.954594
O11   O     O_2   0.828151 0.546783 0.202484 -0.599292
O12   O     O_R   0.703085 0.378949 0.141286 -0.815233
H4    H     H_    0.669253 0.369627 0.228110 0.371198
C35   C     C_2   0.635295 0.694208 0.858124 0.871440
O13   O     O_2   0.678353 0.668732 0.759602 -0.578413
O14   O     O_R   0.672393 0.809701 0.906179 -0.782239
H5    H     H_    0.737729 0.857579 0.854023 0.361635
C36   C     C_2   0.363018 0.307153 0.140257 0.870352
O15   O     O_2   0.323659 0.331182 0.240984 -0.555151
O16   O     O_R   0.323412 0.192672 0.090284 -0.778291
H6    H     H_    0.264199 0.140734 0.146327 0.375641
N3    N     N_3   0.211048 0.728070 0.062638 -0.407650
H7    H     H_    0.153054 0.770080 0.997706 0.273243
H8    H     H_    0.295574 0.725129 0.023626 0.224880
N4    N     N_3   0.781786 0.271049 0.961775 -0.408754
H9    H     H_    0.828608 0.204821 0.920833 0.182060
H10   H     H_    0.691493 0.256192 0.932528 0.271147
C37   C     C_2   0.065225 0.229458 0.233862 0.950494
O17   O     O_2   0.117577 0.202424 0.334281 -0.579747
O18   O     O_R   0.990826 0.136364 0.174130 -0.748647
H11   H     H_    0.937680 0.169424 0.103500 0.332672
C38   C     C_2   0.960118 0.748791 0.748705 0.991192
O19   O     O_2   0.953376 0.764164 0.632427 -0.621001
O20   O     O_R   0.003772 0.848759 0.822732 -0.788126
H12   H     H_    0.027180 0.926995 0.769291 0.345867
N5    N     N_3   0.098187 0.283104 0.968859 -0.451175
H13   H     H_    0.180324 0.270667 0.930753 0.282371
H14   H     H_    0.035267 0.299099 0.896436 0.217933
N6    N     N_3   0.902394 0.720232 0.016181 -0.378403
H15   H     H_    0.819743 0.733485 0.052627 0.250171
H16   H     H_    0.961141 0.706871 0.093812 0.239364
N7    N     N_3   0.855974 0.315724 0.354108 -0.430913
H17   H     H_    0.897620 0.238760 0.389571 0.204191
H18   H     H_    0.772120 0.298945 0.395381 0.150240
N8    N     N_3   0.079953 0.349492 0.678389 -0.440881
H19   H     H_    0.163173 0.318585 0.661836 0.277720
H20   H     H_    0.017957 0.282447 0.637400 0.169000
N9    N     N_3   0.572734 0.114001 0.272945 -0.352979
H21   H     H_    0.660863 0.146336 0.299532 0.194662
H22   H     H_    0.528941 0.183349 0.226014 0.265530
N10   N     N_3   0.408795 0.867572 0.719750 -0.410259
H23   H     H_    0.350771 0.926786 0.755232 0.215678
H24   H     H_    0.470167 0.845429 0.792098 0.280146
C39   C     C_2   0.392249 0.896454 0.270468 1.023829
O21   O     O_2   0.320163 0.804780 0.281753 -0.652129
O22   O     O_R   0.396850 0.965920 0.154949 -0.695637
H25   H     H_    0.335824 0.933328 0.087688 0.366709
C40   C     C_2   0.597342 0.092477 0.723369 0.953621
O23   O     O_2   0.674847 0.178593 0.707491 -0.706044
O24   O     O_R   0.595079 0.024180 0.839137 -0.727991
H26   H     H_    0.663021 0.051754 0.901382 0.372583
C41   C     C_2   0.591556 0.713764 0.134731 0.980526
O25   O     O_2   0.550828 0.810590 0.101679 -0.566695
O26   O     O_R   0.678615 0.712325 0.233854 -0.731358
H27   H     H_    0.701590 0.797335 0.269059 0.345396
C42   C     C_2   0.427893 0.277988 0.874210 1.009165
O27   O     O_2   0.474373 0.188655 0.920054 -0.584091
O28   O     O_R   0.341328 0.262083 0.775435 -0.768124
H28   H     H_    0.325680 0.172737 0.749860 0.320089

loop_
_geom_bond_atom_site_label_1
_geom_bond_atom_site_label_2
_ccdc_geom_bond_type
N4    H10   S    
C35   O13   D    
N3    H8    S    
O24   H26   S    
C27   C29   A    
C42   O28   S    
C38   O19   D    
C39   O21   D    
C30   C34   S    
O22   H25   S    
C33   O10   S    
C20   C30   A    
N5    H13   S    
C29   C33   S    
N7    H17   S    
C20   N4    S    
C19   C21   A    
C24   C26   A    
C18   O6    A    
N8    H20   S    
C21   H1    S    
C7    N9    S    
C26   C38   S    
C31   N7    S    
C3    C18   S    
O6    Zn2   S    
C37   O18   S    
C33   O9    D    
C19   N3    S    
C42   O27   D    
N2    Zn2   S    
C8    N10   S    
N9    H22   S    
C9    C39   S    
C1    O1    A    
C5    C32   A    
C6    C31   A    
C36   O15   D    
C38   O20   S    
O16   H6    S    
C1    C12   S    
C2    C11   S    
C15   N1    A    
N5    H14   S    
C7    C12   A    
C22   H2    S    
C36   O16   S    
C34   O11   D    
C13   N2    A    
N6    H16   S    
C14   N1    A    
N8    H19   S    
C27   N5    S    
O12   H4    S    
C34   O12   S    
C16   C36   S    
C15   C35   S    
O20   H12   S    
C17   O7    A    
C10   C40   S    
C18   O8    A    
C13   C41   S    
C2    O2    A    
C40   O23   D    
C32   N8    S    
N10   H24   S    
C41   O26   S    
C35   O14   S    
C3    C31   A    
C9    C11   A    
C4    C32   A    
C10   C12   A    
O3    Zn2   S    
C4    C17   S    
C4    C6    A    
C14   C42   S    
N7    H18   S    
C20   C22   A    
C13   C15   A    
C14   C16   A    
C25   C37   S    
O1    Zn1   S    
C19   C29   A    
O8    Zn1   S    
C7    C9    A    
C40   O24   S    
N6    H15   S    
C3    C5    A    
C39   O22   S    
C25   C27   A    
O26   H27   S    
C26   C28   A    
C21   C23   A    
O18   H11   S    
O28   H28   S    
C16   N2    A    
O14   H5    S    
C5    C24   S    
C8    C11   A    
C6    C23   S    
C28   C30   A    
N10   H23   S    
N4    H9    S    
C22   C24   A    
C23   C25   A    
C37   O17   D    
C28   N6    S    
O7    Zn2   S    
C17   O5    A    
O2    Zn2   S    
C1    O3    A    
N3    H7    S    
C2    O4    A    
O4    Zn1   S    
C8    C10   A    
O10   H3    S    
C41   O25   D    
O5    Zn1   S    
N9    H21   S    
N1    Zn1   S    
