data_mof_unit_35114.cif
_audit_creation_date              2012-12-10T16:54:56-0500
_audit_creation_method            fapswitch 2.2
_symmetry_space_group_name_H-M    P1
_symmetry_Int_Tables_number       1
_space_group_crystal_system       triclinic
_cell_length_a                    8.006084
_cell_length_b                    8.620204
_cell_length_c                    15.724508
_cell_angle_alpha                 92.509527
_cell_angle_beta                  84.042247
_cell_angle_gamma                 93.247475
_cell_volume                      1076.83217812

loop_
_atom_site_label
_atom_site_type_symbol
_atom_type_description
_atom_site_fract_x
_atom_site_fract_y
_atom_site_fract_z
_atom_type_partial_charge
C1    C     C_R   0.543539 0.793250 0.499343 0.933144
C2    C     C_3   0.318103 0.532173 0.064279 0.165775
C3    C     C_3   0.505635 0.492957 0.082838 0.094582
C4    C     C_3   0.553253 0.321790 0.041315 0.363508
C5    C     C_3   0.553847 0.326858 0.938460 0.265194
C6    C     C_1   0.505551 0.491379 0.175044 -0.011361
C7    C     C_1   0.496187 0.503308 0.824802 -0.024587
C8    C     C_1   0.497045 0.503399 0.749553 -0.221073
C9    C     C_2   0.558601 0.955996 0.514441 -0.009415
C10   C     C_2   0.441260 0.044022 0.485668 -0.011492
C11   C     C_R   0.499286 0.501483 0.660854 0.883150
C12   C     C_R   0.456445 0.206762 0.500671 0.932675
C13   C     C_R   0.500679 0.498170 0.339152 0.883849
C14   C     C_3   0.311550 0.527718 0.961670 0.351001
C15   C     C_3   0.635068 0.633925 0.945593 0.280462
C16   C     C_3   0.636883 0.631650 0.048484 0.290268
C17   C     C_1   0.503001 0.493853 0.250425 -0.218150
C18   C     C_3   0.499100 0.499404 0.916698 0.102782
H1    H     H_    0.988662 0.619857 0.564837 0.167006
N1    N     N_2   0.950340 0.457950 0.477370 -0.048239
N2    N     N_2   0.049660 0.542050 0.522630 -0.123773
O1    O     O_R   0.389240 0.738570 0.505550 -0.619254
O2    O     O_R   0.678400 0.711630 0.491050 -0.625439
O3    O     O_R   0.355360 0.513470 0.630110 -0.612984
O4    O     O_R   0.644510 0.486530 0.615610 -0.625181
O5    O     O_R   0.321600 0.288370 0.508950 -0.601222
O6    O     O_R   0.610760 0.261430 0.494450 -0.624246
O7    O     O_R   0.355490 0.513470 0.384390 -0.597043
O8    O     O_R   0.644640 0.486530 0.369890 -0.621777
Zn1   Zn    Zn3+2 0.306930 0.517990 0.509680 0.958573
Zn2   Zn    Zn3+2 0.693070 0.482010 0.490320 0.934960
N3    N     N_3   0.272582 0.684249 0.106151 -0.459276
H2    H     H_    0.143640 0.687213 0.124233 0.184747
H3    H     H_    0.302952 0.779845 0.068491 0.210352
C19   C     C_3   0.181976 0.397784 0.932082 -0.862688
H4    H     H_    0.172587 0.288292 0.965850 0.249094
H5    H     H_    0.055545 0.437178 0.943828 0.225494
H6    H     H_    0.199100 0.371790 0.862058 0.247695
N4    N     N_3   0.197196 0.415457 0.105688 -0.477976
H7    H     H_    0.075247 0.435100 0.094264 0.187879
H8    H     H_    0.195095 0.425603 0.172287 0.203094
C20   C     C_3   0.722474 0.266921 0.069648 -0.873181
H9    H     H_    0.740678 0.142815 0.051096 0.226458
H10   H     H_    0.837492 0.322108 0.040182 0.228149
H11   H     H_    0.725313 0.278212 0.140083 0.242911
C21   C     C_3   0.682737 0.013583 0.577541 -0.894506
H12   H     H_    0.726736 0.916045 0.611899 0.227371
H13   H     H_    0.795517 0.072213 0.543325 0.265328
H14   H     H_    0.622697 0.093857 0.627324 0.234520
C22   C     C_3   0.316620 0.986363 0.422837 -0.889871
H15   H     H_    0.272683 0.083793 0.388383 0.229541
H16   H     H_    0.376238 0.905805 0.373080 0.236749
H17   H     H_    0.203876 0.928042 0.457333 0.267984
N5    N     N_3   0.030147 0.353183 0.419758 -0.312566
H18   H     H_    0.998700 0.378205 0.359180 0.175485
H19   H     H_    0.975765 0.243060 0.433730 0.175055
C23   C     C_3   0.232741 0.674166 0.928425 -0.918714
H20   H     H_    0.202859 0.655833 0.861028 0.257777
H21   H     H_    0.115853 0.696756 0.969003 0.224266
H22   H     H_    0.297999 0.786885 0.929972 0.228975
N6    N     N_3   0.801252 0.600845 0.900999 -0.477988
H23   H     H_    0.888737 0.691230 0.912383 0.197249
H24   H     H_    0.798516 0.597009 0.834597 0.209220
C24   C     C_3   0.605290 0.800451 0.915063 -0.960600
H25   H     H_    0.522288 0.868228 0.959994 0.232532
H26   H     H_    0.722742 0.875781 0.910651 0.225098
H27   H     H_    0.560894 0.797400 0.850487 0.252867
N7    N     N_3   0.585696 0.781379 0.090396 -0.469600
H28   H     H_    0.584371 0.779389 0.156947 0.211348
H29   H     H_    0.671009 0.873116 0.071887 0.186058
C25   C     C_3   0.815965 0.619400 0.076997 -0.983534
H30   H     H_    0.894814 0.551026 0.032972 0.247192
H31   H     H_    0.885758 0.734378 0.077557 0.225466
H32   H     H_    0.814737 0.575238 0.142202 0.253857
N8    N     N_3   0.433043 0.206966 0.907111 -0.472040
H33   H     H_    0.465194 0.095543 0.919502 0.197577
H34   H     H_    0.432671 0.208187 0.840606 0.197447
C26   C     C_3   0.723078 0.278624 0.887598 -0.920614
H35   H     H_    0.743735 0.154346 0.896287 0.234120
H36   H     H_    0.722313 0.292204 0.817779 0.244983
H37   H     H_    0.834876 0.339723 0.906542 0.258821
C27   C     C_3   0.427390 0.189182 0.080303 -0.851750
H38   H     H_    0.408151 0.200192 0.151198 0.242081
H39   H     H_    0.303646 0.179101 0.055879 0.247281
H40   H     H_    0.474248 0.071779 0.065107 0.221091

loop_
_geom_bond_atom_site_label_1
_geom_bond_atom_site_label_2
_ccdc_geom_bond_type
O4    Zn2   S    
C15   C18   S    
C14   C18   S    
C19   H4    S    
C3    C6    S    
C7    C8    T    
N4    H8    S    
C21   H14   S    
C13   O8    A    
C19   H5    S    
C26   H36   S    
C23   H21   S    
C11   O4    A    
C15   C16   S    
C11   O3    A    
C2    N3    S    
N6    H24   S    
C21   H12   S    
C2    N4    S    
N7    H28   S    
C22   H16   S    
C15   C24   S    
C13   O7    A    
C16   N7    S    
C9    C10   D    
C9    C21   S    
C16   C25   S    
C20   H10   S    
C21   H13   S    
N5    H19   S    
C22   H17   S    
C12   O6    A    
O6    Zn2   S    
C24   H27   S    
C19   H6    S    
C1    C9    S    
N1    N5    S    
N4    H7    S    
C25   H31   S    
C26   H35   S    
C23   H22   S    
C5    C18   S    
C12   O5    A    
C20   H11   S    
O2    Zn2   S    
C5    N8    S    
N8    H33   S    
C6    C17   T    
C7    C18   S    
C22   H15   S    
C15   N6    S    
N8    H34   S    
C24   H26   S    
C10   C12   S    
C1    O2    A    
C27   H39   S    
C20   H9    S    
C3    C4    S    
C10   C22   S    
C14   C19   S    
C14   C23   S    
N5    H18   S    
O1    Zn1   S    
H1    N2    S    
C4    C5    S    
C25   H32   S    
O5    Zn1   S    
C27   H40   S    
N2    Zn1   S    
C13   C17   S    
C24   H25   S    
O7    Zn1   S    
C2    C3    S    
C25   H30   S    
O8    Zn2   S    
N3    H2    S    
C26   H37   S    
C23   H20   S    
C4    C20   S    
C8    C11   S    
N6    H23   S    
C2    C14   S    
O3    Zn1   S    
C1    O1    A    
C4    C27   S    
N1    N2    D    
N7    H29   S    
C27   H38   S    
C5    C26   S    
C3    C16   S    
N3    H3    S    
N1    Zn2   S    
