data_mof_unit_52453.cif
_audit_creation_date              2012-12-10T17:35:47-0500
_audit_creation_method            fapswitch 2.2
_symmetry_space_group_name_H-M    P1
_symmetry_Int_Tables_number       1
_space_group_crystal_system       triclinic
_cell_length_a                    10.495626
_cell_length_b                    12.171029
_cell_length_c                    12.899912
_cell_angle_alpha                 92.908135
_cell_angle_beta                  91.986423
_cell_angle_gamma                 85.964313
_cell_volume                      1640.8652148

loop_
_atom_site_label
_atom_site_type_symbol
_atom_type_description
_atom_site_fract_x
_atom_site_fract_y
_atom_site_fract_z
_atom_type_partial_charge
C1    C     C_R   0.497685 0.521439 0.700027 0.911719
C2    C     C_R   0.502315 0.478560 0.299973 0.911633
C3    C     C_R   0.520951 0.440271 0.868582 -0.233909
C4    C     C_R   0.479049 0.559728 0.131418 -0.233947
C5    C     C_R   0.516202 0.448281 0.975003 0.166523
C6    C     C_R   0.483799 0.551719 0.024997 0.166534
C7    C     C_R   0.401525 0.953927 0.388240 -0.348679
C8    C     C_R   0.598474 0.046073 0.611761 -0.348675
C9    C     C_R   0.407339 0.839874 0.399678 0.117433
C10   C     C_R   0.592660 0.160126 0.600323 0.117401
C11   C     C_R   0.538528 0.858879 0.552401 0.031371
C12   C     C_R   0.461473 0.141121 0.447598 0.031373
C13   C     C_R   0.534194 0.975979 0.541934 0.065372
C14   C     C_R   0.465806 0.024021 0.458066 0.065371
C15   C     C_R   0.742066 0.499881 0.499057 0.915902
C16   C     C_R   0.257934 0.500119 0.500944 0.915799
C17   C     C_3   0.962628 0.491963 0.596372 0.021024
C18   C     C_3   0.037372 0.508037 0.403629 0.021063
C19   C     C_3   0.037149 0.586756 0.560372 -0.182179
C20   C     C_3   0.962851 0.413244 0.439630 -0.182056
C21   C     C_3   0.122966 0.499827 0.501020 -0.019300
C22   C     C_3   0.877034 0.500173 0.498982 -0.019287
C23   C     C_3   0.050522 0.404746 0.538494 -0.244934
C24   C     C_3   0.949479 0.595254 0.461508 -0.244943
C25   C     C_R   0.505913 0.466183 0.188683 -0.043860
C26   C     C_R   0.494087 0.533817 0.811317 -0.043842
C27   C     C_R   0.456495 0.645564 0.967912 -0.197447
C28   C     C_R   0.543505 0.354436 0.032088 -0.197434
C29   C     C_R   0.461331 0.636528 0.860733 -0.146172
C30   C     C_R   0.538668 0.363472 0.139267 -0.146142
H1    H     H_    0.071443 0.656546 0.610012 0.161521
H2    H     H_    0.928557 0.343454 0.389990 0.161540
H3    H     H_    0.095144 0.327778 0.570640 0.159066
H4    H     H_    0.904856 0.672223 0.429362 0.159064
H5    H     H_    0.455084 0.639344 0.169232 0.152446
H6    H     H_    0.544917 0.360656 0.830768 0.152444
H7    H     H_    0.562315 0.291002 0.183184 0.204411
H8    H     H_    0.437684 0.708997 0.816816 0.204411
H9    H     H_    0.430880 0.725147 0.005942 0.149558
H10   H     H_    0.569120 0.274853 0.994058 0.149558
H11   H     H_    0.343459 0.986822 0.324623 0.189089
H12   H     H_    0.656539 0.013178 0.675378 0.189086
N1    N     N_R   0.523490 0.207800 0.519350 -0.152752
N2    N     N_R   0.476510 0.792200 0.480650 -0.152750
O1    O     O_R   0.506270 0.421700 0.658830 -0.617302
O2    O     O_R   0.493730 0.578300 0.341170 -0.617304
O3    O     O_R   0.491200 0.609310 0.646410 -0.636071
O4    O     O_R   0.508800 0.390690 0.353590 -0.636078
O5    O     O_R   0.693580 0.406210 0.506230 -0.560527
O6    O     O_R   0.306420 0.593790 0.493770 -0.560528
O7    O     O_R   0.678510 0.593830 0.493810 -0.667814
O8    O     O_R   0.321490 0.406170 0.506190 -0.667817
Zn1   Zn    Zn3+2 0.510060 0.374730 0.508290 0.979848
Zn2   Zn    Zn3+2 0.489940 0.625270 0.491710 0.979846
C31   C     C_2   0.917629 0.483691 0.704311 0.443827
H13   H     H_    0.951747 0.414324 0.749627 0.082148
O9    O     O_2   0.843072 0.555056 0.741804 -0.572409
C32   C     C_2   0.082381 0.516314 0.295694 0.443686
H14   H     H_    0.048426 0.585783 0.250439 0.082285
O10   O     O_2   0.156799 0.444865 0.258151 -0.572394
C33   C     C_2   0.389897 0.192453 0.359905 0.428490
H15   H     H_    0.319819 0.260450 0.373683 0.135558
O11   O     O_2   0.410714 0.160378 0.270503 -0.594742
C34   C     C_2   0.610104 0.807547 0.640094 0.428479
H16   H     H_    0.680183 0.739551 0.626316 0.135560
O12   O     O_2   0.589286 0.839621 0.729496 -0.594748
C35   C     C_2   0.662990 0.223242 0.681199 0.448996
H17   H     H_    0.657680 0.202177 0.761622 0.015321
O13   O     O_2   0.737158 0.290300 0.659713 -0.561461
C36   C     C_2   0.337006 0.776759 0.318803 0.448976
H18   H     H_    0.342315 0.797821 0.238380 0.015328
O14   O     O_2   0.262837 0.709703 0.340290 -0.561555

loop_
_geom_bond_atom_site_label_1
_geom_bond_atom_site_label_2
_ccdc_geom_bond_type
C31   H13   S    
C16   C21   S    
C27   C29   A    
C18   C21   S    
C19   H1    S    
C4    C25   A    
C10   C35   S    
C2    O2    A    
C17   C23   S    
C18   C24   S    
C19   C21   S    
C8    H12   S    
C12   N1    A    
C5    C6    A    
C28   H10   S    
C32   O10   D    
C33   O11   D    
N1    Zn1   S    
C15   C22   S    
C27   H9    S    
C23   H3    S    
C29   H8    S    
C36   H18   S    
C15   O7    A    
C17   C31   S    
C7    H11   S    
C4    H5    S    
O1    Zn1   S    
C13   C14   A    
C18   C32   S    
C7    C14   A    
O4    Zn1   S    
C35   H17   S    
C9    C36   S    
C4    C6    A    
C11   C34   S    
C1    O3    A    
C2    O4    A    
C32   H14   S    
C24   H4    S    
C30   H7    S    
C35   O13   D    
C34   O12   D    
C5    C28   A    
C6    C27   A    
C20   C23   S    
O2    Zn2   S    
C11   N2    A    
O6    Zn2   S    
O3    Zn2   S    
C20   C22   S    
C21   C23   S    
C1    C26   S    
C22   C24   S    
O8    Zn1   S    
C20   H2    S    
C25   C30   A    
C7    C9    A    
C9    N2    A    
C10   N1    A    
C3    C26   A    
C16   O8    A    
C16   O6    A    
C3    C5    A    
C17   C22   S    
O7    Zn2   S    
C34   H16   S    
C31   O9    D    
C19   C24   S    
C12   C14   A    
C12   C33   S    
C11   C13   A    
C1    O1    A    
C3    H6    S    
O5    Zn1   S    
C28   C30   A    
C17   C19   S    
C2    C25   S    
C18   C20   S    
C15   O5    A    
C33   H15   S    
C8    C13   A    
N2    Zn2   S    
C26   C29   A    
C8    C10   A    
C36   O14   D    
