data_mof_unit_25602.cif
_audit_creation_date              2013-03-05T15:55:01-0500
_audit_creation_method            fapswitch 2.2
_symmetry_space_group_name_H-M    P1
_symmetry_Int_Tables_number       1
_space_group_crystal_system       triclinic
_cell_length_a                    6.927295
_cell_length_b                    14.568445
_cell_length_c                    16.163773
_cell_angle_alpha                 90.440025
_cell_angle_beta                  90.146877
_cell_angle_gamma                 89.882759
_cell_volume                      1631.1898015

loop_
_atom_site_label
_atom_site_type_symbol
_atom_site_description
_atom_site_fract_x
_atom_site_fract_y
_atom_site_fract_z
_atom_type_partial_charge
O1    O     O_R   0.505810 0.583360 0.413880 -0.568433
O2    O     O_R   0.175870 0.595480 0.585520 -0.613113
O3    O     O_R   0.005540 0.416640 0.586120 -0.609952
C1    C     C_R   0.345010 0.617930 0.614434 0.897292
O4    O     O_R   0.176100 0.594390 0.414490 -0.539092
O5    O     O_R   0.005770 0.415540 0.413870 -0.602840
C2    C     C_R   0.344837 0.615294 0.384856 1.070205
O6    O     O_R   0.505580 0.584460 0.586130 -0.608489
O7    O     O_3   0.339190 0.441320 0.500000 -0.285528
V1    V     V_3+5 0.064350 0.510890 0.500000 1.207535
O8    O     O_R   0.676050 0.404520 0.414480 -0.582195
C3    C     C_R   0.844994 0.382488 0.385513 1.026959
O9    O     O_R   0.675830 0.405610 0.585510 -0.606710
C4    C     C_R   0.845407 0.384790 0.614617 1.036223
V2    V     V_3+5 0.564340 0.489110 0.500000 1.201705
O10   O     O_3   0.839370 0.558680 0.500000 -0.267781
C5    C     C_2   0.720110 0.228297 0.800529 0.622808
C6    C     C_2   0.880782 0.179541 0.820342 -0.611643
H1    H     H_    0.011228 0.185947 0.784036 0.151861
C7    C     C_2   0.708644 0.286660 0.724642 -0.270004
C8    C     C_2   0.862538 0.321494 0.685325 -0.493142
H2    H     H_    0.565038 0.304527 0.702866 0.164289
H3    H     H_    0.007274 0.308019 0.707858 0.164732
C9    C     C_R   0.025380 0.245040 0.200421 -0.090333
H4    H     H_    0.147807 0.246591 0.158889 0.152825
C10   C     C_R   0.015027 0.310468 0.264137 -0.058667
H5    H     H_    0.130557 0.360028 0.270604 0.147822
C11   C     C_R   0.855780 0.313240 0.317731 -0.181564
C12   C     C_R   0.708834 0.248043 0.307261 -0.234476
H6    H     H_    0.588069 0.247600 0.349724 0.164462
C13   C     C_R   0.721222 0.179472 0.245745 0.389508
C14   C     C_R   0.879109 0.179144 0.189663 -0.301046
C15   C     C_R   0.188488 0.725718 0.717182 -0.145873
H7    H     H_    0.047759 0.708900 0.692079 0.119278
C16   C     C_R   0.199768 0.787802 0.783675 -0.121004
H8    H     H_    0.067138 0.817136 0.807468 0.124635
C17   C     C_R   0.379343 0.811853 0.818720 -0.118452
C18   C     C_R   0.547346 0.772232 0.785118 -0.109346
H9    H     H_    0.688106 0.789162 0.810118 0.125579
C19   C     C_R   0.536069 0.710129 0.718645 -0.141831
H10   H     H_    0.668725 0.680878 0.694786 0.122936
C20   C     C_R   0.356447 0.685818 0.683816 -0.116315
C21   C     C_R   0.220669 0.753730 0.308082 0.594228
C22   C     C_R   0.232318 0.815742 0.242353 -0.200039
H11   H     H_    0.125260 0.869865 0.238134 0.180662
C23   C     C_R   0.381233 0.809997 0.183776 -0.371273
C24   C     C_R   0.518654 0.738445 0.190350 0.260169
C25   C     C_R   0.505726 0.674339 0.255339 0.246636
C26   C     C_R   0.356439 0.681679 0.315050 -0.498047
O11   O     O_R   0.230120 0.912300 0.917180 -0.607364
O12   O     O_R   0.559740 0.902430 0.088770 -0.548782
O13   O     O_R   0.729930 0.081310 0.089370 -0.578328
C27   C     C_R   0.391021 0.879412 0.116691 1.125848
O14   O     O_R   0.559840 0.901330 0.917750 -0.597637
O15   O     O_R   0.730030 0.080210 0.917120 -0.556867
C28   C     C_R   0.390733 0.879216 0.888554 0.941675
O16   O     O_R   0.230020 0.913400 0.089430 -0.593064
O17   O     O_3   0.396460 0.055470 0.003290 -0.272397
V3    V     V_3+5 0.671360 0.985960 0.003250 1.269152
O18   O     O_R   0.059740 0.091300 0.917690 -0.609992
C29   C     C_R   0.890085 0.113935 0.889922 1.030729
O19   O     O_R   0.059640 0.092400 0.088720 -0.595351
C30   C     C_R   0.890745 0.112716 0.119144 0.989633
V4    V     V_3+5 0.171350 0.007820 0.003190 1.220309
O20   O     O_3   0.896380 0.938200 0.003220 -0.261935
O21   O     O_3   0.555331 0.218751 0.848438 -0.613973
C31   C     C_3   0.507064 0.304590 0.884204 0.233469
H12   H     H_    0.446126 0.351452 0.836754 0.094199
H13   H     H_    0.635092 0.337528 0.914044 0.094798
C32   C     C_3   0.354908 0.290790 0.950619 -0.804566
H14   H     H_    0.411238 0.244607 0.999436 0.257215
H15   H     H_    0.316910 0.357907 0.979317 0.208543
H16   H     H_    0.222804 0.260425 0.922866 0.244575
O22   O     O_3   0.070213 0.761994 0.363664 -0.581357
C33   C     C_3   0.127811 0.821350 0.428560 0.265495
H17   H     H_    0.146289 0.892570 0.405328 0.111430
H18   H     H_    0.265279 0.797885 0.457699 0.047885
C34   C     C_3   0.972566 0.822305 0.494971 -0.835038
H19   H     H_    0.952707 0.752127 0.519882 0.259374
H20   H     H_    0.015940 0.868933 0.546386 0.197717
H21   H     H_    0.833616 0.846663 0.468535 0.253815
N1    N     N_R   0.661870 0.725660 0.127330 0.255308
O23   O     O_R   0.844261 0.733723 0.145190 -0.340128
O24   O     O_R   0.609695 0.710206 0.051105 -0.407345
N2    N     N_R   0.634731 0.597198 0.256017 0.257819
O25   O     O_R   0.816636 0.608647 0.273291 -0.326543
O26   O     O_R   0.567871 0.514630 0.244793 -0.415678
N3    N     N_R   0.579318 0.107710 0.244880 0.226056
O27   O     O_R   0.399397 0.126811 0.260502 -0.434346
O28   O     O_R   0.634356 0.022237 0.244242 -0.429511

loop_
_geom_bond_atom_site_label_1
_geom_bond_atom_site_label_2
_geom_bond_distance
_ccdc_geom_bond_type
O15   V3    2.005802 S    
O11   V4    2.001470 S    
C16   H8    1.082752 S    
C1    O6    1.296636 A    
N2    O25   1.300766 A    
C10   H5    1.083283 S    
C17   C18   1.406520 A    
C3    C11   1.485536 S    
C15   C20   1.406465 A    
C4    C8    1.478400 S    
C11   C12   1.402717 A    
C16   C17   1.409333 A    
C9    C10   1.399790 A    
O5    C3    1.295590 A    
C18   H9    1.082757 S    
C34   H20   1.110531 S    
V2    O10   2.159857 S    
C5    C7    1.499697 S    
C6    H1    1.083307 S    
C24   N1    1.434614 S    
O19   V4    2.000961 S    
C17   C28   1.492078 S    
O8    V2    2.000939 S    
O19   C30   1.302917 A    
C24   C25   1.414066 A    
C32   H14   1.110439 S    
O1    V2    2.002912 S    
O7    V1    2.155032 S    
C21   O22   1.382230 S    
C19   C20   1.409183 A    
O21   C31   1.413529 S    
O9    C4    1.300461 A    
C22   C23   1.403947 A    
C15   H7    1.082809 S    
O14   V3    1.999776 S    
N2    O26   1.301106 A    
O17   V4    1.708226 S    
O14   C28   1.301988 A    
O22   C33   1.411591 S    
C31   H12   1.112524 S    
C9    H4    1.083353 S    
C2    C26   1.494139 S    
O4    C2    1.301948 A    
C27   O16   1.296845 A    
C34   H19   1.110637 S    
C21   C26   1.412906 A    
O17   V3    2.154989 S    
O11   C28   1.296664 A    
O18   C29   1.299767 A    
O12   C27   1.299530 A    
O2    C1    1.301787 A    
C33   H17   1.113863 S    
C9    C14   1.406779 A    
C12   H6    1.083522 S    
O13   V3    2.000414 S    
C13   C14   1.422329 A    
C32   H16   1.109457 S    
C5    C6    1.358065 D    
C5    O21   1.388817 S    
N3    O27   1.301438 A    
C33   H18   1.115518 S    
O3    C4    1.290741 A    
C19   H10   1.082813 S    
N3    O28   1.301501 A    
O6    V2    2.001088 S    
N1    O24   1.301208 A    
O9    V2    2.000787 S    
C21   C22   1.402480 A    
O12   V3    2.006171 S    
O2    V1    1.999640 S    
C22   H11   1.083755 S    
O16   V4    2.006168 S    
C23   C24   1.414648 A    
C25   C26   1.419692 A    
C13   N3    1.436457 S    
O1    C2    1.295582 A    
C14   C30   1.491824 S    
C7    H2    1.086196 S    
O13   C30   1.295350 A    
O5    V1    2.000540 S    
O8    C3    1.300340 A    
C6    C29   1.482707 S    
C10   C11   1.404709 A    
O18   V4    2.000818 S    
C31   C32   1.521127 S    
V4    O20   2.159836 S    
C8    H3    1.083917 S    
O7    V2    1.709320 S    
O4    V1    2.006142 S    
C12   C13   1.406696 A    
O3    V1    2.005889 S    
V1    O10   1.705643 S    
V3    O20   1.705719 S    
C18   C19   1.401439 A    
C34   H21   1.110775 S    
C1    C20   1.491634 S    
O15   C29   1.293076 A    
C23   C27   1.490158 S    
C15   C16   1.401514 A    
C33   C34   1.521406 S    
C7    C8    1.344822 D    
N1    O23   1.300660 A    
C25   N2    1.434490 S    
C32   H15   1.110461 S    
C31   H13   1.115997 S    
