data_mof_unit_46651.cif
_audit_creation_date              2012-12-10T18:47:09-0500
_audit_creation_method            fapswitch 2.2
_symmetry_space_group_name_H-M    P1
_symmetry_Int_Tables_number       1
_space_group_crystal_system       triclinic
_cell_length_a                    10.627678
_cell_length_b                    9.837483
_cell_length_c                    15.000975
_cell_angle_alpha                 89.982392
_cell_angle_beta                  90.123601
_cell_angle_gamma                 90.03941
_cell_volume                      1568.34186702

loop_
_atom_site_label
_atom_site_type_symbol
_atom_type_description
_atom_site_fract_x
_atom_site_fract_y
_atom_site_fract_z
_atom_type_partial_charge
C1    C     C_R   0.260538 0.499951 0.499757 0.923452
C2    C     C_R   0.128003 0.499387 0.499897 -0.147297
C3    C     C_R   0.567192 0.071941 0.562304 -0.072909
C4    C     C_R   0.432807 0.928059 0.437696 -0.072909
C5    C     C_R   0.432779 0.071967 0.437705 -0.072754
C6    C     C_R   0.567221 0.928033 0.562295 -0.072754
C7    C     C_R   0.499829 0.500010 0.326549 0.892392
C8    C     C_R   0.500171 0.499990 0.673450 0.892391
C9    C     C_R   0.500764 0.623821 0.815084 -0.277018
C10   C     C_R   0.499236 0.376180 0.184916 -0.277017
C11   C     C_R   0.500200 0.499983 0.769331 -0.063849
C12   C     C_R   0.739462 0.500049 0.500243 0.923452
C13   C     C_R   0.499800 0.500017 0.230669 -0.063849
C14   C     C_R   0.499687 0.376148 0.815137 -0.277398
C15   C     C_R   0.500313 0.623853 0.184863 -0.277398
C16   C     C_R   0.499752 0.375207 0.907310 0.119134
C17   C     C_R   0.500248 0.624794 0.092690 0.119134
C18   C     C_R   0.500068 0.499996 0.953638 0.061133
C19   C     C_R   0.499932 0.500005 0.046362 0.061133
C20   C     C_R   0.500520 0.624776 0.907254 0.119315
C21   C     C_R   0.499481 0.375224 0.092746 0.119316
C22   C     C_R   0.499450 0.251748 0.953752 -0.221256
C23   C     C_R   0.499304 0.251757 0.046363 -0.222613
C24   C     C_R   0.500550 0.748252 0.046248 -0.221256
C25   C     C_3   0.139577 0.485235 0.329755 -0.404017
C26   C     C_3   0.172424 0.626505 0.294426 -0.874516
C27   C     C_3   0.860423 0.514763 0.670245 -0.404017
C28   C     C_3   0.827578 0.373492 0.705574 -0.874516
C29   C     C_3   0.858767 0.493753 0.329774 -0.400873
C30   C     C_3   0.826979 0.348913 0.300516 -0.857135
C31   C     C_3   0.141233 0.506246 0.670226 -0.400876
C32   C     C_3   0.173020 0.651086 0.699483 -0.857121
C33   C     C_R   0.500697 0.748243 0.953637 -0.222613
C34   C     C_R   0.065306 0.493469 0.416984 0.103202
C35   C     C_R   0.934694 0.506530 0.583016 0.103202
C36   C     C_R   0.933853 0.495296 0.417053 0.103509
C37   C     C_R   0.066147 0.504704 0.582947 0.103508
C38   C     C_R   0.871997 0.500613 0.500103 -0.147297
H1    H     H_    0.501115 0.719540 0.779174 0.160375
H2    H     H_    0.379164 0.873604 0.387849 0.119400
H3    H     H_    0.378991 0.126512 0.387935 0.122508
H4    H     H_    0.621009 0.873487 0.612065 0.122508
H5    H     H_    0.086316 0.688601 0.284919 0.252578
H6    H     H_    0.235951 0.680142 0.341362 0.272189
H7    H     H_    0.221003 0.616875 0.229289 0.254832
H8    H     H_    0.227446 0.425880 0.338414 0.200413
H9    H     H_    0.087943 0.428109 0.277682 0.215685
H10   H     H_    0.913686 0.311398 0.715081 0.252578
H11   H     H_    0.764052 0.319855 0.658637 0.272189
H12   H     H_    0.498885 0.280461 0.220826 0.160375
H13   H     H_    0.778998 0.383121 0.770711 0.254831
H14   H     H_    0.912057 0.571889 0.722318 0.215684
H15   H     H_    0.772554 0.574117 0.661587 0.200412
H16   H     H_    0.913506 0.286771 0.293772 0.248445
H17   H     H_    0.763931 0.299132 0.349421 0.283706
H18   H     H_    0.778146 0.351726 0.235036 0.251804
H19   H     H_    0.770364 0.552792 0.335964 0.201097
H20   H     H_    0.909476 0.546438 0.275388 0.215352
H21   H     H_    0.086491 0.713228 0.706229 0.248441
H22   H     H_    0.236066 0.700868 0.650577 0.283705
H23   H     H_    0.499495 0.280429 0.779265 0.161562
H24   H     H_    0.221856 0.648272 0.764964 0.251803
H25   H     H_    0.090524 0.453561 0.724612 0.215353
H26   H     H_    0.229636 0.447207 0.664036 0.201097
H27   H     H_    0.500505 0.719571 0.220735 0.161562
H28   H     H_    0.499277 0.155565 0.918515 0.140007
H29   H     H_    0.500722 0.844436 0.081485 0.140007
H30   H     H_    0.499030 0.155581 0.081646 0.139898
H31   H     H_    0.500971 0.844420 0.918354 0.139898
H32   H     H_    0.620836 0.126396 0.612151 0.119400
N1    N     N_R   0.500000 0.857200 0.500000 -0.081250
N2    N     N_R   0.500000 0.142800 0.500000 -0.081250
O1    O     O_R   0.316770 0.614620 0.499990 -0.617756
O2    O     O_R   0.683230 0.385380 0.500010 -0.617754
O3    O     O_R   0.683230 0.614620 0.500010 -0.632076
O4    O     O_R   0.316770 0.385380 0.499990 -0.632076
O5    O     O_R   0.499980 0.614680 0.367850 -0.633655
O6    O     O_R   0.500020 0.385320 0.632150 -0.633655
O7    O     O_R   0.500020 0.614680 0.632150 -0.634960
O8    O     O_R   0.499980 0.385320 0.367850 -0.634961
Zn1   Zn    Zn3+2 0.500000 0.653120 0.500000 0.929342
Zn2   Zn    Zn3+2 0.500000 0.346880 0.500000 0.929342

loop_
_geom_bond_atom_site_label_1
_geom_bond_atom_site_label_2
_ccdc_geom_bond_type
C12   O2    A    
C3    C6    A    
C26   H6    S    
C30   H16   S    
C29   C36   S    
C35   C37   A    
C18   C19   A    
C5    N2    A    
C28   H13   S    
C15   H27   S    
C9    H1    S    
C1    C2    S    
C22   H28   S    
C26   H7    S    
C4    H2    S    
C8    O7    A    
C25   H9    S    
C18   C20   A    
C24   H29   S    
C33   H31   S    
C25   C34   S    
C7    O5    A    
C2    C34   A    
C8    O6    A    
O2    Zn2   S    
O1    Zn1   S    
C26   H5    S    
C10   C21   A    
C6    N1    A    
C17   C24   A    
C31   H25   S    
C3    H32   S    
O8    Zn2   S    
O4    Zn2   S    
C11   C14   A    
O7    Zn1   S    
O3    Zn1   S    
C27   C35   S    
C25   C26   S    
C14   H23   S    
C30   H18   S    
C31   C37   S    
C23   H30   S    
C29   C30   S    
C28   H11   S    
O6    Zn2   S    
C9    C20   A    
C31   C32   S    
O5    Zn1   S    
C35   C38   A    
C9    C11   A    
C20   C33   A    
C29   H19   S    
C21   C23   A    
C14   C16   A    
C32   H22   S    
C10   H12   S    
C27   H14   S    
C15   C17   A    
C5    H3    S    
C28   H10   S    
C16   C22   A    
C19   C21   A    
C1    O4    A    
C31   H26   S    
C4    C5    A    
C10   C13   A    
C27   H15   S    
C30   H17   S    
C24   C33   A    
C1    O1    A    
C13   C15   A    
C3    N2    A    
C32   H24   S    
C2    C37   A    
C8    C11   S    
C36   C38   A    
C17   C19   A    
C34   C36   A    
C12   C38   S    
C7    C13   S    
C29   H20   S    
C16   C18   A    
C6    H4    S    
C12   O3    A    
C27   C28   S    
C22   C23   A    
C32   H21   S    
C25   H8    S    
C4    N1    A    
N2    Zn2   S    
C7    O8    A    
N1    Zn1   S    
