data_mof_unit_66282.cif
_audit_creation_date              2012-12-11T18:25:54-0500
_audit_creation_method            fapswitch 2.2
_symmetry_space_group_name_H-M    P1
_symmetry_Int_Tables_number       1
_space_group_crystal_system       triclinic
_cell_length_a                    8.187479
_cell_length_b                    14.384372
_cell_length_c                    16.597694
_cell_angle_alpha                 106.45166
_cell_angle_beta                  82.067394
_cell_angle_gamma                 91.797839
_cell_volume                      1856.71027251

loop_
_atom_site_label
_atom_site_type_symbol
_atom_type_description
_atom_site_fract_x
_atom_site_fract_y
_atom_site_fract_z
_atom_type_partial_charge
Ba1   Ba    Ba6+2 0.356390 0.534880 0.456030 1.722603
Ba2   Ba    Ba6+2 0.833430 0.465200 0.543970 1.685515
C1    C     C_3   0.200761 0.827832 0.224357 -0.359537
C2    C     C_3   0.179705 0.738689 0.256648 0.343979
C3    C     C_3   0.065847 0.271151 0.288936 0.307199
C4    C     C_3   0.075448 0.223685 0.194063 -0.406085
C5    C     C_3   0.522051 0.316661 0.786475 0.350697
C6    C     C_3   0.513498 0.307101 0.875910 -0.359974
C7    C     C_3   0.011554 0.257897 0.742071 0.353941
C8    C     C_3   0.984672 0.168130 0.773274 -0.371313
C9    C     C_2   0.286726 0.525467 0.752258 -0.382797
C10   C     C_R   0.900482 0.470871 0.250041 0.309121
C11   C     C_2   0.456421 0.615437 0.858558 0.524130
C12   C     C_3   0.673074 0.680496 0.214125 0.325178
C13   C     C_2   0.435585 0.581108 0.776111 -0.013329
C14   C     C_2   0.176206 0.500348 0.809970 0.010942
C15   C     C_3   0.224326 0.508651 0.896795 -0.128144
C16   C     C_3   0.327891 0.599347 0.927816 -0.012834
C17   C     C_2   0.086761 0.498209 0.964111 -0.050723
C18   C     C_2   0.122526 0.482178 0.035743 -0.059593
C19   C     C_R   0.849442 0.416446 0.080438 0.004222
C20   C     C_R   0.994937 0.465382 0.102833 -0.111992
C21   C     C_R   0.733124 0.393134 0.141660 -0.215259
C22   C     C_R   0.759597 0.419741 0.226730 0.015401
C23   C     C_3   0.686555 0.688483 0.124035 -0.315909
C24   C     C_R   0.020875 0.491640 0.188831 -0.044055
C25   C     C_R   0.171497 0.953277 0.552024 0.579243
C26   C     C_R   0.012899 0.800883 0.497988 0.062191
C27   C     C_R   0.885918 0.757522 0.451687 -0.286029
C28   C     C_R   0.793759 0.810913 0.415114 0.020056
C29   C     C_R   0.841420 0.903801 0.413409 -0.128384
C30   C     C_R   0.973258 0.948026 0.454790 -0.075810
C31   C     C_R   0.054946 0.899667 0.502018 -0.082004
C32   C     C_R   0.139832 0.092804 0.498320 -0.081499
C33   C     C_R   0.216964 0.047380 0.548398 -0.044718
C34   C     C_3   0.541567 0.804850 0.689073 0.324990
C35   C     C_R   0.186664 0.188316 0.497423 0.033762
C36   C     C_R   0.313720 0.233976 0.541669 -0.266539
C37   C     C_R   0.397842 0.185924 0.585179 0.001574
C38   C     C_R   0.342201 0.096343 0.593336 -0.133623
C39   C     C_R   0.017159 0.042364 0.452500 -0.060268
C40   C     C_3   0.424954 0.871181 0.761186 -0.315327
C41   C     C_3   0.554644 0.230281 0.362709 0.298049
C42   C     C_3   0.548696 0.120457 0.344465 -0.384555
C43   C     C_3   0.101085 0.707491 0.709602 0.333799
C44   C     C_3   0.025642 0.745399 0.802137 -0.335493
H1    H     H_    0.238488 0.753056 0.315369 0.085537
H2    H     H_    0.495612 0.924103 0.805880 0.103695
H3    H     H_    0.340129 0.911286 0.736322 0.169467
H4    H     H_    0.351735 0.827464 0.798103 0.089451
H5    H     H_    0.429711 0.260822 0.386911 -0.008012
H6    H     H_    0.637725 0.258689 0.411295 0.069274
H7    H     H_    0.458407 0.090147 0.299818 0.131098
H8    H     H_    0.511479 0.100089 0.403980 0.064413
H9    H     H_    0.672513 0.088655 0.316072 0.117184
H10   H     H_    0.233783 0.692611 0.705880 -0.094335
H11   H     H_    0.038582 0.638519 0.682816 0.075045
H12   H     H_    0.143180 0.891841 0.273586 0.073557
H13   H     H_    0.073457 0.818347 0.831517 0.098434
H14   H     H_    0.054738 0.695224 0.838197 0.064547
H15   H     H_    0.889713 0.751196 0.806539 0.194458
H16   H     H_    0.045778 0.726746 0.271594 -0.047647
H17   H     H_    0.140528 0.816200 0.166323 0.116266
H18   H     H_    0.937328 0.296322 0.314121 0.047589
H19   H     H_    0.150401 0.334097 0.299128 0.090195
H20   H     H_    0.988622 0.161939 0.181750 0.130972
H21   H     H_    0.042213 0.276930 0.161924 0.048403
H22   H     H_    0.202832 0.196825 0.167424 0.130300
H23   H     H_    0.333856 0.842330 0.209332 0.150502
H24   H     H_    0.748201 0.622682 0.079124 0.077798
H25   H     H_    0.591977 0.383235 0.783301 0.084728
H26   H     H_    0.394284 0.323788 0.773571 -0.056557
H27   H     H_    0.455413 0.372953 0.922344 0.071951
H28   H     H_    0.438906 0.242942 0.881800 0.107263
H29   H     H_    0.639377 0.298624 0.890749 0.152460
H30   H     H_    0.146265 0.270274 0.731301 -0.059477
H31   H     H_    0.960475 0.244021 0.681157 0.092173
H32   H     H_    0.037101 0.179384 0.833542 0.114774
H33   H     H_    0.046425 0.104528 0.725343 0.091041
H34   H     H_    0.601134 0.614634 0.217331 0.086361
H35   H     H_    0.850853 0.152999 0.784062 0.148489
H36   H     H_    0.624407 0.352959 0.122373 0.116461
H37   H     H_    0.262154 0.511563 0.687362 0.090064
H38   H     H_    0.959113 0.504551 0.955296 0.110103
H39   H     H_    0.251129 0.480966 0.044867 0.103585
H40   H     H_    0.849115 0.684323 0.450593 0.121324
H41   H     H_    0.771786 0.942761 0.382105 0.074743
H42   H     H_    0.396893 0.065492 0.634685 0.121491
H43   H     H_    0.799491 0.672639 0.228522 -0.065273
H44   H     H_    0.352632 0.305754 0.538933 0.054641
H45   H     H_    0.953635 0.075857 0.414807 0.105326
H46   H     H_    0.561854 0.695234 0.106990 0.162283
H47   H     H_    0.760333 0.753028 0.118462 0.116838
H48   H     H_    0.474599 0.765181 0.636278 0.077702
O1    O     O_2   0.449810 0.404330 0.292300 -0.468696
O2    O     O_3   0.082016 0.778353 0.668122 -0.589425
O3    O     O_3   0.593011 0.763543 0.270417 -0.603888
O4    O     O_2   0.739870 0.595710 0.707750 -0.412523
O5    O     O_3   0.524260 0.572010 0.600550 -0.516600
O6    O     O_3   0.006540 0.415640 0.663000 -0.493485
O7    O     O_3   0.618225 0.743520 0.723705 -0.599527
O8    O     O_3   0.149240 0.378950 0.461440 -0.462490
O9    O     O_3   0.608760 0.358670 0.621950 -0.489124
O10   O     O_2   0.739963 0.181856 0.571218 -0.489754
O11   O     O_3   0.602032 0.234586 0.728814 -0.603984
O12   O     O_3   0.665430 0.428070 0.399450 -0.432175
O13   O     O_3   0.040450 0.621130 0.538560 -0.484728
O14   O     O_2   0.903680 0.264350 0.468980 -0.464282
O15   O     O_3   0.112301 0.203004 0.327668 -0.655154
O16   O     O_2   0.835889 0.512083 0.809255 -0.450880
O17   O     O_3   0.930658 0.337392 0.802941 -0.602170
O18   O     O_3   0.183150 0.584440 0.337010 -0.417570
O19   O     O_2   0.361223 0.488002 0.192125 -0.504670
O20   O     O_3   0.612158 0.253522 0.287511 -0.643431
O21   O     O_3   0.255271 0.658572 0.194280 -0.608647
O22   O     O_2   0.286000 0.735700 0.531070 -0.425965
O23   O     O_3   0.580930 0.641410 0.378050 -0.475126
O24   O     O_2   0.450556 0.818008 0.427837 -0.486306
P1    P     P_3+3 0.619500 0.379780 0.307000 1.031196
P2    P     P_3+3 0.105540 0.727570 0.557610 1.068084
P3    P     P_3+3 0.603769 0.760372 0.374212 0.955291
P4    P     P_3+3 0.570190 0.620290 0.693000 1.029964
P5    P     P_3+3 0.587218 0.239043 0.625817 0.937119
P6    P     P_3+3 0.207143 0.554016 0.226569 0.998300
P7    P     P_3+3 0.093137 0.256505 0.437257 0.941794
P8    P     P_3+3 0.985579 0.442717 0.773117 0.957884
F1    F     F_    0.585107 0.674379 0.881671 -0.691340
F2    F     F_    0.923157 0.496135 0.332707 -0.712607
F3    F     F_    0.239573 0.916997 0.606402 -0.743960
C45   C     C_3   0.684491 0.862412 0.657468 -0.176005
C46   C     C_3   0.635402 0.947079 0.628704 -0.461323
H49   H     H_    0.551145 0.922740 0.580113 0.194849
H50   H     H_    0.579318 0.004027 0.685024 0.142767
H51   H     H_    0.746691 0.978826 0.601060 0.139449
H52   H     H_    0.765591 0.890231 0.707607 0.141745
H53   H     H_    0.757553 0.810510 0.604746 0.045908

loop_
_geom_bond_atom_site_label_1
_geom_bond_atom_site_label_2
_ccdc_geom_bond_type
C7    O17   S    
C23   H47   S    
C21   H36   S    
C44   H13   S    
C32   C35   A    
C2    O21   S    
C34   C40   S    
C45   H52   S    
C46   H51   S    
O9    P5    S    
Ba1   O5    S    
C8    H32   S    
C5    C6    S    
O10   P5    D    
C43   C44   S    
C25   C31   A    
C43   H11   S    
C35   C36   A    
C11   C16   S    
O6    P8    S    
C26   C27   A    
C13   P4    S    
O18   P6    S    
Ba1   O18   S    
C5    H25   S    
C28   C29   A    
O12   P1    S    
C41   H6    S    
Ba2   O8    S    
C2    H16   S    
Ba2   O13   S    
C37   P5    S    
O11   P5    S    
C32   C33   A    
Ba1   P1    S    
O23   P3    S    
O3    P3    S    
C9    C13   S    
C42   H7    S    
C17   C18   D    
C43   H10   S    
C14   C15   S    
C22   P1    S    
C21   C22   A    
C5    O11   S    
Ba1   O22   S    
C12   H34   S    
O14   P7    D    
C7    C8    S    
O20   P1    S    
Ba1   O12   S    
C44   H14   S    
O8    P7    S    
C4    H22   S    
Ba2   O6    S    
C19   C20   A    
C32   C39   A    
C24   P6    S    
C35   P7    S    
Ba2   P4    S    
C36   C37   A    
C29   H41   S    
C44   H15   S    
C3    H19   S    
C26   P2    S    
C5    H26   S    
C34   H48   S    
C40   H2    S    
C9    H37   S    
Ba2   O12   S    
C6    H29   S    
C1    C2    S    
O22   P2    D    
C3    H18   S    
C10   C24   A    
C34   O7    S    
O24   P3    D    
C41   C42   S    
C12   H43   S    
C27   C28   A    
C34   C45   S    
C9    C14   D    
C29   C30   A    
C28   P3    S    
Ba1   O1    S    
C18   H39   S    
O17   P8    S    
C6    H28   S    
C15   C16   S    
Ba1   O23   S    
C27   H40   S    
O16   P8    D    
O5    P4    S    
O15   P7    S    
C4    H21   S    
C39   H45   S    
C40   H4    S    
C26   C31   A    
C11   C13   D    
Ba1   O13   S    
C25   F3    S    
C30   C39   A    
C17   H38   S    
O13   P2    S    
C37   C38   A    
C12   O3    S    
O4    P4    D    
C10   C22   A    
C23   H46   S    
O21   P6    S    
C1    H23   S    
O2    P2    S    
C45   H53   S    
C18   C20   S    
C46   H50   S    
Ba2   O5    S    
C8    H33   S    
C7    H30   S    
C10   F2    S    
C1    H17   S    
C36   H44   S    
C8    H35   S    
O7    P4    S    
C25   C33   A    
C30   C31   A    
C38   H42   S    
C19   C21   A    
C45   C46   S    
C7    H31   S    
C41   O20   S    
C42   H9    S    
C41   H5    S    
C3    C4    S    
O19   P6    D    
C3    O15   S    
Ba2   O9    S    
Ba1   Ba2   S    
Ba2   O14   S    
C6    H27   S    
C15   C17   S    
C33   C38   A    
C12   C23   S    
O1    P1    D    
C40   H3    S    
C11   F1    S    
C1    H12   S    
C42   H8    S    
C4    H20   S    
Ba2   O4    S    
C20   C24   A    
C23   H24   S    
C43   O2    S    
C14   P8    S    
Ba1   O8    S    
Ba1   P2    S    
C46   H49   S    
C2    H1    S    
