data_mof_unit_33469.cif
_audit_creation_date              2013-03-05T15:52:13-0500
_audit_creation_method            fapswitch 2.2
_symmetry_space_group_name_H-M    P1
_symmetry_Int_Tables_number       1
_space_group_crystal_system       triclinic
_cell_length_a                    23.416849
_cell_length_b                    10.856986
_cell_length_c                    9.598764
_cell_angle_alpha                 89.856547
_cell_angle_beta                  89.70906
_cell_angle_gamma                 93.220661
_cell_volume                      2436.45993168

loop_
_atom_site_label
_atom_site_type_symbol
_atom_site_description
_atom_site_fract_x
_atom_site_fract_y
_atom_site_fract_z
_atom_type_partial_charge
O1    O     O_R   0.500000 0.319640 0.618810 -0.567862
O2    O     O_R   0.500000 0.319660 0.381240 -0.567907
C1    C     C_R   0.503996 0.262946 0.500908 0.844835
O3    O     O_R   0.417880 0.499950 0.618810 -0.542465
O4    O     O_R   0.417880 0.499980 0.381240 -0.552479
C2    C     C_R   0.391232 0.497324 0.500366 0.893738
Cu1   Cu    Cu3+1 0.500000 0.499990 0.640660 0.992001
Cu2   Cu    Cu3+1 0.500000 0.500010 0.359340 0.993374
O5    O     O_R   0.500000 0.680340 0.618760 -0.616721
O6    O     O_R   0.500000 0.680360 0.381190 -0.601724
O7    O     O_R   0.582120 0.500020 0.618760 -0.593752
O8    O     O_R   0.582120 0.500050 0.381190 -0.583141
C3    C     C_R   0.496151 0.737147 0.500985 0.803442
C4    C     C_R   0.608697 0.499240 0.499721 0.835679
C5    C     C_R   0.878226 0.475745 0.630021 0.595807
N1    N     N_R   0.850443 0.470601 0.504844 -0.459154
C6    C     C_R   0.879618 0.464158 0.381376 0.597918
C7    C     C_R   0.939521 0.463285 0.380473 -0.022854
C8    C     C_R   0.968888 0.469321 0.508295 -0.009522
C9    C     C_R   0.938106 0.475127 0.634423 -0.022202
C10   C     C_R   0.970638 0.457618 0.255321 -0.132246
C11   C     C_R   0.030243 0.458546 0.256953 -0.131195
C12   C     C_R   0.059972 0.465130 0.383771 -0.020007
C13   C     C_R   0.029194 0.470317 0.509933 -0.008018
C14   C     C_R   0.058591 0.477148 0.637671 -0.022307
C15   C     C_R   0.027448 0.482220 0.762869 -0.134970
C16   C     C_R   0.967828 0.481194 0.761263 -0.129698
C17   C     C_R   0.119900 0.467077 0.387927 0.605218
N2    N     N_R   0.147809 0.473251 0.513020 -0.449893
C18   C     C_R   0.118573 0.478721 0.636592 0.610321
O9    O     O_2   0.847959 0.482014 0.749551 -0.479207
O10   O     O_2   0.850706 0.459259 0.260083 -0.478863
H1    H     H_    0.949085 0.452876 0.155731 0.188701
H2    H     H_    0.052906 0.454369 0.158566 0.190993
O11   O     O_2   0.150129 0.463291 0.268090 -0.486991
O12   O     O_2   0.147491 0.484854 0.757839 -0.486263
H3    H     H_    0.049009 0.487273 0.862438 0.187092
H4    H     H_    0.945164 0.485607 0.859626 0.190615
C19   C     C_R   0.240110 0.587148 0.536985 -0.108724
H5    H     H_    0.217838 0.669968 0.557732 0.185572
C20   C     C_R   0.299526 0.593574 0.530743 -0.243687
H6    H     H_    0.322800 0.681199 0.548496 0.171703
C21   C     C_R   0.328825 0.487997 0.501401 -0.172304
C22   C     C_R   0.298472 0.373431 0.480681 0.232833
C23   C     C_R   0.238068 0.366964 0.486619 0.299871
C24   C     C_R   0.209150 0.475063 0.514356 0.190254
C25   C     C_R   0.753544 0.368846 0.506929 0.348348
C26   C     C_R   0.694271 0.377486 0.505347 -0.261689
H7    H     H_    0.666553 0.294145 0.509018 0.182821
C27   C     C_R   0.670705 0.493145 0.499436 -0.147910
C28   C     C_R   0.706652 0.601022 0.495345 0.238825
C29   C     C_R   0.765854 0.592338 0.496872 -0.129830
H8    H     H_    0.793711 0.675387 0.493931 0.195946
C30   C     C_R   0.789495 0.476834 0.502720 0.210210
H9    H     H_    0.500844 0.111488 0.280005 0.165111
C31   C     C_R   0.529041 0.117876 0.759694 -0.056371
H10   H     H_    0.553037 0.205691 0.763038 0.155980
C32   C     C_R   0.518850 0.057552 0.886462 -0.063175
H11   H     H_    0.532121 0.101579 0.983004 0.143953
C33   C     C_R   0.489936 0.942425 0.888839 -0.119802
H12   H     H_    0.479168 0.898017 0.987383 0.135780
C34   C     C_R   0.476587 0.882432 0.764013 -0.127431
H13   H     H_    0.452391 0.795085 0.771795 0.165183
C35   C     C_R   0.492584 0.937014 0.633990 0.129039
C36   C     C_R   0.510245 0.063104 0.632667 0.121077
C37   C     C_R   0.507913 0.128790 0.504649 -0.121871
C38   C     C_R   0.501508 0.063900 0.379281 -0.102625
H14   H     H_    0.495102 0.889094 0.280363 0.163730
C39   C     C_R   0.496385 0.936523 0.379578 -0.123241
C40   C     C_R   0.492412 0.871391 0.505559 -0.102962
H15   H     H_    0.435936 0.358712 0.132493 0.198908
C41   C     C_R   0.575111 0.667487 0.142366 -0.259584
H16   H     H_    0.579008 0.672297 0.252260 0.244719
C42   C     C_R   0.611007 0.752587 0.070281 0.217097
C43   C     C_R   0.610819 0.753479 0.925230 0.220145
C44   C     C_R   0.574993 0.667958 0.854708 -0.245092
H17   H     H_    0.578899 0.672686 0.744796 0.249522
C45   C     C_R   0.537037 0.582298 0.924557 0.097149
C46   C     C_R   0.537015 0.582234 0.073884 0.145573
N3    N     N_R   0.500540 0.501210 0.147910 -0.206958
C47   C     C_R   0.464762 0.422165 0.075632 -0.065906
C48   C     C_R   0.464385 0.421992 0.928273 0.324446
N4    N     N_R   0.500560 0.501290 0.852040 -0.215493
Br1   Br    Br    0.676603 0.761159 0.489305 -0.318500
N5    N     N_R   0.645427 0.841920 0.146491 0.172033
O13   O     O_R   0.621019 0.920357 0.226253 -0.333272
O14   O     O_R   0.700410 0.831968 0.154358 -0.228079
N6    N     N_R   0.644561 0.844704 0.847578 0.159452
O15   O     O_R   0.698387 0.867518 0.875542 -0.226030
O16   O     O_R   0.622257 0.900460 0.742669 -0.327297
Br2   Br    Br    0.410344 0.307586 0.842275 -0.404989
N7    N     N_R   0.328750 0.263081 0.462121 0.148951
O17   O     O_R   0.366899 0.256457 0.363869 -0.351909
O18   O     O_R   0.317490 0.167839 0.542207 -0.269496
N8    N     N_R   0.206183 0.252182 0.461226 0.163659
O19   O     O_R   0.161931 0.219123 0.537866 -0.310117
O20   O     O_R   0.220300 0.181657 0.358684 -0.249739
Br3   Br    Br    0.784244 0.209177 0.515456 -0.314100

loop_
_geom_bond_atom_site_label_1
_geom_bond_atom_site_label_2
_geom_bond_distance
_ccdc_geom_bond_type
Cu1   N4    2.029175 S    
C7    C10   1.405135 A    
C20   H6    1.083795 S    
N8    O19   1.301138 A    
C21   C22   1.412523 A    
C47   C48   1.414536 A    
Cu1   Cu2   2.700323 S    
C19   C20   1.390138 A    
N5    O13   1.300590 A    
C29   H8    1.082999 S    
Cu1   O7    1.933368 S    
C15   C16   1.395688 A    
C34   H13   1.079241 S    
C25   Br3   1.915346 S    
C17   N2    1.369977 A    
C44   C45   1.415047 A    
C41   C46   1.414511 A    
O4    C2    1.299353 A    
O7    C4    1.298610 A    
C10   H1    1.083253 S    
C3    C40   1.465762 S    
C16   H4    1.083235 S    
C32   C33   1.387761 A    
C31   C36   1.419053 A    
C31   H10   1.079778 S    
C33   C34   1.393709 A    
C7    C8    1.409424 A    
O5    C3    1.292407 A    
C34   C35   1.419765 A    
C45   N4    1.382881 A    
C8    C9    1.409230 A    
C17   O11   1.349509 S    
H14   C39   1.083529 S    
C12   C13   1.408962 A    
C35   C40   1.425307 A    
C22   N7    1.437036 S    
C26   C27   1.400859 A    
C37   C38   1.400403 A    
C10   C11   1.395393 A    
C20   C21   1.397120 A    
O3    Cu1   1.935429 S    
C29   C30   1.400050 A    
C27   C28   1.403754 A    
N5    O14   1.300658 A    
C5    C9    1.403438 A    
C11   H2    1.083234 S    
C42   C43   1.392354 A    
C28   C29   1.394964 A    
C13   C14   1.409279 A    
C41   C42   1.393768 A    
C19   H5    1.082934 S    
C45   C46   1.433353 A    
N3    C47   1.359352 A    
C14   C15   1.405363 A    
C23   C24   1.412765 A    
C48   Br2   1.914362 S    
C33   H12   1.082776 S    
O1    C1    1.295107 A    
C43   C44   1.394820 A    
N2    C18   1.369613 A    
C25   C26   1.396544 A    
Cu2   O8    1.935429 S    
N7    O18   1.301161 A    
C6    C7    1.403278 A    
C12   C17   1.403051 A    
C44   H17   1.059381 S    
C19   C24   1.399083 A    
O3    C2    1.299291 A    
C26   H7    1.083924 S    
O8    C4    1.299855 A    
C36   C37   1.422045 A    
C2    C21   1.459167 S    
C25   C30   1.404807 A    
C1    C37   1.464905 S    
C23   N8    1.438289 S    
C22   C23   1.413106 A    
C14   C18   1.403705 A    
Cu1   O5    1.968787 S    
O1    Cu1   1.969779 S    
O2    Cu2   1.968785 S    
N6    O16   1.300429 A    
C41   H16   1.060415 S    
O6    C3    1.311190 A    
O4    Cu2   1.933370 S    
H9    C38   1.083444 S    
N8    O20   1.301256 A    
C15   H3    1.083243 S    
C5    O9    1.349421 S    
C9    C16   1.405323 A    
C18   O12   1.349371 S    
N2    C24   1.435558 S    
C35   C36   1.407657 A    
O2    C1    1.308188 A    
C32   H11   1.082714 S    
C4    C27   1.457237 S    
N7    O17   1.300629 A    
C31   C32   1.393565 A    
C8    C13   1.411769 A    
C42   N5    1.430788 S    
C39   C40   1.399356 A    
N1    C30   1.432840 S    
C46   N3    1.383675 A    
C43   N6    1.436397 S    
N6    O15   1.300296 A    
Cu2   O6    1.969780 S    
C48   N4    1.379437 A    
Cu2   N3    2.029447 S    
C6    O10   1.349438 S    
C11   C12   1.405355 A    
C38   C39   1.381391 A    
C28   Br1   1.912752 S    
C5    N1    1.369053 A    
N1    C6    1.368866 A    
H15   C47   1.081783 S    
