data_mof_unit_48743.cif
_audit_creation_date              2012-12-11T16:22:52-0500
_audit_creation_method            fapswitch 2.2
_symmetry_space_group_name_H-M    P1
_symmetry_Int_Tables_number       1
_space_group_crystal_system       triclinic
_cell_length_a                    16.929865
_cell_length_b                    16.898478
_cell_length_c                    19.359063
_cell_angle_alpha                 117.75246
_cell_angle_beta                  62.498752
_cell_angle_gamma                 100.392631
_cell_volume                      4343.23926354

loop_
_atom_site_label
_atom_site_type_symbol
_atom_type_description
_atom_site_fract_x
_atom_site_fract_y
_atom_site_fract_z
_atom_type_partial_charge
C1    C     C_R   0.042602 0.756510 0.007008 0.444155
C2    C     C_R   0.250604 0.522118 0.827015 -0.154921
C3    C     C_R   0.183087 0.490566 0.088334 -0.138100
C4    C     C_R   0.760849 0.427173 0.167364 -0.264719
C5    C     C_R   0.990917 0.341089 0.758750 -0.148141
C6    C     C_R   0.256007 0.542141 0.067948 0.118004
C7    C     C_R   0.944311 0.265056 0.756773 0.090712
C8    C     C_R   0.256630 0.463896 0.744668 0.102244
C9    C     C_R   0.037537 0.224611 0.995821 0.065871
C10   C     C_R   0.893312 0.924248 0.491441 -0.374001
C11   C     C_R   0.925536 0.843777 0.416800 0.630041
C12   C     C_R   0.759601 0.454292 0.247130 -0.088212
C13   C     C_R   0.936812 0.838820 0.338054 -0.032530
C14   C     C_R   0.908088 0.910729 0.336654 -0.281573
C15   C     C_R   0.873799 0.989806 0.412129 -0.083910
C16   C     C_R   0.805049 0.560745 0.961934 -0.164032
C17   C     C_R   0.869799 0.997915 0.488988 0.074650
C18   C     C_R   0.932387 0.145223 0.543194 0.572759
C19   C     C_R   0.953109 0.208406 0.610291 -0.343062
C20   C     C_R   0.909863 0.210014 0.692592 0.090551
C21   C     C_R   0.836456 0.157017 0.711150 -0.165643
C22   C     C_R   0.813122 0.096036 0.645444 -0.246155
C23   C     C_R   0.723785 0.548660 0.021362 0.046656
C24   C     C_R   0.864522 0.085717 0.560225 0.002736
C25   C     C_R   0.605729 0.315435 0.357789 -0.098040
C26   C     C_R   0.664574 0.340236 0.292521 -0.216975
C27   C     C_R   0.699868 0.425526 0.314052 0.177307
C28   C     C_R   0.961903 0.671970 0.249631 -0.081214
C29   C     C_R   0.679100 0.484081 0.400789 -0.105478
C30   C     C_R   0.619742 0.459986 0.465708 -0.233761
C31   C     C_R   0.579988 0.376895 0.444957 0.127618
C32   C     C_R   0.497943 0.392670 0.594642 -0.236857
C33   C     C_R   0.418391 0.419825 0.669790 -0.164984
C34   C     C_R   0.976545 0.757819 0.257562 0.066004
C35   C     C_R   0.338081 0.420067 0.665354 0.088596
C36   C     C_R   0.337210 0.382689 0.584005 -0.331023
C37   C     C_R   0.416857 0.356959 0.508451 0.560452
C38   C     C_R   0.498434 0.366552 0.514243 -0.037505
C39   C     C_R   0.638123 0.592524 0.054738 0.128573
C40   C     C_R   0.738430 0.483500 0.039236 -0.112807
C41   C     C_R   0.323581 0.570755 0.102361 -0.042915
C42   C     C_R   0.403135 0.553505 0.172179 -0.397744
C43   C     C_R   0.326214 0.541209 0.158971 0.656485
C44   C     C_R   0.393356 0.621241 0.069519 -0.351235
C45   C     C_R   0.248451 0.570029 0.014076 -0.135736
C46   C     C_R   0.471622 0.626767 0.077349 0.201652
C47   C     C_R   0.478183 0.587892 0.124953 0.121153
C48   C     C_R   0.561510 0.574472 0.116319 -0.234316
C49   C     C_R   0.630091 0.642862 0.017240 -0.189249
C50   C     C_R   0.546647 0.661076 0.029611 -0.205778
C51   C     C_R   0.844307 0.187643 0.158396 -0.040513
C52   C     C_R   0.030278 0.751566 0.175072 -0.132132
C53   C     C_R   0.953549 0.861534 0.000085 0.118577
C54   C     C_R   0.839971 0.945611 0.012045 0.590816
C55   C     C_R   0.886308 0.865131 0.977984 -0.327553
C56   C     C_R   0.923021 0.262931 0.834226 -0.135746
C57   C     C_R   0.976018 0.942274 0.055306 -0.267019
C58   C     C_R   0.933353 0.024115 0.087138 0.060916
C59   C     C_R   0.863723 0.026636 0.066629 -0.174549
C60   C     C_R   0.819192 0.109931 0.102837 0.570377
C61   C     C_R   0.913659 0.184607 0.176887 -0.225256
C62   C     C_R   0.957933 0.103370 0.141741 -0.174919
C63   C     C_R   0.838232 0.496290 0.243721 0.556963
C64   C     C_R   0.964651 0.688523 0.931474 0.412044
C65   C     C_R   0.990018 0.773052 0.976029 -0.176228
C66   C     C_3   0.172677 0.826197 0.955736 0.161336
C67   C     C_R   0.170604 0.454363 0.751267 -0.170117
C68   C     C_3   0.235114 0.744021 0.884360 -0.293970
C69   C     C_3   0.312795 0.766279 0.815261 -1.017235
C70   C     C_3   0.892124 0.744897 0.476006 -0.243035
C71   C     C_3   0.070606 0.109197 0.425096 0.189206
C72   C     C_3   0.133371 0.178619 0.400165 -0.301938
C73   C     C_3   0.230798 0.150661 0.362872 -0.970410
C74   C     C_3   0.407197 0.398633 0.415989 0.170936
C75   C     C_3   0.430316 0.365088 0.320331 -0.219113
C76   C     C_3   0.437280 0.442197 0.297958 -1.080189
C77   C     C_3   0.273082 0.414842 0.177982 -0.335241
C78   C     C_R   0.057484 0.309020 0.046782 -0.152793
C79   C     C_3   0.765760 0.155157 0.038006 -0.218412
C80   C     C_3   0.697409 0.908878 0.032740 -0.139272
C81   C     C_3   0.950878 0.464226 0.262273 -0.247757
C82   C     C_3   0.998625 0.593949 0.788368 0.188403
C83   C     C_3   0.992208 0.587897 0.709912 -0.251319
C84   C     C_3   0.049883 0.509525 0.626583 -1.045182
C85   C     C_R   0.979197 0.240586 0.970758 -0.128222
H1    H     H_    0.876234 0.220036 0.860116 0.080682
H2    H     H_    0.717051 0.380225 0.142705 0.128881
H3    H     H_    0.856331 0.046501 0.409347 0.151766
H4    H     H_    0.008022 0.250953 0.595490 0.131417
H5    H     H_    0.799645 0.159435 0.775039 0.119993
H6    H     H_    0.761196 0.050120 0.659014 0.146755
H7    H     H_    0.575873 0.250945 0.340576 0.154900
H8    H     H_    0.680985 0.293650 0.225701 0.152407
H9    H     H_    0.705353 0.550366 0.418713 0.137299
H10   H     H_    0.599642 0.509302 0.532473 0.131580
H11   H     H_    0.560055 0.400047 0.600037 0.148112
H12   H     H_    0.149990 0.412861 0.700641 0.109269
H13   H     H_    0.816985 0.604307 0.932313 0.156001
H14   H     H_    0.420769 0.444860 0.731364 0.123263
H15   H     H_    0.275945 0.378995 0.578264 0.135583
H16   H     H_    0.566428 0.540585 0.149902 0.122858
H17   H     H_    0.687659 0.662143 0.972882 0.118424
H18   H     H_    0.406374 0.530326 0.214297 0.166620
H19   H     H_    0.542021 0.693689 0.994772 0.121534
H20   H     H_    0.392200 0.648324 0.029330 0.144401
H21   H     H_    0.920989 0.652707 0.300677 0.180481
H22   H     H_    0.932143 0.245228 0.219754 0.143478
H23   H     H_    0.100150 0.322383 0.078359 0.094396
H24   H     H_    0.010925 0.102348 0.157959 0.132229
H25   H     H_    0.865805 0.805240 0.936696 0.202104
H26   H     H_    0.024872 0.942328 0.076470 0.171067
H27   H     H_    0.690035 0.455455 0.081238 0.096754
H28   H     H_    0.055598 0.807155 0.159717 0.172077
H29   H     H_    0.284781 0.621239 0.994775 0.090620
H30   H     H_    0.213015 0.881797 0.980765 0.134719
H31   H     H_    0.141815 0.849593 0.928305 0.104678
H32   H     H_    0.261648 0.718397 0.913392 0.205973
H33   H     H_    0.197218 0.691069 0.852748 0.193006
H34   H     H_    0.950148 0.190293 0.930251 0.090824
H35   H     H_    0.287662 0.791501 0.785000 0.270272
H36   H     H_    0.355722 0.704960 0.764159 0.271464
H37   H     H_    0.353585 0.817717 0.844214 0.266593
H38   H     H_    0.828350 0.735607 0.469941 0.121571
H39   H     H_    0.881215 0.790860 0.543641 0.141888
H40   H     H_    0.914433 0.678639 0.461119 0.195802
H41   H     H_    0.083732 0.045167 0.365658 0.132902
H42   H     H_    0.086077 0.095282 0.468750 0.086556
H43   H     H_    0.122820 0.186773 0.351212 0.207502
H44   H     H_    0.118283 0.244305 0.458127 0.199820
H45   H     H_    0.304501 0.544177 0.845953 0.098277
H46   H     H_    0.243367 0.144471 0.411666 0.275024
H47   H     H_    0.274365 0.202090 0.344992 0.274249
H48   H     H_    0.248024 0.085638 0.303987 0.261617
H49   H     H_    0.453674 0.452042 0.432790 0.105172
H50   H     H_    0.337651 0.427659 0.456067 0.101466
H51   H     H_    0.495162 0.326350 0.279460 0.208168
H52   H     H_    0.378339 0.319892 0.304891 0.188203
H53   H     H_    0.372466 0.480631 0.335892 0.280187
H54   H     H_    0.455550 0.414842 0.227821 0.262123
H55   H     H_    0.489850 0.487588 0.311780 0.277453
H56   H     H_    0.159821 0.466117 0.136414 0.152985
H57   H     H_    0.314131 0.410558 0.207323 0.170556
H58   H     H_    0.306593 0.376547 0.106075 0.135079
H59   H     H_    0.209766 0.382191 0.201524 0.174927
H60   H     H_    0.704768 0.160650 0.032565 0.163303
H61   H     H_    0.816323 0.113289 0.971791 0.149900
H62   H     H_    0.788925 0.224067 0.064326 0.111791
H63   H     H_    0.674935 0.945701 0.104141 0.137282
H64   H     H_    0.708049 0.836308 0.010282 0.099919
H65   H     H_    0.642856 0.915952 0.019140 0.161318
H66   H     H_    0.006080 0.492945 0.222505 0.152015
H67   H     H_    0.004596 0.371660 0.716542 0.086442
H68   H     H_    0.944402 0.392190 0.223371 0.135035
H69   H     H_    0.967721 0.468790 0.312955 0.177477
H70   H     H_    0.974414 0.531310 0.795234 0.111632
H71   H     H_    0.069965 0.601805 0.776662 0.101758
H72   H     H_    0.921697 0.579397 0.719716 0.201650
H73   H     H_    0.014595 0.651097 0.703365 0.208994
H74   H     H_    0.120527 0.515618 0.616241 0.265479
H75   H     H_    0.046359 0.509263 0.570613 0.281351
H76   H     H_    0.025570 0.445133 0.629540 0.262150
H77   H     H_    0.894729 0.931936 0.549609 0.156080
H78   H     H_    0.914134 0.906386 0.276770 0.152875
N1    N     N_R   0.034930 0.670790 0.995440 -0.110684
N2    N     N_R   0.867000 0.509260 0.948460 -0.043088
N3    N     N_R   0.003780 0.616410 0.165900 -0.058928
N4    N     N_R   0.825670 0.461520 0.995440 -0.034974
N5    N     N_R   0.045120 0.664150 0.118920 -0.036313
N6    N     N_R   0.884940 0.497570 0.165910 -0.102416
N7    N     N_R   0.985840 0.628110 0.948460 -0.133490
N8    N     N_R   0.174330 0.538480 0.004560 -0.034936
N9    N     N_R   0.954880 0.335850 0.881080 -0.034047
N10   N     N_R   0.115060 0.502430 0.834090 -0.057704
N11   N     N_R   0.014160 0.371890 0.051540 -0.048822
N12   N     N_R   0.965070 0.329210 0.004560 -0.038244
N13   N     N_R   0.164150 0.545120 0.881070 -0.047186
N14   N     N_R   0.133000 0.490740 0.051540 -0.050517
N15   N     N_R   0.996220 0.383590 0.834100 -0.037952
N16   N     N_R   0.835850 0.454880 0.118930 -0.058803
Ni1   Ni    Ni4+2 0.103690 0.603690 0.000000 0.221673
Ni2   Ni    Ni4+2 0.896310 0.396310 0.000000 0.195860
Ni3   Ni    Ni4+2 0.991110 0.505800 0.892250 0.195466
Ni4   Ni    Ni4+2 0.008890 0.494200 0.107750 0.211429
O1    O     O_3   0.109020 0.809342 0.026554 -0.690814
O2    O     O_3   0.959548 0.775187 0.417118 -0.619692
O3    O     O_3   0.981059 0.138359 0.459935 -0.677300
O4    O     O_3   0.414856 0.325480 0.429308 -0.677130
O5    O     O_3   0.252768 0.504880 0.204426 -0.621816
O6    O     O_3   0.744369 0.114365 0.093153 -0.595897
O7    O     O_3   0.774600 0.944924 0.987818 -0.593294
O8    O     O_3   0.870659 0.513814 0.303145 -0.659326
O9    O     O_3   0.944914 0.667813 0.863053 -0.688573

loop_
_geom_bond_atom_site_label_1
_geom_bond_atom_site_label_2
_ccdc_geom_bond_type
C45   H29   S    
C25   C31   A    
C66   C68   S    
C73   H46   S    
C58   C62   A    
C6    C45   A    
C27   C29   A    
C54   C55   A    
N1    N7    A    
C35   C36   A    
C51   C61   A    
C3    C6    A    
C42   H18   S    
C84   H75   S    
C72   H44   S    
C79   H60   S    
C4    H2    S    
C57   H26   S    
C52   H28   S    
C80   H65   S    
C9    C78   A    
C83   H73   S    
C26   C27   A    
C30   H10   S    
C5    H67   S    
C66   H31   S    
C72   H43   S    
C18   C24   A    
N2    Ni3   S    
C69   H37   S    
C36   C37   A    
C29   H9    S    
C63   O8    S    
C63   N6    A    
C10   C17   A    
C23   C40   A    
C81   H68   S    
C78   H23   S    
C18   C19   A    
C14   H78   S    
C85   H34   S    
C77   H57   S    
C81   O8    S    
C40   N4    A    
C13   C34   S    
C70   O2    S    
C9    C85   A    
N11   N12   A    
N9    Ni2   S    
C84   H74   S    
N6    Ni4   S    
C83   C84   S    
C1    N1    A    
C28   H21   S    
C60   O6    S    
C6    C41   S    
C3    H56   S    
N4    Ni2   S    
C1    C65   A    
C22   H6    S    
C71   H41   S    
C32   C38   A    
C4    C12   A    
C29   C30   A    
C53   C65   S    
C54   C59   A    
N1    Ni1   S    
C28   N3    A    
C67   H12   S    
N12   Ni2   S    
C68   H33   S    
C26   H8    S    
C76   H55   S    
C73   H47   S    
C28   C34   A    
C59   C60   A    
C10   H77   S    
C13   C14   A    
N7    Ni3   S    
N3    N5    A    
C41   C43   A    
C71   H42   S    
C7    C56   A    
C64   N7    A    
C45   N8    A    
C2    N13   A    
C64   O9    S    
C1    O1    S    
C44   C46   A    
C79   H61   S    
C21   H5    S    
C53   C55   A    
C80   H64   S    
C17   C24   S    
C66   H30   S    
C12   C27   S    
C40   H27   S    
C74   C75   S    
C49   H17   S    
C5    C7    A    
C12   C63   A    
C53   C57   A    
C75   H51   S    
C68   C69   S    
C79   H62   S    
C56   N9    A    
C25   C26   A    
C44   H20   S    
C18   O3    S    
C81   H69   S    
C32   C33   A    
C33   H14   S    
C8    C35   S    
C80   H63   S    
C75   C76   S    
C77   H58   S    
C37   C38   A    
C19   H4    S    
N5    Ni1   S    
C68   H32   S    
C50   H19   S    
C56   H1    S    
C47   C48   A    
C83   H72   S    
C69   H36   S    
C16   N2    A    
C74   H50   S    
C36   H15   S    
N15   Ni3   S    
C82   H70   S    
C70   H40   S    
C39   C49   A    
C73   H48   S    
N10   Ni3   S    
C49   C50   A    
C16   C23   A    
C55   H25   S    
C75   H52   S    
C41   C44   A    
C22   C24   A    
N8    Ni1   S    
C42   C43   A    
C4    N16   A    
C2    H45   S    
C74   O4    S    
N10   N13   A    
N9    N15   A    
C15   C17   A    
C66   O1    S    
C46   C47   A    
C25   H7    S    
C54   O7    S    
C82   O9    S    
C11   O2    S    
C80   O7    S    
C2    C8    A    
N3    Ni4   S    
C72   C73   S    
C39   C48   A    
N11   Ni4   S    
C76   H53   S    
C46   C50   A    
C69   H35   S    
C34   C52   A    
C31   C38   S    
C64   C65   A    
C19   C20   A    
C58   C59   A    
C77   H59   S    
C82   H71   S    
C71   C72   S    
C32   H11   S    
C81   H66   S    
C85   N12   A    
C11   C13   A    
C30   C31   A    
C16   H13   S    
C57   C58   A    
C37   O4    S    
C62   H24   S    
C43   O5    S    
C67   N10   A    
C23   C39   S    
C48   H16   S    
C74   H49   S    
C33   C35   A    
C42   C47   A    
C3    N14   A    
C61   C62   A    
C61   H22   S    
C5    N15   A    
C10   C11   A    
C70   H38   S    
C70   H39   S    
N13   Ni1   S    
C20   C21   A    
C76   H54   S    
C8    C67   A    
N2    N4    A    
C7    C20   S    
C79   O6    S    
C78   N11   A    
C77   O5    S    
C14   C15   A    
N8    N14   A    
N14   Ni4   S    
C51   C60   A    
C71   O3    S    
C82   C83   S    
C21   C22   A    
N6    N16   A    
C52   N5    A    
C84   H76   S    
C15   H3    S    
N16   Ni2   S    
