data_mof_unit_14011.cif
_audit_creation_date              2013-03-05T16:33:13-0500
_audit_creation_method            fapswitch 2.2
_symmetry_space_group_name_H-M    P1
_symmetry_Int_Tables_number       1
_space_group_crystal_system       triclinic
_cell_length_a                    27.811345
_cell_length_b                    10.85647
_cell_length_c                    9.606898
_cell_angle_alpha                 89.34478
_cell_angle_beta                  88.474081
_cell_angle_gamma                 91.501756
_cell_volume                      2898.40160183

loop_
_atom_site_label
_atom_site_type_symbol
_atom_site_description
_atom_site_fract_x
_atom_site_fract_y
_atom_site_fract_z
_atom_type_partial_charge
O1    O     O_R   0.500000 0.319640 0.618810 -0.574287
O2    O     O_R   0.500010 0.319680 0.381230 -0.549848
C1    C     C_R   0.499956 0.262215 0.500541 0.874438
O3    O     O_R   0.430260 0.500000 0.618780 -0.602806
O4    O     O_R   0.430270 0.500040 0.381190 -0.575797
C2    C     C_R   0.407733 0.499192 0.501187 0.841443
Cu1   Cu    Cu3+1 0.500000 0.499980 0.640670 1.015686
Cu2   Cu    Cu3+1 0.500000 0.500020 0.359330 1.025147
O5    O     O_R   0.499990 0.680320 0.618770 -0.599881
O6    O     O_R   0.500000 0.680360 0.381190 -0.586897
O7    O     O_R   0.569730 0.499960 0.618810 -0.536758
O8    O     O_R   0.569740 0.500000 0.381220 -0.570175
C3    C     C_R   0.501292 0.737394 0.499113 0.841277
C4    C     C_R   0.592305 0.500348 0.498552 0.954524
C5    C     C_R   0.177087 0.403880 0.528359 0.533101
O9    O     O_2   0.200601 0.298062 0.547611 -0.544740
N1    N     N_R   0.202417 0.513433 0.511769 -0.453695
C6    C     C_R   0.179015 0.622564 0.500274 0.544749
C7    C     C_R   0.281344 0.585394 0.595491 -0.110722
C8    C     C_R   0.331354 0.580775 0.592087 -0.270016
C9    C     C_R   0.328095 0.426133 0.410449 0.288188
C10   C     C_R   0.278012 0.436511 0.410074 -0.163734
C11   C     C_R   0.254259 0.512975 0.504861 0.271841
C12   C     C_R   0.102029 0.511885 0.516455 -0.046270
C13   C     C_R   0.126662 0.400745 0.526289 -0.017584
C14   C     C_R   0.100551 0.288959 0.534355 -0.141235
C15   C     C_R   0.128499 0.624030 0.506398 -0.024289
C16   C     C_R   0.355042 0.499809 0.502612 -0.136210
H1    H     H_    0.257080 0.381125 0.339434 0.192030
H2    H     H_    0.118597 0.202182 0.544343 0.187846
C17   C     C_R   0.645206 0.500310 0.496264 -0.250353
C18   C     C_R   0.974339 0.396081 0.500474 0.042520
C19   C     C_R   0.975430 0.621835 0.527057 0.042399
C20   C     C_R   0.949646 0.508349 0.512439 0.073630
C21   C     C_R   0.947428 0.287167 0.473030 -0.202985
C22   C     C_R   0.897667 0.288119 0.463292 -0.126809
C23   C     C_R   0.872798 0.397038 0.483337 -0.027000
C24   C     C_R   0.898637 0.507108 0.509530 -0.043712
C25   C     C_R   0.873413 0.615931 0.532657 -0.032432
C26   C     C_R   0.822896 0.611860 0.533552 0.570676
N2    N     N_R   0.798317 0.504623 0.503431 -0.448165
C27   C     C_R   0.822474 0.398625 0.476283 0.561422
C28   C     C_R   0.719409 0.416606 0.580941 -0.100348
C29   C     C_R   0.669186 0.410970 0.575742 0.286977
C30   C     C_R   0.672450 0.591911 0.419918 0.273859
C31   C     C_R   0.722776 0.588358 0.418569 -0.114227
C32   C     C_R   0.746462 0.503068 0.500754 0.202004
O10   O     O_2   0.797958 0.295119 0.441200 -0.506761
C33   C     C_R   0.024995 0.396598 0.514247 0.044099
C34   C     C_R   0.050987 0.510791 0.516245 0.070170
C35   C     C_R   0.026479 0.623814 0.517453 0.043479
C36   C     C_R   0.050700 0.286613 0.527138 -0.205056
H3    H     H_    0.737793 0.350847 0.644759 0.203006
H4    H     H_    0.878707 0.202409 0.441156 0.194580
H5    H     H_    0.964048 0.200151 0.453842 0.140254
H6    H     H_    0.033085 0.197102 0.536024 0.138310
O11   O     O_2   0.204441 0.729262 0.481049 -0.534454
C37   C     C_R   0.104065 0.734836 0.500308 -0.141313
H7    H     H_    0.351653 0.639744 0.660716 0.167648
H8    H     H_    0.263669 0.644551 0.669803 0.165708
H9    H     H_    0.123540 0.822414 0.490984 0.188556
C38   C     C_R   0.949078 0.729421 0.551687 -0.202054
C39   C     C_R   0.899035 0.726039 0.555789 -0.127751
O12   O     O_2   0.798586 0.714138 0.565738 -0.492302
C40   C     C_R   0.054043 0.735039 0.507103 -0.203189
H10   H     H_    0.966198 0.817290 0.572488 0.139509
H11   H     H_    0.880496 0.810840 0.575750 0.193316
H12   H     H_    0.743891 0.655595 0.357393 0.207382
H13   H     H_    0.037885 0.823941 0.499128 0.138078
C41   C     C_R   0.512312 0.061777 0.621071 0.166879
C42   C     C_R   0.503655 0.128731 0.499435 -0.151932
C43   C     C_R   0.503331 0.065546 0.372131 -0.114965
H14   H     H_    0.499708 0.114266 0.274125 0.219264
C44   C     C_R   0.504706 0.937198 0.370694 -0.155061
H15   H     H_    0.501568 0.890611 0.272117 0.173422
C45   C     C_R   0.506590 0.870537 0.496593 -0.079577
C46   C     C_R   0.514340 0.934854 0.619192 0.126899
C47   C     C_3   0.490547 0.918591 0.759360 -0.534537
C48   C     C_3   0.486593 0.057408 0.760378 0.121173
H16   H     H_    0.455066 0.869154 0.755719 0.173372
H17   H     H_    0.515154 0.882632 0.838159 0.226245
H18   H     H_    0.448483 0.084128 0.758342 0.078989
C49   C     C_R   0.541606 0.519864 0.069885 0.214297
N3    N     N_R   0.500300 0.500930 0.147930 -0.211462
C50   C     C_R   0.459991 0.469722 0.080340 -0.030083
H19   H     H_    0.427790 0.444161 0.140314 0.194955
C51   C     C_R   0.458976 0.471789 0.933345 0.066637
N4    N     N_R   0.500310 0.500890 0.852020 -0.240537
C52   C     C_R   0.541916 0.518223 0.922727 0.254833
C53   C     C_3   0.574479 0.630296 0.915227 0.077568
C54   C     C_3   0.573809 0.631199 0.073504 -0.460167
H20   H     H_    0.557746 0.711205 0.866849 0.124767
H21   H     H_    0.608740 0.609740 0.119860 0.267684
H22   H     H_    0.555607 0.712177 0.118503 0.199679
N5    N     N_R   0.350462 0.336924 0.321876 0.117303
O13   O     O_R   0.331922 0.309664 0.202740 -0.364798
O14   O     O_R   0.384637 0.269332 0.368482 -0.383105
N6    N     N_R   0.650130 0.692902 0.350263 0.127334
O15   O     O_R   0.672370 0.749306 0.245957 -0.308997
O16   O     O_R   0.612085 0.742579 0.404818 -0.349625
N7    N     N_R   0.514616 0.115406 0.869953 0.166123
O17   O     O_R   0.560947 0.102183 0.874702 -0.246433
O18   O     O_R   0.492812 0.175972 0.967936 -0.382382
C55   C     C_R   0.411089 0.438606 0.879635 0.150560
C56   C     C_R   0.370924 0.507736 0.919324 -0.195759
C57   C     C_R   0.324286 0.463678 0.894024 -0.081127
C58   C     C_R   0.317283 0.351419 0.826786 -0.043548
C59   C     C_R   0.356901 0.282407 0.786779 -0.145737
C60   C     C_R   0.403391 0.325067 0.815678 -0.038958
H23   H     H_    0.375746 0.593813 0.973781 0.126149
H24   H     H_    0.293606 0.516884 0.925882 0.135099
H25   H     H_    0.281223 0.318130 0.805577 0.158193
H26   H     H_    0.351606 0.195212 0.735136 0.149714
H27   H     H_    0.433674 0.271275 0.788107 0.153895
N8    N     N_R   0.622098 0.605237 0.855348 0.172854
O19   O     O_R   0.641955 0.681890 0.764587 -0.293355
O20   O     O_R   0.645950 0.510494 0.896531 -0.301003
N9    N     N_R   0.643337 0.312110 0.648461 0.166372
O21   O     O_R   0.660196 0.265656 0.762134 -0.243280
O22   O     O_R   0.607756 0.254727 0.589737 -0.347829

loop_
_geom_bond_atom_site_label_1
_geom_bond_atom_site_label_2
_geom_bond_distance
_ccdc_geom_bond_type
C51   N4    1.399711 A    
N7    O17   1.302173 A    
C10   H1    1.083064 S    
N2    C27   1.371754 A    
C1    C42   1.455647 S    
N5    O13   1.301762 A    
C12   C15   1.407167 A    
C4    C17   1.470824 S    
C56   H23   1.083198 S    
C48   H18   1.106789 S    
Cu1   Cu2   2.702799 S    
C50   H19   1.080189 S    
Cu1   O7    1.945061 S    
N1    C11   1.441706 S    
C44   C45   1.405249 A    
C22   C23   1.398095 A    
C30   N6    1.440919 S    
C35   C40   1.414313 A    
O4    C2    1.297245 A    
O7    C4    1.300028 A    
C47   H16   1.112445 S    
C5    C13   1.402595 A    
C57   C58   1.397417 A    
N8    O19   1.300551 A    
N6    O15   1.301830 A    
C59   C60   1.397844 A    
C5    N1    1.371860 A    
C58   H25   1.082320 S    
C23   C27   1.403563 A    
O5    C3    1.298840 A    
N9    O21   1.301460 A    
C6    O11   1.349519 S    
O1    Cu1   1.971473 S    
C28   H3    1.082946 S    
C2    C16   1.465310 S    
Cu1   N4    2.030803 S    
C19   C38   1.413959 A    
N8    O20   1.301912 A    
C58   C59   1.396572 A    
C12   C13   1.406514 A    
C41   C42   1.398762 A    
C46   C47   1.491075 S    
C37   H9    1.083447 S    
N7    O18   1.300300 A    
C20   C24   1.419368 A    
C9    C10   1.400453 A    
C41   C46   1.380874 A    
O3    Cu1   1.956498 S    
C55   C56   1.408639 A    
C34   C35   1.419173 A    
C57   H24   1.082264 S    
C50   C51   1.413135 A    
C12   C34   1.419332 A    
C24   C25   1.406569 A    
C49   C52   1.413844 A    
C39   H11   1.083443 S    
C17   C29   1.418663 A    
C38   H10   1.078085 S    
C21   H5    1.078157 S    
C18   C21   1.413873 A    
N3    C50   1.347990 A    
C43   C44   1.395157 A    
C44   H15   1.083184 S    
C25   C26   1.404277 A    
C47   C48   1.514070 S    
C9    N5    1.439177 S    
C13   C14   1.398156 A    
C30   C31   1.400900 A    
O6    C3    1.298125 A    
O1    C1    1.302245 A    
C21   C22   1.389854 A    
C18   C20   1.418888 A    
C59   H26   1.082254 S    
C7    C11   1.401116 A    
C28   C29   1.398758 A    
C31   H12   1.082780 S    
C23   C24   1.406835 A    
C14   C36   1.389573 A    
C54   H21   1.108567 S    
C37   C40   1.391047 A    
C53   H20   1.108041 S    
C49   N3    1.364669 A    
C3    C45   1.448975 S    
C29   N9    1.439588 S    
Cu2   O8    1.956492 S    
C33   C36   1.413592 A    
C38   C39   1.390759 A    
N1    C6    1.371401 A    
N2    C32   1.442753 S    
C27   O10   1.349796 S    
C53   N8    1.463107 S    
C45   C46   1.394863 A    
C8    H7    1.083414 S    
C60   H27   1.066751 S    
O3    C2    1.306310 A    
C26   N2    1.372190 A    
C9    C16   1.416150 A    
O8    C4    1.304634 A    
C14   H2    1.083472 S    
N6    O16   1.300748 A    
C49   C54   1.486667 S    
C25   C39   1.398566 A    
Cu1   O5    1.966741 S    
C31   C32   1.399150 A    
C41   C48   1.500241 S    
Cu2   N3    2.030604 S    
O2    Cu2   1.966743 S    
C6    C15   1.405104 A    
C43   H14   1.082987 S    
C15   C37   1.398447 A    
O4    Cu2   1.945064 S    
N5    O14   1.301542 A    
C7    H8    1.082639 S    
C19   C35   1.419883 A    
C8    C16   1.401074 A    
C56   C57   1.398990 A    
C26   O12   1.349705 S    
C7    C8    1.392586 A    
O2    C1    1.298658 A    
C42   C43   1.409177 A    
C54   H22   1.111929 S    
C47   H17   1.108441 S    
C53   C54   1.520318 S    
C55   C60   1.397587 A    
C40   H13   1.078062 S    
C19   C20   1.419470 A    
N9    O22   1.300401 A    
C18   C33   1.418394 A    
C22   H4    1.083461 S    
C51   C55   1.478299 S    
C36   H6    1.078219 S    
N4    C52   1.367169 A    
Cu2   O6    1.971472 S    
C33   C34   1.419209 A    
C17   C30   1.419593 A    
C10   C11   1.403106 A    
C48   N7    1.464623 S    
C52   C53   1.497502 S    
C28   C32   1.398630 A    
C5    O9    1.350037 S    
