data_mof_unit_47860.cif
_audit_creation_date              2012-12-10T17:21:38-0500
_audit_creation_method            fapswitch 2.2
_symmetry_space_group_name_H-M    P1
_symmetry_Int_Tables_number       1
_space_group_crystal_system       triclinic
_cell_length_a                    10.8959
_cell_length_b                    10.85068
_cell_length_c                    9.590622
_cell_angle_alpha                 90.332019
_cell_angle_beta                  90.081252
_cell_angle_gamma                 95.201227
_cell_volume                      1129.18942502

loop_
_atom_site_label
_atom_site_type_symbol
_atom_type_description
_atom_site_fract_x
_atom_site_fract_y
_atom_site_fract_z
_atom_type_partial_charge
C1    C     C_R   0.508749 0.263111 0.501245 0.793526
C2    C     C_3   0.878470 0.489629 0.494066 -0.014831
C3    C     C_3   0.940364 0.623332 0.521655 -0.439588
C4    C     C_3   0.924354 0.446787 0.342527 0.068014
C5    C     C_R   0.538267 0.118360 0.768337 -0.142277
C6    C     C_R   0.507491 0.055207 0.891244 -0.179294
C7    C     C_R   0.445851 0.937733 0.885249 -0.134862
C8    C     C_R   0.427334 0.878176 0.756888 -0.163961
C9    C     C_R   0.472274 0.935638 0.632204 0.087584
C10   C     C_R   0.509539 0.063347 0.636093 0.117579
C11   C     C_R   0.518162 0.129178 0.507514 -0.089947
C12   C     C_R   0.260103 0.498031 0.498421 0.769795
C13   C     C_R   0.521539 0.063706 0.382061 -0.214972
C14   C     C_R   0.508081 0.936134 0.380868 -0.223949
C15   C     C_R   0.484124 0.870578 0.504591 -0.118207
C16   C     C_R   0.638666 0.691629 0.143827 -0.112361
C17   C     C_R   0.701088 0.788710 0.071272 -0.205721
C18   C     C_R   0.708347 0.782916 0.927721 -0.162188
C19   C     C_R   0.649139 0.682647 0.856578 -0.093961
C20   C     C_R   0.570836 0.591756 0.925719 0.189938
C21   C     C_R   0.567951 0.594050 0.074980 0.183945
C22   C     C_R   0.432198 0.409650 0.070630 0.143239
C23   C     C_R   0.491498 0.736717 0.500962 0.782627
C24   C     C_R   0.432664 0.412759 0.922504 -0.076022
C25   C     C_R   0.739868 0.495560 0.499154 0.738385
C26   C     C_3   0.066097 0.394080 0.594593 -0.497156
C27   C     C_3   0.925031 0.403393 0.613382 0.022347
C28   C     C_3   0.080922 0.621193 0.538908 -0.383790
C29   C     C_3   0.070387 0.456277 0.340427 -0.081332
C30   C     C_3   0.122634 0.494502 0.491267 0.084412
Cu1   Cu    Cu3+1 0.499990 0.499990 0.640660 0.918344
Cu2   Cu    Cu3+1 0.500010 0.500010 0.359340 0.908195
H1    H     H_    0.114192 0.402992 0.697350 0.180874
H2    H     H_    0.129762 0.700046 0.483345 0.142278
H3    H     H_    0.920501 0.686780 0.435699 0.162869
H4    H     H_    0.537464 0.110814 0.284265 0.142648
H5    H     H_    0.589898 0.207487 0.779835 0.183116
H6    H     H_    0.529445 0.098518 0.991165 0.132534
H7    H     H_    0.416439 0.890979 0.980456 0.140285
H8    H     H_    0.376650 0.787888 0.757228 0.162040
H9    H     H_    0.516980 0.888993 0.282090 0.167483
H10   H     H_    0.084783 0.300858 0.554980 0.146377
H11   H     H_    0.662670 0.688374 0.251462 0.198669
H12   H     H_    0.754105 0.862268 0.127460 0.153410
H13   H     H_    0.764835 0.853371 0.871669 0.152718
H14   H     H_    0.669995 0.678157 0.748259 0.191024
H15   H     H_    0.380694 0.343132 0.860745 0.150161
H16   H     H_    0.105256 0.636528 0.650881 0.182326
H17   H     H_    0.902058 0.664613 0.616839 0.176225
H18   H     H_    0.097394 0.360730 0.325836 0.116053
N1    N     N_R   0.501200 0.501210 0.147910 -0.217397
N2    N     N_R   0.501250 0.501290 0.852040 -0.222980
O1    O     O_R   0.499990 0.319640 0.618810 -0.594574
O2    O     O_R   0.500000 0.319660 0.381240 -0.605125
O3    O     O_R   0.317680 0.499970 0.618790 -0.585540
O4    O     O_R   0.317700 0.499990 0.381210 -0.606314
O5    O     O_R   0.500000 0.680340 0.618760 -0.605976
O6    O     O_R   0.500010 0.680360 0.381190 -0.604392
O7    O     O_R   0.682300 0.500010 0.618790 -0.585482
O8    O     O_R   0.682320 0.500030 0.381210 -0.593336
C31   C     C_1   0.884192 0.530093 0.233163 0.292756
N3    N     N_1   0.860586 0.594102 0.143438 -0.293863
C32   C     C_3   0.364189 0.297219 0.139676 -0.373427
C33   C     C_3   0.256462 0.229215 0.057298 -0.459869
C34   C     C_3   0.188865 0.127287 0.144820 -0.844899
H19   H     H_    0.253368 0.058951 0.176937 0.256781
H20   H     H_    0.148351 0.166725 0.239336 0.245764
H21   H     H_    0.113467 0.078499 0.082128 0.254140
H22   H     H_    0.190533 0.295734 0.024219 0.215147
H23   H     H_    0.291227 0.183188 0.963549 0.236704
H24   H     H_    0.432398 0.229881 0.157283 0.200589
H25   H     H_    0.325717 0.323680 0.240190 0.251279
C35   C     C_1   0.859049 0.278428 0.614660 0.150641
N4    N     N_1   0.808194 0.180065 0.616276 -0.316973
C36   C     C_1   0.904387 0.454844 0.753877 0.254116
N5    N     N_1   0.888548 0.495287 0.863487 -0.306860
C37   C     C_3   0.131337 0.522271 0.205758 -0.355961
C38   C     C_3   0.155701 0.664267 0.210455 -0.290737
C39   C     C_3   0.190543 0.715756 0.066557 -0.868281
H26   H     H_    0.275594 0.677320 0.028464 0.248857
H27   H     H_    0.114525 0.692240 0.990976 0.271008
H28   H     H_    0.207596 0.818063 0.073129 0.235817
H29   H     H_    0.073207 0.707623 0.246864 0.219678
H30   H     H_    0.233551 0.691891 0.281987 0.225429
H31   H     H_    0.217467 0.483950 0.176037 0.215547
H32   H     H_    0.075557 0.494491 0.111977 0.192135
C40   C     C_3   0.869938 0.311264 0.303568 -0.441786
C41   C     C_3   0.879735 0.274670 0.148401 -0.343397
C42   C     C_3   0.834808 0.138777 0.124478 -0.860247
H33   H     H_    0.890819 0.078126 0.186308 0.252899
H34   H     H_    0.736551 0.121206 0.154903 0.249594
H35   H     H_    0.843462 0.115165 0.012297 0.251392
H36   H     H_    0.822102 0.331208 0.083347 0.248222
H37   H     H_    0.976651 0.290046 0.112988 0.221245
H38   H     H_    0.918899 0.243634 0.363585 0.210288
H39   H     H_    0.771199 0.297076 0.333070 0.222790

loop_
_geom_bond_atom_site_label_1
_geom_bond_atom_site_label_2
_ccdc_geom_bond_type
C24   N2    A    
C23   O6    A    
C40   C41   S    
C16   C21   A    
C5    H5    S    
C35   N4    T    
C19   C20   A    
C1    C11   S    
Cu2   O6    S    
Cu1   N2    S    
C1    O2    A    
C3    H17   S    
C19   H14   S    
C7    C8    A    
C4    C40   S    
C37   C38   S    
C26   C27   S    
C3    C28   S    
C5    C6    A    
C18   C19   A    
Cu1   O7    S    
C1    O1    A    
C22   C32   S    
C38   H29   S    
C8    C9    A    
C34   H20   S    
C40   H38   S    
C6    H6    S    
C2    C27   S    
C25   O8    A    
C33   H23   S    
C42   H34   S    
C9    C10   A    
C4    C29   S    
C15   C23   S    
C28   H2    S    
C13   C14   A    
C27   C36   S    
Cu2   O2    S    
C29   H18   S    
C41   H37   S    
C13   H4    S    
C39   H27   S    
C38   C39   S    
C16   C17   A    
C4    C31   S    
C39   H26   S    
C2    C4    S    
C36   N5    T    
Cu2   N1    S    
C29   C30   S    
C26   H1    S    
Cu1   Cu2   S    
C3    H3    S    
C34   H21   S    
C40   H39   S    
C20   C21   A    
C17   C18   A    
C33   H22   S    
Cu1   O1    S    
C42   H35   S    
C16   H11   S    
C12   O4    A    
C14   H9    S    
C32   H24   S    
C37   H32   S    
C26   C30   S    
C22   C24   A    
Cu2   O8    S    
C18   H13   S    
C21   N1    A    
C26   H10   S    
C23   O5    A    
C41   H36   S    
C28   H16   S    
C12   C30   S    
C24   H15   S    
C39   H28   S    
C6    C7    A    
C25   O7    A    
C33   C34   S    
Cu1   O5    S    
C28   C30   S    
C2    C3    S    
C9    C15   A    
C17   H12   S    
C5    C10   A    
C20   N2    A    
C11   C13   A    
C32   H25   S    
C2    C25   S    
C31   N3    T    
C12   O3    A    
C10   C11   A    
C37   H31   S    
C32   C33   S    
C38   H30   S    
C29   C37   S    
C41   C42   S    
C34   H19   S    
C7    H7    S    
C14   C15   A    
C8    H8    S    
Cu1   O3    S    
C42   H33   S    
C27   C35   S    
Cu2   O4    S    
C22   N1    A    
