data_mof_unit_40721.cif
_audit_creation_date              2013-03-05T15:52:46-0500
_audit_creation_method            fapswitch 2.2
_symmetry_space_group_name_H-M    P1
_symmetry_Int_Tables_number       1
_space_group_crystal_system       triclinic
_cell_length_a                    6.95083
_cell_length_b                    14.828971
_cell_length_c                    21.359975
_cell_angle_alpha                 74.641059
_cell_angle_beta                  89.737555
_cell_angle_gamma                 90.243603
_cell_volume                      2122.96341271

loop_
_atom_site_label
_atom_site_type_symbol
_atom_site_description
_atom_site_fract_x
_atom_site_fract_y
_atom_site_fract_z
_atom_type_partial_charge
O1    O     O_R   0.648150 0.130050 0.214300 -0.595908
O2    O     O_R   0.351850 0.869950 0.785700 -0.595794
O3    O     O_R   0.320490 0.006660 0.340150 -0.560353
O4    O     O_R   0.679510 0.993340 0.659850 -0.560875
O5    O     O_R   0.146100 0.869940 0.285700 -0.603540
O6    O     O_R   0.853900 0.130060 0.714300 -0.601890
C1    C     C_R   0.488026 0.001856 0.367008 0.994231
C2    C     C_R   0.512012 0.998677 0.632885 0.995317
O7    O     O_R   0.318690 0.137980 0.218120 -0.564862
O8    O     O_R   0.681310 0.862020 0.781880 -0.563809
O9    O     O_R   0.144280 0.002190 0.162800 -0.575884
O10   O     O_R   0.855720 0.997810 0.837200 -0.575188
C3    C     C_R   0.488430 0.175370 0.206370 1.057312
C4    C     C_R   0.511683 0.824548 0.793249 1.058903
O11   O     O_R   0.649960 0.997790 0.337200 -0.573960
O12   O     O_R   0.350040 0.002210 0.662800 -0.574085
O13   O     O_3   0.479300 0.955290 0.231990 -0.298473
O14   O     O_3   0.520700 0.044710 0.768010 -0.298055
V1    V     V_3+5 0.206040 0.008290 0.253340 1.286474
V2    V     V_3+5 0.793960 0.991710 0.746660 1.287259
O15   O     O_R   0.814320 0.993320 0.159850 -0.604404
O16   O     O_R   0.185680 0.006680 0.840150 -0.604577
C5    C     C_R   0.983192 0.998790 0.132788 0.943957
C6    C     C_R   0.016798 0.001284 0.867203 0.944238
O17   O     O_R   0.816120 0.862000 0.281880 -0.603930
O18   O     O_R   0.183880 0.138000 0.718120 -0.603927
C7    C     C_R   0.984581 0.824573 0.295227 0.980175
C8    C     C_R   0.015120 0.175462 0.705315 0.977846
V3    V     V_3+5 0.705540 0.991700 0.246660 1.238336
V4    V     V_3+5 0.294460 0.008300 0.753340 1.238515
O19   O     O_3   0.982150 0.044700 0.268010 -0.232747
O20   O     O_3   0.017850 0.955300 0.731990 -0.234071
C9    C     C_R   0.994553 0.723029 0.322649 -0.155423
C10   C     C_R   0.002578 0.276817 0.677926 -0.151219
C11   C     C_R   0.088744 0.570962 0.311454 0.430789
C12   C     C_R   0.933859 0.430231 0.692075 0.424092
C13   C     C_R   0.064644 0.667004 0.284937 -0.306107
C14   C     C_R   0.964196 0.334466 0.718141 -0.306325
C15   C     C_R   0.954795 0.684126 0.388416 -0.186942
C16   C     C_R   0.014768 0.314442 0.610954 -0.190526
C17   C     C_R   0.975340 0.586868 0.417494 0.086711
C18   C     C_R   0.973339 0.409858 0.581794 0.087238
C19   C     C_R   0.030984 0.528848 0.376872 -0.173966
C20   C     C_R   0.924931 0.467845 0.623257 -0.175406
C21   C     C_R   0.947663 0.546164 0.485822 0.051367
C22   C     C_R   0.979274 0.448855 0.512762 0.049069
C23   C     C_R   0.007485 0.392693 0.469630 -0.317797
C24   C     C_R   0.884421 0.599110 0.527830 -0.305872
C25   C     C_R   0.026759 0.430657 0.402828 0.383141
C26   C     C_R   0.865359 0.560662 0.594626 0.388578
H1    H     H_    0.055298 0.266492 0.583240 0.148595
H2    H     H_    0.914300 0.732727 0.415616 0.146823
H3    H     H_    0.963004 0.304982 0.770321 0.146833
H4    H     H_    0.108993 0.699081 0.235263 0.148988
H5    H     H_    0.003785 0.317565 0.485965 0.186347
H6    H     H_    0.836865 0.670195 0.509881 0.174719
C27   C     C_3   0.958539 0.914442 0.993934 -0.075972
C28   C     C_3   0.041429 0.085744 0.006057 -0.077020
C29   C     C_3   0.127960 0.938660 0.033588 -0.158611
C30   C     C_3   0.872015 0.061526 0.966393 -0.159246
H7    H     H_    0.233651 0.887904 0.061525 0.130129
H8    H     H_    0.766323 0.112281 0.938456 0.130614
H9    H     H_    0.926875 0.843136 0.989750 0.199590
H10   H     H_    0.072980 0.157027 0.010339 0.199731
C31   C     C_3   0.992036 0.999404 0.062134 -0.115260
C32   C     C_3   0.007939 0.000767 0.937848 -0.115071
C33   C     C_3   0.822252 0.975176 0.023220 -0.071225
C34   C     C_3   0.177723 0.025011 0.976762 -0.070519
H11   H     H_    0.675159 0.954523 0.042369 0.135910
H12   H     H_    0.324816 0.045664 0.957614 0.135891
C35   C     C_3   0.674464 0.994935 0.477995 0.511606
C36   C     C_3   0.325467 0.006378 0.521726 0.514719
C37   C     C_3   0.605730 0.074508 0.506537 -0.230997
C38   C     C_3   0.394220 0.926801 0.493200 -0.232213
H13   H     H_    0.694245 0.134438 0.511908 0.196093
H14   H     H_    0.305779 0.866856 0.487829 0.200206
C39   C     C_3   0.507522 0.999536 0.562387 -0.303849
C40   C     C_3   0.492444 0.001703 0.437353 -0.305186
C41   C     C_3   0.581330 0.919889 0.534098 -0.233314
C42   C     C_3   0.418589 0.081452 0.465584 -0.229721
H15   H     H_    0.651302 0.854702 0.561866 0.225655
H16   H     H_    0.348919 0.146814 0.437707 0.220737
C43   C     C_R   0.503197 0.275896 0.177099 -0.308567
C44   C     C_R   0.498567 0.723921 0.822467 -0.309441
C45   C     C_R   0.592994 0.428496 0.187367 0.040780
C46   C     C_R   0.423374 0.570094 0.811426 0.041039
C47   C     C_R   0.576230 0.332665 0.214143 -0.100045
C48   C     C_R   0.432080 0.666272 0.785020 -0.093708
C49   C     C_R   0.455127 0.314255 0.111464 0.301639
C50   C     C_R   0.549008 0.685779 0.887898 0.302716
C51   C     C_R   0.501121 0.409613 0.081018 -0.043448
C52   C     C_R   0.507865 0.589866 0.918239 -0.042739
C53   C     C_R   0.552532 0.467500 0.121676 0.093669
C54   C     C_R   0.461146 0.531505 0.877395 0.095670
C55   C     C_R   0.497527 0.450140 0.012252 0.094836
C56   C     C_R   0.512447 0.549275 0.987023 0.094291
C57   C     C_R   0.522547 0.604358 0.031621 -0.107551
C58   C     C_R   0.489185 0.394847 0.967791 -0.105681
C59   C     C_R   0.555902 0.564234 0.096960 -0.125614
C60   C     C_R   0.459304 0.434754 0.902220 -0.120040
H17   H     H_    0.577894 0.609381 0.128814 0.137790
H18   H     H_    0.439908 0.389404 0.870364 0.136269
H19   H     H_    0.395592 0.695478 0.734447 0.177344
H20   H     H_    0.612525 0.302991 0.264659 0.180539
H21   H     H_    0.639559 0.472292 0.217839 0.174347
H22   H     H_    0.384666 0.525675 0.780487 0.172849
H23   H     H_    0.504255 0.679011 0.017437 0.165791
H24   H     H_    0.507081 0.320133 0.982362 0.164472
N1    N     N_R   0.023418 0.367798 0.361833 0.264412
O21   O     O_R   0.109410 0.287353 0.379783 -0.367143
O22   O     O_R   0.909176 0.384039 0.312078 -0.398382
N2    N     N_R   0.766938 0.614715 0.631328 0.255343
O23   O     O_R   0.814278 0.701770 0.624476 -0.371939
O24   O     O_R   0.611706 0.581534 0.663694 -0.410127
N3    N     N_R   0.865402 0.988447 0.451408 0.249936
O25   O     O_R   0.947083 0.063167 0.414870 -0.355340
O26   O     O_R   0.934276 0.906777 0.452167 -0.443078
N4    N     N_R   0.134505 0.012799 0.548313 0.250463
O27   O     O_R   0.052802 0.938044 0.584806 -0.363073
O28   O     O_R   0.065385 0.094444 0.547486 -0.444443
N5    N     N_R   0.666777 0.740532 0.919098 0.208364
O29   O     O_R   0.610613 0.822426 0.923190 -0.468407
O30   O     O_R   0.833618 0.709002 0.942111 -0.421009
N6    N     N_R   0.336335 0.260408 0.079865 0.208459
O31   O     O_R   0.171948 0.293686 0.055554 -0.421158
O32   O     O_R   0.389505 0.177787 0.076408 -0.468947
N7    N     N_R   0.193674 0.520122 0.273903 0.247175
O33   O     O_R   0.167462 0.538064 0.211527 -0.403533
O34   O     O_R   0.338782 0.468627 0.299728 -0.405141
N8    N     N_R   0.926870 0.488344 0.736242 0.248588
O35   O     O_R   0.839953 0.458663 0.792066 -0.409947
O36   O     O_R   0.037518 0.561812 0.726409 -0.380895

loop_
_geom_bond_atom_site_label_1
_geom_bond_atom_site_label_2
_geom_bond_distance
_ccdc_geom_bond_type
C43   C47   1.394765 A    
C37   C42   1.559392 S    
C17   C19   1.427560 A    
C32   C34   1.541613 S    
C55   C56   1.428575 A    
C4    C44   1.459269 S    
C27   C32   1.540098 S    
O4    C2    1.294712 A    
V1    O19   1.704062 S    
C35   C41   1.540751 S    
C55   C58   1.410731 A    
C23   C25   1.393893 A    
C21   C22   1.423248 A    
C7    C9    1.466071 S    
O9    V1    2.008110 S    
C9    C15   1.395853 A    
C44   C50   1.408393 A    
C10   C16   1.393032 A    
C23   H5    1.075778 S    
C11   C13   1.397432 A    
O3    C1    1.294392 A    
N1    O22   1.300684 A    
C40   C42   1.551060 S    
C27   C29   1.549141 S    
C28   C30   1.549250 S    
N3    O25   1.300646 A    
C35   C37   1.541277 S    
C52   C56   1.433201 A    
C58   H24   1.076436 S    
C30   H8    1.110440 S    
C18   C22   1.434522 A    
O7    C3    1.296317 A    
N4    O27   1.300702 A    
C46   C54   1.399810 A    
O5    C7    1.293595 A    
C45   C53   1.399151 A    
O7    V1    2.023123 S    
O6    C8    1.291926 A    
C30   C33   1.549740 S    
O8    V2    2.023122 S    
C31   C33   1.541507 S    
O3    V1    2.015353 S    
O14   V4    1.717426 S    
C49   C51   1.425414 A    
C11   C19   1.426257 A    
C53   C59   1.391170 A    
C6    C32   1.507932 S    
C24   C26   1.394623 A    
C15   H2    1.076204 S    
C30   C32   1.539191 S    
C2    O12   1.300081 A    
C28   H10   1.106006 S    
C37   H13   1.109723 S    
C46   H22   1.083381 S    
C18   C20   1.428342 A    
C27   C33   1.549223 S    
C45   H21   1.083620 S    
C26   N2    1.434460 S    
N2    O23   1.300798 A    
C57   C59   1.385571 A    
O11   V3    1.995863 S    
C45   C47   1.388366 A    
O17   V3    2.026643 S    
C43   C49   1.408596 A    
C29   H7    1.110439 S    
C46   C48   1.388789 A    
C36   C38   1.541161 S    
O8    C4    1.295462 A    
C41   H15   1.107109 S    
C19   C25   1.414294 A    
C1    O11   1.300105 A    
N3    O26   1.300287 A    
O15   V3    1.993483 S    
C9    C13   1.389533 A    
C33   H11   1.110664 S    
O4    V2    2.015356 S    
N8    O36   1.301050 A    
N7    O34   1.301238 A    
C36   C39   1.526573 S    
C12   N8    1.437205 S    
C29   C34   1.549739 S    
C51   C53   1.419114 A    
C28   C31   1.540116 S    
C50   C52   1.425227 A    
C54   C60   1.391590 A    
C56   C57   1.411365 A    
O10   V2    2.008110 S    
O1    V3    2.025881 S    
C39   C41   1.550367 S    
C35   N3    1.454742 S    
C11   N7    1.436416 S    
N5    O29   1.301843 A    
C38   H14   1.109632 S    
C1    C40   1.502427 S    
N2    O24   1.301052 A    
C28   C34   1.549347 S    
C59   H17   1.084404 S    
O18   V4    2.026643 S    
C58   C60   1.385513 A    
C38   C41   1.558607 S    
O15   C5    1.298714 A    
C2    C39   1.502963 S    
C50   N5    1.435064 S    
O16   C6    1.298762 A    
C12   C20   1.429174 A    
O1    C3    1.288652 A    
C13   H4    1.084184 S    
N7    O33   1.301539 A    
C48   H19   1.083705 S    
N6    O32   1.301779 A    
C60   H18   1.084388 S    
V2    O20   1.704064 S    
C21   C24   1.409719 A    
C20   C26   1.414617 A    
C24   H6    1.075850 S    
C3    C43   1.458770 S    
C22   C23   1.409636 A    
C37   C39   1.551983 S    
O16   V4    1.993479 S    
C10   C14   1.388771 A    
C44   C48   1.395133 A    
C27   H9    1.105785 S    
C16   C18   1.418145 A    
O5    V1    2.024663 S    
C49   N6    1.435257 S    
O17   C7    1.298146 A    
C16   H1    1.076351 S    
O6    V2    2.024663 S    
O10   C6    1.300196 A    
O18   C8    1.298996 A    
O2    V4    2.025882 S    
C5    C31   1.507759 S    
C12   C14   1.398537 A    
N8    O35   1.301414 A    
C25   N1    1.438262 S    
C36   C42   1.541417 S    
O13   V3    1.717427 S    
C29   C31   1.539057 S    
V4    O20   2.169645 S    
C52   C54   1.419744 A    
C14   H3    1.084084 S    
O9    C5    1.300164 A    
O13   V1    2.151266 S    
C42   H16   1.108797 S    
O14   V2    2.151264 S    
O2    C4    1.289974 A    
N4    O28   1.300255 A    
N5    O30   1.301230 A    
C8    C10   1.464455 S    
C47   H20   1.083278 S    
C57   H23   1.075805 S    
C15   C17   1.419238 A    
C51   C55   1.432529 A    
V3    O19   2.169646 S    
C38   C40   1.551464 S    
C36   N4    1.454724 S    
C34   H12   1.110663 S    
C17   C21   1.435691 A    
N1    O21   1.301234 A    
O12   V4    1.995863 S    
C35   C40   1.526232 S    
N6    O31   1.301251 A    
