data_mof_unit_31290.cif
_audit_creation_date              2012-12-10T17:03:01-0500
_audit_creation_method            fapswitch 2.2
_symmetry_space_group_name_H-M    P1
_symmetry_Int_Tables_number       1
_space_group_crystal_system       triclinic
_cell_length_a                    9.894328
_cell_length_b                    10.997404
_cell_length_c                    13.401421
_cell_angle_alpha                 96.122441
_cell_angle_beta                  81.108559
_cell_angle_gamma                 110.761804
_cell_volume                      1345.02955775

loop_
_atom_site_label
_atom_site_type_symbol
_atom_type_description
_atom_site_fract_x
_atom_site_fract_y
_atom_site_fract_z
_atom_type_partial_charge
C1    C     C_R   0.555447 0.745403 0.509024 0.858426
C2    C     C_R   0.442274 0.521174 0.973780 0.049923
C3    C     C_R   0.484869 0.551333 0.871021 0.104858
C4    C     C_R   0.552333 0.546617 0.038358 0.077554
C5    C     C_R   0.700790 0.615158 0.002892 0.102890
C6    C     C_R   0.735825 0.661106 0.905467 -0.227479
C7    C     C_R   0.629662 0.631612 0.841519 -0.179876
C8    C     C_R   0.519002 0.503349 0.136778 -0.227332
C9    C     C_R   0.771141 0.600061 0.166186 -0.156705
C10   C     C_R   0.380579 0.502518 0.801338 -0.089355
C11   C     C_2   0.580554 0.884231 0.526069 -0.372145
C12   C     C_R   0.424671 0.497171 0.690851 0.818684
C13   C     C_2   0.474647 0.929705 0.517056 -0.204204
C14   C     C_2   0.412556 0.115585 0.494593 -0.327067
C15   C     C_2   0.483969 0.064234 0.546230 0.020775
C16   C     C_2   0.931407 0.503666 0.481079 0.062174
C17   C     C_2   0.083024 0.523096 0.501267 0.071534
C18   C     C_R   0.442529 0.254963 0.496381 0.901892
C19   C     C_R   0.577676 0.512858 0.309706 0.797417
C20   C     C_R   0.810134 0.638653 0.066763 -0.023954
C21   C     C_R   0.625254 0.535277 0.201982 -0.073041
C22   C     C_R   0.232299 0.448755 0.837920 -0.279140
C23   C     C_R   0.186722 0.436368 0.941229 0.052423
C24   C     C_R   0.291234 0.469285 0.008360 -0.148843
Cu1   Cu    Cu3+1 0.362000 0.479240 0.482530 0.955173
Cu2   Cu    Cu3+1 0.638000 0.520760 0.517470 0.970041
H1    H     H_    0.854115 0.623882 0.216376 0.194821
H2    H     H_    0.378380 0.866738 0.484144 0.233057
H3    H     H_    0.341965 0.055028 0.440367 0.144695
H4    H     H_    0.683111 0.947393 0.550773 0.146286
H5    H     H_    0.102154 0.369224 0.410781 0.217999
H6    H     H_    0.876935 0.592874 0.612851 0.222279
H7    H     H_    0.845909 0.720246 0.877611 0.161035
H8    H     H_    0.409974 0.444288 0.165117 0.162883
H9    H     H_    0.151342 0.415073 0.785749 0.146499
H10   H     H_    0.251400 0.457819 0.087515 0.183776
H11   H     H_    0.662774 0.676413 0.769701 0.164266
N1    N     N_2   0.845330 0.551960 0.543750 -0.309745
N2    N     N_2   0.154690 0.448120 0.456210 -0.319014
O1    O     O_R   0.426290 0.668220 0.490680 -0.585405
O2    O     O_R   0.659360 0.703290 0.520190 -0.568039
O3    O     O_R   0.326580 0.473880 0.629020 -0.615166
O4    O     O_R   0.559660 0.508940 0.658530 -0.556852
O5    O     O_R   0.340640 0.296710 0.479810 -0.573920
O6    O     O_R   0.573710 0.331780 0.509320 -0.581359
O7    O     O_R   0.440340 0.491060 0.341470 -0.563565
O8    O     O_R   0.673420 0.526120 0.370980 -0.591168
C25   C     C_2   0.149757 0.633248 0.572746 0.375974
H12   H     H_    0.215227 0.625064 0.626942 0.113252
O9    O     O_2   0.129648 0.736549 0.572479 -0.579350
C26   C     C_2   0.883857 0.430739 0.385972 0.406339
H13   H     H_    0.778401 0.355387 0.385105 0.102381
O10   O     O_2   0.964718 0.454012 0.306431 -0.530185
C27   C     C_1   0.962909 0.703613 0.033063 0.242905
N3    N     N_1   0.085234 0.755336 0.006115 -0.264051
C28   C     C_2   0.028859 0.385537 0.977494 0.380987
H14   H     H_    0.950028 0.359479 0.923824 0.062100
O11   O     O_2   0.984694 0.372717 0.067367 -0.504385
C29   C     C_2   0.560567 0.133452 0.634759 0.431582
H15   H     H_    0.643868 0.104373 0.658539 0.046765
O12   O     O_2   0.525278 0.218650 0.685975 -0.532299

loop_
_geom_bond_atom_site_label_1
_geom_bond_atom_site_label_2
_ccdc_geom_bond_type
Cu1   O3    S    
C2    C4    A    
C23   C24   A    
C6    H7    S    
C13   H2    S    
C6    C7    A    
C18   O5    A    
C14   C18   S    
C9    C20   A    
C1    C11   S    
C17   C25   S    
C4    C8    A    
C25   O9    D    
C2    C3    A    
C7    H11   S    
C19   O7    A    
C23   C28   S    
C3    C10   A    
C8    H8    S    
C10   C22   A    
C22   H9    S    
C11   C13   D    
C9    C21   A    
C24   H10   S    
C10   C12   S    
Cu2   O8    S    
C11   H4    S    
C4    C5    A    
Cu1   O5    S    
C1    O2    A    
C25   H12   S    
C19   C21   S    
C28   O11   D    
Cu2   O4    S    
C8    C21   A    
C12   O4    A    
C3    C7    A    
H6    N1    S    
C13   C15   S    
Cu1   O1    S    
C2    C24   A    
C5    C6    A    
C19   O8    A    
C29   O12   D    
C14   H3    S    
C26   H13   S    
C18   O6    A    
C29   H15   S    
C28   H14   S    
C9    H1    S    
C20   C27   S    
C17   N2    D    
C16   N1    D    
C5    C20   A    
C27   N3    T    
Cu2   N1    S    
C16   C26   S    
C12   O3    A    
C1    O1    A    
C26   O10   D    
Cu1   Cu2   S    
C14   C15   D    
C15   C29   S    
Cu1   O7    S    
C22   C23   A    
Cu1   N2    S    
Cu2   O2    S    
H5    N2    S    
C16   C17   S    
Cu2   O6    S    
