data_mof_unit_46250.cif
_audit_creation_date              2012-12-11T17:01:21-0500
_audit_creation_method            fapswitch 2.2
_symmetry_space_group_name_H-M    P1
_symmetry_Int_Tables_number       1
_space_group_crystal_system       monoclinic
_cell_length_a                    19.36761
_cell_length_b                    7.10876
_cell_length_c                    17.549153
_cell_angle_alpha                 90.0
_cell_angle_beta                  108.490513
_cell_angle_gamma                 90.0
_cell_volume                      2291.43045968

loop_
_atom_site_label
_atom_site_type_symbol
_atom_type_description
_atom_site_fract_x
_atom_site_fract_y
_atom_site_fract_z
_atom_type_partial_charge
O1    O     O_R   0.413720 0.494330 0.415730 -0.535793
O2    O     O_R   0.586280 0.994330 0.584270 -0.535792
O3    O     O_R   0.560210 0.819300 0.430070 -0.542971
O4    O     O_R   0.439790 0.319300 0.569930 -0.542971
C1    C     C_R   0.580956 0.655285 0.414047 0.710515
C2    C     C_R   0.419044 0.155285 0.585953 0.710515
O5    O     O_R   0.412670 0.823730 0.406310 -0.543055
O6    O     O_R   0.587330 0.323730 0.593690 -0.543055
O7    O     O_R   0.437690 0.998790 0.560340 -0.536825
O8    O     O_R   0.562310 0.498790 0.439660 -0.536825
C3    C     C_R   0.385499 0.655142 0.383318 0.690074
C4    C     C_R   0.614501 0.155142 0.616682 0.690073
O9    O     O_3   0.508380 0.662350 0.550560 -0.374131
O10   O     O_3   0.491620 0.162350 0.449440 -0.374131
V1    V     V_3+5 0.498450 0.935370 0.490620 1.390572
V2    V     V_3+5 0.501550 0.435370 0.509380 1.390572
C5    C     C_R   0.730684 0.990439 0.693715 0.105238
C6    C     C_R   0.269316 0.490439 0.306285 0.105238
C7    C     C_R   0.684509 0.146796 0.683166 -0.108923
C8    C     C_R   0.315491 0.646796 0.316834 -0.108923
C9    C     C_R   0.708980 0.299550 0.735998 -0.181476
C10   C     C_R   0.291020 0.799550 0.264002 -0.181476
H1    H     H_    0.675662 0.423985 0.730072 0.141259
H2    H     H_    0.324338 0.923985 0.269928 0.141259
C11   C     C_R   0.774544 0.288437 0.800390 -0.163071
C12   C     C_R   0.225456 0.788437 0.199610 -0.163071
H3    H     H_    0.789718 0.405452 0.841738 0.135856
H4    H     H_    0.210282 0.905452 0.158262 0.135856
C13   C     C_R   0.817531 0.123829 0.814148 -0.103316
C14   C     C_R   0.182469 0.623829 0.185852 -0.103316
C15   C     C_R   0.795361 0.979052 0.757540 0.101853
C16   C     C_R   0.204639 0.479052 0.242460 0.101853
C17   C     C_3   0.784718 0.774991 0.769777 -0.414694
C18   C     C_3   0.215282 0.274991 0.230223 -0.414695
C19   C     C_3   0.714285 0.787310 0.699994 -0.400174
C20   C     C_3   0.285715 0.287310 0.300005 -0.400174
H5    H     H_    0.776015 0.746265 0.828351 0.177359
H6    H     H_    0.223985 0.246265 0.171649 0.177359
H7    H     H_    0.826800 0.686473 0.756463 0.173426
H8    H     H_    0.173200 0.186473 0.243537 0.173426
H9    H     H_    0.664792 0.765296 0.718082 0.176953
H10   H     H_    0.335208 0.265296 0.281918 0.176953
H11   H     H_    0.715792 0.706199 0.646378 0.168710
H12   H     H_    0.284208 0.206199 0.353621 0.168710
C21   C     C_R   0.315292 0.280958 0.625325 -0.236348
C22   C     C_R   0.684708 0.780957 0.374675 -0.236347
C23   C     C_R   0.370856 0.147765 0.636433 -0.084471
C24   C     C_R   0.629144 0.647765 0.363567 -0.084471
C25   C     C_R   0.381382 0.011545 0.696964 -0.208099
C26   C     C_R   0.618618 0.511545 0.303036 -0.208100
C27   C     C_R   0.335954 0.004653 0.746168 0.011702
C28   C     C_R   0.664046 0.504653 0.253832 0.011701
C29   C     C_R   0.279028 0.137848 0.733051 0.049093
C30   C     C_R   0.720972 0.637848 0.266949 0.049092
C31   C     C_R   0.269685 0.277897 0.673297 0.116727
C32   C     C_R   0.730315 0.777896 0.326703 0.116727
C33   C     C_R   0.346532 0.870475 0.808737 -0.066307
C34   C     C_R   0.653467 0.370476 0.191263 -0.066307
C35   C     C_R   0.296519 0.859465 0.852474 0.217007
C36   C     C_R   0.703481 0.359466 0.147526 0.217007
C37   C     C_R   0.238768 0.990596 0.838061 0.026646
C38   C     C_R   0.761232 0.490596 0.161939 0.026646
C39   C     C_R   0.231660 0.133282 0.779945 0.016058
C40   C     C_R   0.768340 0.633282 0.220054 0.016058
C41   C     C_R   0.176610 0.271677 0.768108 0.140279
C42   C     C_R   0.823390 0.771677 0.231892 0.140278
C43   C     C_R   0.169640 0.412603 0.710306 -0.160185
C44   C     C_R   0.830360 0.912603 0.289694 -0.160185
C45   C     C_R   0.215398 0.414858 0.662925 -0.196066
C46   C     C_R   0.784602 0.914857 0.337075 -0.196067
C47   C     C_R   0.188191 0.984604 0.880940 -0.160015
C48   C     C_R   0.811809 0.484604 0.119060 -0.160014
C49   C     C_R   0.133512 0.121762 0.869180 -0.096191
C50   C     C_R   0.866488 0.621762 0.130820 -0.096191
C51   C     C_R   0.128938 0.266771 0.813765 -0.181075
C52   C     C_R   0.871062 0.766771 0.186235 -0.181076
H13   H     H_    0.307702 0.387762 0.579241 0.118037
H14   H     H_    0.692298 0.887761 0.420759 0.118038
H15   H     H_    0.425883 0.913348 0.705666 0.128658
H16   H     H_    0.574117 0.413348 0.294334 0.128658
H17   H     H_    0.191486 0.876246 0.925177 0.172211
H18   H     H_    0.808514 0.376247 0.074822 0.172211
H19   H     H_    0.086955 0.373144 0.804711 0.118913
H20   H     H_    0.913045 0.873143 0.195289 0.118913
H21   H     H_    0.128139 0.520171 0.701081 0.121024
H22   H     H_    0.871862 0.020170 0.298919 0.121024
H23   H     H_    0.208445 0.524401 0.618165 0.122837
H24   H     H_    0.791555 0.024400 0.381835 0.122837
O11   O     O_R   0.937800 0.775460 0.060470 -0.531364
O12   O     O_R   0.062200 0.275460 0.939530 -0.531364
O13   O     O_R   0.087350 0.441340 0.093710 -0.538019
O14   O     O_R   0.912650 0.941340 0.906290 -0.538019
C53   C     C_R   0.114945 0.610303 0.116124 0.700312
C54   C     C_R   0.885055 0.110303 0.883876 0.700313
O15   O     O_R   0.939820 0.446010 0.069950 -0.543076
O16   O     O_R   0.060180 0.946010 0.930050 -0.543077
O17   O     O_R   0.913690 0.271230 0.915700 -0.542314
O18   O     O_R   0.086310 0.771230 0.084300 -0.542314
C55   C     C_R   0.917946 0.614212 0.083990 0.700211
C56   C     C_R   0.082054 0.114212 0.916010 0.700211
O19   O     O_3   0.991670 0.603050 0.949510 -0.374505
O20   O     O_3   0.008330 0.103050 0.050490 -0.374506
V3    V     V_3+5 0.001550 0.329940 0.009370 1.416699
V4    V     V_3+5 0.998450 0.829940 0.990630 1.416699
Br1   Br    Br    0.307907 0.661312 0.931324 -0.621431
Br2   Br    Br    0.692092 0.161314 0.068675 -0.621430
C57   C     C_R   0.411450 0.746273 0.831791 0.134103
C58   C     C_R   0.468853 0.781287 0.902850 -0.070008
C59   C     C_R   0.529591 0.662685 0.925554 -0.108920
C60   C     C_R   0.533404 0.508741 0.877468 -0.115322
C61   C     C_R   0.476674 0.473941 0.806395 -0.113453
C62   C     C_R   0.415897 0.592449 0.783590 -0.102899
H25   H     H_    0.466358 0.899889 0.940580 0.131254
H26   H     H_    0.573602 0.689851 0.980499 0.148462
H27   H     H_    0.580384 0.416851 0.895151 0.149100
H28   H     H_    0.479949 0.355569 0.768942 0.118832
H29   H     H_    0.372610 0.566673 0.728215 0.124522
C63   C     C_R   0.588549 0.246275 0.168208 0.134102
C64   C     C_R   0.531146 0.281291 0.097150 -0.070009
C65   C     C_R   0.470408 0.162689 0.074446 -0.108920
C66   C     C_R   0.466596 0.008742 0.122531 -0.115324
C67   C     C_R   0.523327 0.973939 0.193603 -0.113453
C68   C     C_R   0.584103 0.092448 0.216408 -0.102897
H30   H     H_    0.533640 0.399895 0.059421 0.131253
H31   H     H_    0.426397 0.189856 0.019502 0.148463
H32   H     H_    0.419615 0.916853 0.104847 0.149099
H33   H     H_    0.520052 0.855565 0.231056 0.118832
H34   H     H_    0.627390 0.066670 0.271783 0.124523

loop_
_geom_bond_atom_site_label_1
_geom_bond_atom_site_label_2
_ccdc_geom_bond_type
C49   C56   S    
C42   C44   A    
C39   C41   A    
C44   H22   S    
C57   C62   A    
C20   H10   S    
C61   C62   A    
O1    C3    A    
C46   H24   S    
C52   H20   S    
C2    O7    A    
O3    V1    S    
C23   C25   A    
C64   H30   S    
O5    C3    A    
C35   Br1   S    
C50   C52   A    
O11   C55   A    
C18   H8    S    
C7    C9    A    
C14   C53   S    
C62   H29   S    
O15   C55   A    
C33   C35   A    
C34   C36   A    
C34   C63   S    
C58   C59   A    
C36   C38   A    
C21   C23   A    
C67   H33   S    
C37   C39   A    
C63   C64   A    
C38   C40   A    
C17   C19   S    
C60   C61   A    
C28   C30   A    
C41   C43   A    
C26   C28   A    
C57   C58   A    
C15   C17   S    
C61   H28   S    
C27   C33   A    
C19   H11   S    
C18   C20   S    
C45   H23   S    
C37   C47   A    
C24   C26   A    
O2    C4    A    
O6    V2    S    
C49   C51   A    
O12   C56   A    
O15   V3    S    
C22   C24   A    
C29   C31   A    
C11   C13   A    
C3    C8    S    
C1    C24   S    
C30   C32   A    
O17   V3    S    
C43   H21   S    
C35   C37   A    
C2    C23   S    
C48   C50   A    
C22   H14   S    
C65   H31   S    
C54   O17   A    
C25   C27   A    
C17   H5    S    
C25   H15   S    
C43   C45   A    
C40   C42   A    
C58   H25   S    
O4    V2    S    
O13   C53   A    
O6    C4    A    
C42   C52   A    
O14   C54   A    
C38   C48   A    
O1    V2    S    
C17   H7    S    
O20   V4    S    
O2    V1    S    
C66   C67   A    
C31   C45   A    
C28   C34   A    
C59   H26   S    
O4    C2    A    
C33   C57   S    
C8    C10   A    
C12   C14   A    
O19   V4    S    
C32   C46   A    
O16   V4    S    
O11   V4    S    
C5    C15   A    
C10   H2    S    
C20   H12   S    
C6    C16   A    
C36   Br2   S    
C65   C66   A    
C47   C49   A    
C9    C11   A    
C18   H6    S    
O13   V3    S    
O3    C1    A    
C26   H16   S    
C64   C65   A    
C50   C55   S    
C11   H3    S    
C12   H4    S    
C41   C51   A    
C53   O18   A    
C9    H1    S    
O7    V1    S    
C66   H32   S    
C13   C15   A    
O8    V2    S    
C59   C60   A    
C14   C16   A    
C29   C39   A    
C51   H19   S    
C68   H34   S    
C13   C54   S    
C30   C40   A    
O18   V4    S    
O16   C56   A    
C4    C7    S    
O5    V1    S    
C5    C7    A    
C6    C8    A    
C63   C68   A    
O20   V3    S    
C19   H9    S    
O12   V3    S    
O14   V4    S    
C1    O8    A    
C21   C31   A    
O19   V3    S    
C10   C12   A    
O9    V2    S    
C22   C32   A    
C44   C46   A    
O10   V1    S    
C21   H13   S    
C5    C19   S    
C27   C29   A    
C67   C68   A    
C6    C20   S    
C60   H27   S    
C48   H18   S    
C16   C18   S    
C47   H17   S    
