data_mof_unit_49229.cif
_audit_creation_date              2012-12-11T14:08:40-0500
_audit_creation_method            fapswitch 2.2
_symmetry_space_group_name_H-M    P1
_symmetry_Int_Tables_number       1
_space_group_crystal_system       monoclinic
_cell_length_a                    27.862579
_cell_length_b                    7.221425
_cell_length_c                    17.309491
_cell_angle_alpha                 90.0
_cell_angle_beta                  100.052467
_cell_angle_gamma                 90.0
_cell_volume                      3429.33303015

loop_
_atom_site_label
_atom_site_type_symbol
_atom_type_description
_atom_site_fract_x
_atom_site_fract_y
_atom_site_fract_z
_atom_type_partial_charge
O1    O     O_R   0.000700 0.436510 0.857920 -0.529574
O2    O     O_R   0.999300 0.563490 0.142080 -0.526262
O3    O     O_R   0.999300 0.936510 0.642080 -0.529575
O4    O     O_R   0.000700 0.063490 0.357920 -0.526263
O5    O     O_R   0.930080 0.766380 0.721890 -0.540645
O6    O     O_R   0.069920 0.233620 0.278110 -0.539138
O7    O     O_R   0.069920 0.266380 0.778110 -0.540645
O8    O     O_R   0.930080 0.733620 0.221890 -0.539138
C1    C     C_R   0.910412 0.597257 0.711628 0.758492
C2    C     C_R   0.089447 0.402585 0.290578 0.754344
C3    C     C_R   0.089588 0.097257 0.788372 0.758492
C4    C     C_R   0.910553 0.902585 0.209422 0.754343
O9    O     O_R   0.996180 0.766230 0.862310 -0.533622
O10   O     O_R   0.003820 0.233770 0.137690 -0.532575
O11   O     O_R   0.003820 0.266230 0.637690 -0.533622
O12   O     O_R   0.996180 0.733770 0.362310 -0.532574
O13   O     O_R   0.065870 0.936460 0.783500 -0.506778
O14   O     O_R   0.934130 0.063540 0.216500 -0.511835
O15   O     O_R   0.934130 0.436460 0.716500 -0.506778
O16   O     O_R   0.065870 0.563540 0.283500 -0.511834
C5    C     C_R   0.999122 0.596238 0.894411 0.657296
C6    C     C_R   0.000888 0.403846 0.105603 0.681901
C7    C     C_R   0.000878 0.096238 0.605589 0.657296
C8    C     C_R   0.999112 0.903846 0.394397 0.681900
O17   O     O_3   0.022790 0.603020 0.723980 -0.368244
O18   O     O_3   0.977210 0.396980 0.276020 -0.366129
O19   O     O_3   0.977210 0.103020 0.776020 -0.368243
O20   O     O_3   0.022790 0.896980 0.223980 -0.366127
V1    V     V_3+5 0.995770 0.877900 0.754830 1.529857
V2    V     V_3+5 0.004230 0.122100 0.245170 1.522838
V3    V     V_3+5 0.004230 0.377900 0.745170 1.529856
V4    V     V_3+5 0.995770 0.622100 0.254830 1.522839
C9    C     C_2   0.996201 0.082686 0.518412 0.139862
C10   C     C_2   0.003591 0.918067 0.481236 0.144347
C11   C     C_2   0.003799 0.582686 0.981588 0.139859
C12   C     C_2   0.996409 0.418067 0.018763 0.144348
C13   C     C_R   0.687315 0.951184 0.021374 0.695119
C14   C     C_R   0.315702 0.044312 0.947575 0.674495
C15   C     C_R   0.312685 0.451184 0.478625 0.695118
C16   C     C_R   0.684298 0.544312 0.552425 0.674496
O21   O     O_2   0.720016 0.939984 0.972519 -0.446704
O22   O     O_2   0.283454 0.048071 0.997392 -0.453106
O23   O     O_2   0.279984 0.439985 0.527480 -0.446703
O24   O     O_2   0.716546 0.548071 0.502608 -0.453106
N1    N     N_R   0.703343 0.946146 0.100546 -0.552045
N2    N     N_R   0.298983 0.053869 0.868710 -0.555311
N3    N     N_R   0.296657 0.446146 0.399452 -0.552046
N4    N     N_R   0.701017 0.553869 0.631290 -0.555311
C17   C     C_R   0.671573 0.959338 0.152236 0.739272
C18   C     C_R   0.330399 0.047584 0.816091 0.763783
C19   C     C_R   0.328427 0.459338 0.347763 0.739273
C20   C     C_R   0.669601 0.547584 0.683908 0.763782
C21   C     C_R   0.781240 0.093208 0.157382 0.609050
C22   C     C_R   0.219787 0.910595 0.814637 0.612688
C23   C     C_R   0.218760 0.593208 0.342616 0.609049
C24   C     C_R   0.780213 0.410595 0.685362 0.612690
C25   C     C_R   0.831545 0.083920 0.183995 0.474858
C26   C     C_R   0.168788 0.919072 0.796893 0.484254
C27   C     C_R   0.168455 0.583920 0.316004 0.474856
C28   C     C_R   0.831212 0.419071 0.703106 0.484255
C29   C     C_R   0.829688 0.753872 0.157228 -0.242984
C30   C     C_R   0.171794 0.244677 0.831801 -0.235484
C31   C     C_R   0.170312 0.253872 0.342772 -0.242982
C32   C     C_R   0.828206 0.744677 0.668200 -0.235486
C33   C     C_R   0.779373 0.764380 0.130236 -0.130197
C34   C     C_R   0.222735 0.235202 0.849637 -0.113098
C35   C     C_R   0.220627 0.264381 0.369763 -0.130196
C36   C     C_R   0.777265 0.735202 0.650363 -0.113100
C37   C     C_R   0.754943 0.934038 0.130037 0.144151
C38   C     C_R   0.247049 0.068045 0.841672 0.148298
C39   C     C_R   0.245057 0.434038 0.369962 0.144150
C40   C     C_R   0.752951 0.568045 0.658328 0.148298
C41   C     C_R   0.603430 0.981158 0.042872 -0.203647
C42   C     C_R   0.399453 0.026630 0.924257 -0.198529
C43   C     C_R   0.396570 0.481158 0.457127 -0.203647
C44   C     C_R   0.600547 0.526630 0.575743 -0.198529
C45   C     C_R   0.637182 0.969178 0.990851 -0.177768
C46   C     C_R   0.365971 0.030132 0.976951 -0.152989
C47   C     C_R   0.362818 0.469178 0.509149 -0.177767
C48   C     C_R   0.634028 0.530132 0.523049 -0.152989
C49   C     C_R   0.620102 0.976590 0.909782 0.702319
C50   C     C_R   0.383414 0.018861 0.057763 0.663363
C51   C     C_R   0.379898 0.476590 0.590217 0.702318
C52   C     C_R   0.616586 0.518861 0.442237 0.663363
C53   C     C_R   0.620824 0.979339 0.124834 -0.101115
C54   C     C_R   0.381611 0.034379 0.842477 -0.108105
C55   C     C_R   0.379176 0.479339 0.375165 -0.101115
C56   C     C_R   0.618388 0.534380 0.657522 -0.108104
C57   C     C_R   0.856661 0.913498 0.183978 -0.280575
C58   C     C_R   0.143932 0.086407 0.806237 -0.280220
C59   C     C_R   0.143339 0.413498 0.316021 -0.280576
C60   C     C_R   0.856068 0.586407 0.693763 -0.280219
H1    H     H_    0.847543 0.621063 0.155785 0.231300
H2    H     H_    0.154224 0.375492 0.839518 0.217928
H3    H     H_    0.152457 0.121064 0.344215 0.231299
H4    H     H_    0.845776 0.875492 0.660484 0.217929
H5    H     H_    0.759369 0.640687 0.108995 0.221608
H6    H     H_    0.243353 0.357273 0.871308 0.211215
H7    H     H_    0.240631 0.140688 0.391004 0.221607
H8    H     H_    0.756647 0.857273 0.628693 0.211216
C61   C     C_R   0.484206 0.013632 0.900994 0.045376
C62   C     C_R   0.518927 0.007576 0.065322 0.036068
C63   C     C_R   0.515794 0.513633 0.599005 0.045376
C64   C     C_R   0.481073 0.507577 0.434677 0.036067
C65   C     C_R   0.467813 0.011791 0.035855 -0.016085
C66   C     C_R   0.535446 0.001605 0.930565 -0.028887
C67   C     C_R   0.532187 0.511792 0.464144 -0.016085
C68   C     C_R   0.464554 0.501606 0.569434 -0.028887
C69   C     C_R   0.450631 0.015906 0.953686 0.077961
C70   C     C_R   0.552432 0.995719 0.012838 0.063894
C71   C     C_R   0.549369 0.515906 0.546313 0.077961
C72   C     C_R   0.447568 0.495719 0.487162 0.063894
C73   C     C_R   0.465465 0.027557 0.820087 -0.332097
C74   C     C_R   0.537664 0.020665 0.146170 -0.306097
C75   C     C_R   0.534535 0.527557 0.679912 -0.332096
C76   C     C_R   0.462336 0.520666 0.353830 -0.306097
C77   C     C_R   0.415108 0.029902 0.789717 0.484680
C78   C     C_R   0.587475 0.999996 0.177018 0.478040
C79   C     C_R   0.584892 0.529902 0.710283 0.484680
C80   C     C_R   0.412525 0.499997 0.322981 0.478040
O25   O     O_2   0.311991 0.054952 0.738755 -0.425088
O26   O     O_2   0.689273 0.951774 0.229852 -0.441585
O27   O     O_2   0.688009 0.554952 0.761245 -0.425088
O28   O     O_2   0.310727 0.451774 0.270147 -0.441585
C81   C     C_R   0.570616 0.993497 0.880607 -0.339824
C82   C     C_R   0.432999 0.010420 0.086245 -0.332514
C83   C     C_R   0.429384 0.493497 0.619392 -0.339824
C84   C     C_R   0.567002 0.510421 0.413755 -0.332514
H9    H     H_    0.489513 0.042744 0.778728 0.126607
H10   H     H_    0.514269 0.054402 0.186976 0.128226
H11   H     H_    0.510486 0.542744 0.721271 0.126607
H12   H     H_    0.485731 0.554402 0.313024 0.128226
H13   H     H_    0.561341 0.992188 0.817653 0.160710
H14   H     H_    0.442500 0.998461 0.148963 0.151408
H15   H     H_    0.438658 0.492188 0.682346 0.160710
H16   H     H_    0.557500 0.498461 0.351037 0.151408
O29   O     O_3   0.985799 0.244042 0.474796 -0.563299
C85   C     C_3   0.937488 0.303893 0.476344 0.112994
H17   H     H_    0.935960 0.454844 0.463686 0.163407
H18   H     H_    0.926311 0.287029 0.534665 0.101835
C86   C     C_3   0.900975 0.205307 0.413089 -0.382843
H19   H     H_    0.911688 0.226643 0.354935 0.263120
H20   H     H_    0.901181 0.054280 0.425399 0.165061
C87   C     C_3   0.849390 0.279224 0.410274 -0.638920
H21   H     H_    0.837577 0.258016 0.467712 0.222432
H22   H     H_    0.823855 0.204225 0.364376 0.268378
H23   H     H_    0.847855 0.429206 0.395769 0.238224
O30   O     O_3   0.015294 0.756237 0.523663 -0.568739
C88   C     C_3   0.066455 0.745575 0.549220 0.131105
H24   H     H_    0.072765 0.682417 0.608608 0.193438
H25   H     H_    0.085029 0.883287 0.555664 0.077976
C89   C     C_3   0.089980 0.621256 0.494570 -0.381972
H26   H     H_    0.069922 0.487753 0.485548 0.230948
H27   H     H_    0.088115 0.690371 0.436855 0.209197
C90   C     C_3   0.143353 0.582402 0.528570 -0.687935
H28   H     H_    0.164409 0.713752 0.535991 0.254150
H29   H     H_    0.159308 0.490944 0.488178 0.228612
H30   H     H_    0.146463 0.511815 0.586258 0.255207
O31   O     O_3   0.014201 0.744042 0.025204 -0.563300
C91   C     C_3   0.062512 0.803894 0.023656 0.112994
H31   H     H_    0.064040 0.954844 0.036316 0.163408
H32   H     H_    0.073688 0.787036 0.965334 0.101837
C92   C     C_3   0.099026 0.705304 0.086909 -0.382851
H33   H     H_    0.088313 0.726632 0.145064 0.263120
H34   H     H_    0.098820 0.554278 0.074596 0.165061
C93   C     C_3   0.150610 0.779224 0.089724 -0.638919
H35   H     H_    0.162423 0.758022 0.032287 0.222432
H36   H     H_    0.176145 0.704225 0.135623 0.268379
H37   H     H_    0.152144 0.929206 0.104231 0.238225
O32   O     O_3   0.984705 0.256238 0.976337 -0.568738
C94   C     C_3   0.933544 0.245577 0.950781 0.131098
H38   H     H_    0.927233 0.182435 0.891390 0.193438
H39   H     H_    0.914970 0.383289 0.944344 0.077975
C95   C     C_3   0.910020 0.121241 0.005427 -0.381967
H40   H     H_    0.930079 0.987737 0.014440 0.230949
H41   H     H_    0.911887 0.190339 0.063146 0.209201
C96   C     C_3   0.856647 0.082397 0.971429 -0.687948
H42   H     H_    0.835591 0.213747 0.964017 0.254149
H43   H     H_    0.840693 0.990923 0.011817 0.228615
H44   H     H_    0.853535 0.011830 0.913736 0.255214
F1    F     F_    0.650984 0.965864 0.857270 -0.585369
F2    F     F_    0.352727 0.015356 0.110736 -0.606714
F3    F     F_    0.349016 0.465865 0.642729 -0.585369
F4    F     F_    0.647273 0.515355 0.389263 -0.606715
F5    F     F_    0.144072 0.763160 0.770246 -0.666828
F6    F     F_    0.855277 0.242517 0.209553 -0.673910
F7    F     F_    0.855928 0.263159 0.729753 -0.666829
F8    F     F_    0.144723 0.742516 0.290445 -0.673909
F9    F     F_    0.242726 0.747271 0.807533 -0.628603
F10   F     F_    0.757987 0.258391 0.157209 -0.640872
F11   F     F_    0.757274 0.247271 0.692466 -0.628605
F12   F     F_    0.242013 0.758391 0.342789 -0.640871
O33   O     O_3   0.397825 0.047209 0.709284 -0.522482
C97   C     C_3   0.424075 0.939482 0.662085 0.160907
H45   H     H_    0.397085 0.865832 0.617954 0.164062
H46   H     H_    0.447343 0.830179 0.695055 0.091164
C98   C     C_3   0.453794 0.067242 0.617980 -0.339357
H47   H     H_    0.428478 0.137278 0.570351 0.211223
H48   H     H_    0.472825 0.172128 0.658937 0.208966
C99   C     C_3   0.492133 0.966405 0.581512 -0.823512
H49   H     H_    0.518087 0.894115 0.627536 0.246663
H50   H     H_    0.512993 0.068579 0.552654 0.244213
H51   H     H_    0.474381 0.867652 0.536494 0.246417
O34   O     O_3   0.605029 0.021197 0.257108 -0.521912
C100  C     C_3   0.576090 0.929787 0.305126 0.174810
H52   H     H_    0.601069 0.852736 0.350915 0.182946
H53   H     H_    0.551031 0.823181 0.273518 0.081782
C101  C     C_3   0.548784 0.073229 0.346432 -0.334775
H54   H     H_    0.574307 0.131942 0.396960 0.219050
H55   H     H_    0.535551 0.188518 0.305890 0.198687
C102  C     C_3   0.505272 0.989013 0.376020 -0.845284
H56   H     H_    0.479246 0.928276 0.326586 0.241830
H57   H     H_    0.486051 0.098153 0.403947 0.249279
H58   H     H_    0.517903 0.880717 0.420172 0.248495
O35   O     O_3   0.602175 0.547209 0.790715 -0.522482
C103  C     C_3   0.575925 0.439482 0.837914 0.160907
H59   H     H_    0.602914 0.365832 0.882046 0.164062
H60   H     H_    0.552657 0.330179 0.804944 0.091164
C104  C     C_3   0.546206 0.567242 0.882020 -0.339357
H61   H     H_    0.571522 0.637278 0.929649 0.211223
H62   H     H_    0.527175 0.672128 0.841062 0.208966
C105  C     C_3   0.507866 0.466405 0.918488 -0.823512
H63   H     H_    0.481913 0.394115 0.872463 0.246663
H64   H     H_    0.487007 0.568579 0.947345 0.244213
H65   H     H_    0.525619 0.367652 0.963505 0.246417
O36   O     O_3   0.394971 0.521197 0.242891 -0.521912
C106  C     C_3   0.423910 0.429787 0.194873 0.174811
H66   H     H_    0.398931 0.352736 0.149084 0.182946
H67   H     H_    0.448969 0.323181 0.226481 0.081782
C107  C     C_3   0.451216 0.573229 0.153567 -0.334775
H68   H     H_    0.425693 0.631942 0.103040 0.219050
H69   H     H_    0.464449 0.688519 0.194110 0.198687
C108  C     C_3   0.494728 0.489012 0.123980 -0.845285
H70   H     H_    0.520755 0.428276 0.173414 0.241830
H71   H     H_    0.513949 0.598153 0.096053 0.249280
H72   H     H_    0.482097 0.380716 0.079828 0.248496

loop_
_geom_bond_atom_site_label_1
_geom_bond_atom_site_label_2
_ccdc_geom_bond_type
C52   C84   A    
C97   H46   S    
C94   H38   S    
O1    C5    A    
C22   F9    S    
C23   C27   A    
C90   H29   S    
O13   V1    S    
O3    C7    A    
C11   C12   D    
C103  C104  S    
C49   F1    S    
C48   C52   A    
O4    V2    S    
C21   C37   A    
C42   C69   A    
C50   F2    S    
C88   H24   S    
C41   C70   A    
C75   H11   S    
C100  H52   S    
C79   O35   S    
C94   H39   S    
C66   C81   A    
C43   C72   A    
C25   C57   A    
C65   C82   A    
C62   C65   A    
C32   C36   A    
C63   C71   A    
C92   H34   S    
C83   H15   S    
C67   C84   A    
C14   O22   S    
N4    C20   A    
C86   H20   S    
O31   C91   S    
C22   C26   A    
O4    C8    A    
C20   O27   S    
C29   H1    S    
C97   C98   S    
O19   V1    S    
O32   C94   S    
C61   C69   A    
C31   H3    S    
O1    V3    S    
C61   C73   A    
C107  C108  S    
O2    V4    S    
O3    V1    S    
C16   N4    A    
C95   H40   S    
C50   C82   A    
C66   C70   A    
C64   C76   A    
C10   O30   S    
C1    O15   A    
C3    O13   A    
C102  H56   S    
C2    O16   A    
C99   H49   S    
C24   C40   A    
C22   C38   A    
O2    C6    A    
C16   C48   A    
C63   C68   A    
O14   V2    S    
N1    C17   A    
C21   F10   S    
C44   C56   A    
O8    C4    A    
O11   C7    A    
C97   H45   S    
C24   F11   S    
O15   V3    S    
O12   C8    A    
C26   F5    S    
C93   H36   S    
C19   O28   S    
C74   H10   S    
C88   H25   S    
C31   C59   A    
C53   C78   A    
C18   O25   S    
N4    C40   S    
C87   H23   S    
C1    C60   S    
C29   C57   A    
O5    V1    S    
C28   C60   A    
C94   C95   S    
C31   C35   A    
O7    V3    S    
C30   C34   A    
N1    C37   S    
O8    V4    S    
C91   C92   S    
C17   C53   A    
C4    C57   S    
C52   F4    S    
C92   C93   S    
C77   O33   S    
C103  H59   S    
C32   H4    S    
C87   H22   S    
C88   C89   S    
C9    O29   S    
C104  H61   S    
C64   C72   A    
C21   C25   A    
O18   V4    S    
C101  H54   S    
C15   O23   S    
C14   C46   A    
C105  H65   S    
C7    C9    S    
C105  H64   S    
O10   V2    S    
C13   C45   A    
C8    C10   S    
C68   C72   A    
O9    V1    S    
C15   C47   A    
C98   C99   S    
O7    C3    A    
O35   C103  S    
C36   H8    S    
O5    C1    A    
C63   C75   A    
C62   C74   A    
C104  H62   S    
C26   C58   A    
C46   C50   A    
C106  H66   S    
C76   H12   S    
C89   C90   S    
C45   C49   A    
C36   C40   A    
C96   H44   S    
N3    C39   S    
C106  C107  S    
C9    C10   D    
O9    C5    A    
C27   F8    S    
C27   C59   A    
O30   C88   S    
C56   C79   A    
C107  H69   S    
C108  H71   S    
C95   C96   S    
C41   C53   A    
C25   F6    S    
C74   C78   A    
C85   H18   S    
C96   H42   S    
C73   C77   A    
C55   C80   A    
O6    V2    S    
C84   H16   S    
C89   H27   S    
C2    C59   S    
O36   C106  S    
C28   F7    S    
C75   C79   A    
C30   H2    S    
C101  C102  S    
C93   H35   S    
C86   C87   S    
O12   V4    S    
C32   C60   A    
C19   C55   A    
C80   O36   S    
N2    C38   S    
C15   N3    A    
O16   V4    S    
C100  C101  S    
C81   H13   S    
C61   C66   A    
C102  H57   S    
C65   C69   A    
C51   F3    S    
C49   C81   A    
C67   C71   A    
O17   V3    S    
C78   O34   S    
C44   C48   A    
C51   C83   A    
C87   H21   S    
C85   C86   S    
O6    C2    A    
N3    C19   A    
O11   V3    S    
C5    C11   S    
C35   H7    S    
C42   C54   A    
C6    C12   S    
O29   C85   S    
N2    C18   A    
C12   O32   S    
C99   H51   S    
C101  H55   S    
C23   F12   S    
O10   C6    A    
C98   H48   S    
C33   H5    S    
C107  H68   S    
C106  H67   S    
C86   H19   S    
C91   H31   S    
C104  C105  S    
C47   C51   A    
C3    C58   S    
C34   H6    S    
C34   C38   A    
C43   C47   A    
C20   C56   A    
C44   C71   A    
C33   C37   A    
C17   O26   S    
C30   C58   A    
O20   V2    S    
C95   H41   S    
C96   H43   S    
C54   C77   A    
C35   C39   A    
C68   C83   A    
C13   O21   S    
C98   H47   S    
C76   C80   A    
C108  H72   S    
C11   O31   S    
C14   N2    A    
C92   H33   S    
C62   C70   A    
C85   H17   S    
C18   C54   A    
C29   C33   A    
C16   O24   S    
C102  H58   S    
C24   C28   A    
O34   C100  S    
C82   H14   S    
C93   H37   S    
C99   H50   S    
O33   C97   S    
C42   C46   A    
C4    O14   A    
C90   H28   S    
C41   C45   A    
C89   H26   S    
C73   H9    S    
C100  H53   S    
C13   N1    A    
C105  H63   S    
C64   C67   A    
C23   C39   A    
C43   C55   A    
C103  H60   S    
C108  H70   S    
C91   H32   S    
C90   H30   S    
