data_mof_unit_67099.cif
_audit_creation_date              2013-03-05T15:58:39-0500
_audit_creation_method            fapswitch 2.2
_symmetry_space_group_name_H-M    P1
_symmetry_Int_Tables_number       1
_space_group_crystal_system       triclinic
_cell_length_a                    8.596276
_cell_length_b                    13.54712
_cell_length_c                    15.134362
_cell_angle_alpha                 97.673541
_cell_angle_beta                  97.554612
_cell_angle_gamma                 98.364687
_cell_volume                      1707.51795885

loop_
_atom_site_label
_atom_site_type_symbol
_atom_site_description
_atom_site_fract_x
_atom_site_fract_y
_atom_site_fract_z
_atom_type_partial_charge
P1    P     P_3+3 0.998770 0.403620 0.291990 0.423671
O1    O     O_2   0.827930 0.435360 0.277760 -0.378443
O2    O     O_3   0.100310 0.439010 0.391180 -0.417191
O3    O     O_3   0.625610 0.634200 0.333270 -0.371294
O4    O     O_2   0.681540 0.532224 0.179388 -0.418347
O5    O     O_3   0.969466 0.277116 0.249350 -0.615683
O6    O     O_3   0.621594 0.713183 0.171945 -0.554709
C1    C     C_3   0.555478 0.878742 0.168048 -0.485412
H1    H     H_    0.556972 0.951097 0.212759 0.171761
P2    P     P_3+3 0.687370 0.751000 0.571300 0.465561
P3    P     P_3+3 0.131216 0.819948 0.388106 0.392873
O7    O     O_2   0.857120 0.766320 0.543890 -0.343357
O8    O     O_3   0.056570 0.691100 0.379020 -0.376221
O9    O     O_2   0.031726 0.867677 0.454072 -0.409455
O10   O     O_3   0.744407 0.777491 0.687112 -0.578346
O11   O     O_3   0.062304 0.865047 0.288617 -0.568704
C2    C     C_3   0.069441 0.804198 0.205508 0.697801
C3    C     C_3   0.089369 0.877171 0.135777 -0.627152
H2    H     H_    0.983312 0.914716 0.125723 0.231701
C4    C     C_3   0.317175 0.771450 0.674833 0.687846
H3    H     H_    0.329553 0.719029 0.613843 0.051953
C5    C     C_3   0.248277 0.859865 0.642500 -0.970010
H4    H     H_    0.208033 0.905608 0.698646 0.246370
H5    H     H_    0.335528 0.909960 0.614232 0.229246
H6    H     H_    0.144268 0.828110 0.591456 0.292913
Ba1   Ba    Ba6+2 0.843760 0.550230 0.455610 1.505733
C6    C     C_3   0.909217 0.210092 0.302926 0.366141
H7    H     H_    0.780274 0.185470 0.278504 0.115876
C7    C     C_3   0.997976 0.121958 0.283904 -0.443888
H8    H     H_    0.008705 0.109485 0.210915 0.161603
H9    H     H_    0.119769 0.141183 0.321576 0.198213
C8    C     C_3   0.778776 0.692569 0.723398 0.371170
H10   H     H_    0.878174 0.663631 0.694255 0.109232
H11   H     H_    0.671720 0.632735 0.710451 0.097709
C9    C     C_3   0.825481 0.726031 0.825226 -0.413167
H12   H     H_    0.750046 0.780379 0.849843 0.168664
P4    P     P_3+3 0.190950 0.596470 0.708020 0.461777
O12   O     O_2   0.361790 0.564680 0.722290 -0.404769
O13   O     O_3   0.089410 0.561080 0.608830 -0.387778
O14   O     O_3   0.564100 0.365890 0.666740 -0.366492
O15   O     O_3   0.213490 0.727737 0.727488 -0.585812
P5    P     P_3+3 0.072185 0.182445 0.636215 0.403950
O16   O     O_3   0.601940 0.368260 0.453780 -0.414386
O17   O     O_3   0.133140 0.308990 0.620990 -0.379556
O18   O     O_2   0.181516 0.124416 0.582997 -0.406518
O19   O     O_3   0.144436 0.171026 0.749028 -0.538207
Ba2   Ba    Ba6+2 0.346080 0.449860 0.544400 1.506430
P6    P     P_3+3 0.570745 0.602796 0.215045 0.396834
C10   C     C_3   0.572928 0.792882 0.223863 0.451459
H13   H     H_    0.461036 0.768831 0.245245 0.044167
H14   H     H_    0.438836 0.858340 0.124697 0.191101
O20   O     O_3   0.587770 0.631830 0.546230 -0.423613
C11   C     C_3   0.423811 0.253827 0.271871 0.221372
H15   H     H_    0.311204 0.268573 0.294626 0.076166
H16   H     H_    0.512948 0.323281 0.279453 0.098624
C12   C     C_3   0.378614 0.209929 0.171132 -0.177566
H17   H     H_    0.280676 0.146886 0.164266 0.125796
P7    P     P_3+3 0.511514 0.233722 0.437420 0.416784
O21   O     O_2   0.332600 0.233710 0.456170 -0.390207
O22   O     O_3   0.487346 0.185048 0.321714 -0.607771
H18   H     H_    0.100972 0.836024 0.069347 0.174325
C13   C     C_3   0.092342 0.241100 0.812504 0.607515
H19   H     H_    0.985409 0.267950 0.781397 -0.064342
C14   C     C_3   0.041409 0.190364 0.893456 -0.409444
H20   H     H_    0.043259 0.245379 0.954720 0.159843
H21   H     H_    0.915016 0.156959 0.877037 0.156408
P8    P     P_3+3 0.625099 0.392142 0.782505 0.400443
C15   C     C_3   0.601066 0.202766 0.795802 0.631829
H22   H     H_    0.729669 0.221827 0.792653 -0.015445
O23   O     O_2   0.535818 0.476732 0.816832 -0.413533
O24   O     O_3   0.536831 0.288362 0.824512 -0.524940
H23   H     H_    0.663365 0.076388 0.859462 0.250650
C16   C     C_3   0.581557 0.131593 0.865381 -1.164563
H24   H     H_    0.456478 0.093673 0.858453 0.280136
H25   H     H_    0.612616 0.173188 0.934440 0.282110
C17   C     C_R   0.360920 0.544467 0.171867 0.164636
H26   H     H_    0.489982 0.626116 0.037432 0.200548
C18   C     C_R   0.111442 0.468288 0.211398 0.326016
C19   C     C_R   0.937832 0.474122 0.766494 -0.295058
C20   C     C_R   0.841331 0.434426 0.825192 0.150926
C21   C     C_R   0.900658 0.439909 0.917708 -0.123730
C22   C     C_R   0.055037 0.493906 0.956099 0.029543
C23   C     C_R   0.145929 0.544534 0.895413 -0.103765
C24   C     C_R   0.122717 0.501008 0.052448 0.040347
C25   C     C_R   0.285663 0.544319 0.081086 -0.028082
C26   C     C_R   0.367700 0.591378 0.019714 -0.292753
C27   C     C_R   0.294125 0.602031 0.934262 0.222826
C28   C     C_R   0.037317 0.469154 0.122378 -0.346412
C29   C     C_R   0.276348 0.500542 0.234068 -0.332442
C30   C     C_R   0.086428 0.534547 0.798541 0.248858
H27   H     H_    0.911297 0.447482 0.113245 0.209210
C31   C     C_R   0.756258 0.178106 0.550606 -0.485805
C32   C     C_R   0.442626 0.815122 0.470952 -0.484591
C33   C     C_R   0.396321 0.982028 0.447392 -0.058664
C34   C     C_R   0.342761 0.876544 0.436911 0.199161
C35   C     C_R   0.590292 0.854504 0.523465 0.291189
C36   C     C_R   0.646644 0.965060 0.538065 -0.128565
C37   C     C_R   0.547654 0.029435 0.495923 -0.080790
C38   C     C_R   0.604583 0.138628 0.503248 0.300104
C39   C     C_R   0.856320 0.119650 0.591298 0.145686
C40   C     C_R   0.798213 0.014113 0.588878 0.078146
H28   H     H_    0.803647 0.255099 0.547866 0.150411
H29   H     H_    0.399081 0.734690 0.460736 0.173143
N1    N     N_3   0.680075 0.825036 0.307729 -0.155478
H30   H     H_    0.637477 0.884354 0.342953 0.046974
H31   H     H_    0.792626 0.846343 0.293096 0.203682
N2    N     N_3   0.933742 0.249015 0.399937 -0.217576
H32   H     H_    0.866839 0.306117 0.413528 0.143093
H33   H     H_    0.054075 0.272827 0.425338 0.196260
N3    N     N_2   0.918710 0.029824 0.305382 -0.078363
H34   H     H_    0.828303 0.995417 0.255076 0.213791
C41   C     C_3   0.871289 0.038160 0.392809 -0.851863
H35   H     H_    0.852554 0.965677 0.415971 0.280723
H36   H     H_    0.758468 0.067717 0.387902 0.218257
H37   H     H_    0.965066 0.086301 0.443182 0.267533
N4    N     N_3   0.991286 0.775501 0.846664 -0.178421
H38   H     H_    0.011148 0.832453 0.807581 0.181019
H39   H     H_    0.010060 0.810998 0.913667 0.109373
N5    N     N_3   0.801322 0.638377 0.870549 -0.198676
H40   H     H_    0.713288 0.644602 0.910962 0.121135
H41   H     H_    0.904031 0.637339 0.914311 0.155020
N6    N     N_3   0.317182 0.282774 0.119071 -0.215807
H42   H     H_    0.207013 0.294099 0.136888 0.117575
H43   H     H_    0.394459 0.351676 0.135313 0.129960
N7    N     N_2   0.508980 0.171742 0.133459 -0.087628
H44   H     H_    0.550665 0.117289 0.166914 0.206957
C42   C     C_3   0.633431 0.244801 0.112404 -0.865051
H45   H     H_    0.729834 0.206790 0.089048 0.242667
H46   H     H_    0.684005 0.300284 0.172501 0.291388
H47   H     H_    0.585543 0.284947 0.058620 0.245531
N8    N     N_2   0.675565 0.888840 0.109508 -0.068880
H48   H     H_    0.667920 0.824803 0.063311 0.242308
C43   C     C_3   0.685172 0.977741 0.066106 -1.011977
H49   H     H_    0.750407 0.966849 0.008229 0.252089
H50   H     H_    0.751887 0.043585 0.114117 0.265789
H51   H     H_    0.564721 0.991790 0.039890 0.283365
N9    N     N_2   0.215093 0.330012 0.840957 -0.113686
H52   H     H_    0.265417 0.358353 0.789590 0.258701
C44   C     C_3   0.317347 0.345387 0.927589 -0.819746
H53   H     H_    0.407860 0.413556 0.934684 0.274338
H54   H     H_    0.379056 0.281167 0.936655 0.273057
H55   H     H_    0.248602 0.357486 0.982528 0.220809
N10   N     N_2   0.134633 0.112944 0.914598 -0.055032
H56   H     H_    0.251807 0.138352 0.941269 0.227905
C45   C     C_3   0.061755 0.038886 0.963351 -0.965430
H57   H     H_    0.137675 0.979986 0.969404 0.243514
H58   H     H_    0.944260 0.001434 0.925647 0.255260
H59   H     H_    0.048257 0.075086 0.031635 0.261711
N11   N     N_3   0.518114 0.154958 0.706530 -0.148005
H60   H     H_    0.579699 0.098852 0.682723 0.040725
H61   H     H_    0.404492 0.119152 0.711772 0.204100
N12   N     N_2   0.923587 0.732062 0.177657 -0.075890
H62   H     H_    0.906535 0.681471 0.221902 0.251689
C46   C     C_3   0.891887 0.684416 0.084091 -0.954762
H63   H     H_    0.795608 0.618579 0.071914 0.300476
H64   H     H_    0.999055 0.659678 0.062877 0.230087
H65   H     H_    0.855372 0.738934 0.040870 0.234805
N13   N     N_3   0.358741 0.491377 0.321491 -0.133849
H66   H     H_    0.319436 0.421133 0.336638 0.124908
H67   H     H_    0.473064 0.477802 0.316431 0.160692
N14   N     N_3   0.883970 0.452209 0.671746 -0.142980
H68   H     H_    0.852059 0.374493 0.655040 0.116129
H69   H     H_    0.787266 0.488083 0.655002 0.150062
N15   N     N_3   0.803919 0.387210 0.971437 -0.216745
H70   H     H_    0.788302 0.310484 0.947334 0.122682
H71   H     H_    0.695327 0.413320 0.970241 0.160956
N16   N     N_2   0.364991 0.680508 0.892721 -0.068534
H72   H     H_    0.479350 0.674125 0.884107 0.173446
C47   C     C_3   0.351364 0.780808 0.934483 -0.950383
H73   H     H_    0.469997 0.827888 0.952978 0.252837
H74   H     H_    0.291078 0.779622 0.994699 0.238017
H75   H     H_    0.281606 0.817318 0.886407 0.285310
N17   N     N_3   0.294270 0.041469 0.407403 -0.146137
H76   H     H_    0.187397 0.030209 0.432127 0.211586
H77   H     H_    0.276293 0.016095 0.338892 0.147678
N18   N     N_2   0.892505 0.958640 0.639741 -0.056854
H78   H     H_    0.001190 0.959394 0.618495 0.228594
C48   C     C_3   0.906462 0.989396 0.736038 -0.803102
H79   H     H_    0.832867 0.935145 0.767140 0.265659
H80   H     H_    0.862649 0.061270 0.751627 0.213697
H81   H     H_    0.031531 0.995502 0.767864 0.264193
N19   N     N_3   0.202742 0.749549 0.211550 -0.227494
H82   H     H_    0.228552 0.726769 0.147218 0.066106
H83   H     H_    0.175006 0.683699 0.238867 0.087674
N20   N     N_3   0.230990 0.952370 0.166081 -0.206227
H84   H     H_    0.269768 0.979470 0.109958 0.132162
H85   H     H_    0.194983 0.011823 0.203742 0.152277
N21   N     N_2   0.471387 0.802372 0.729623 -0.089354
H86   H     H_    0.505681 0.746570 0.763323 0.189031
C49   C     C_3   0.510790 0.901396 0.782895 -0.954782
H87   H     H_    0.609360 0.903563 0.838407 0.238907
H88   H     H_    0.408543 0.923359 0.813355 0.266763
H89   H     H_    0.549216 0.955560 0.738650 0.270149

loop_
_geom_bond_atom_site_label_1
_geom_bond_atom_site_label_2
_geom_bond_distance
_ccdc_geom_bond_type
O14   Ba2   2.916339 S    
C23   C27   1.402628 A    
C49   H87   1.106192 S    
C6    C7    1.523672 S    
N2    H33   1.042634 S    
C16   H24   1.107358 S    
P6    C17   1.855346 S    
C9    N5    1.451522 S    
C9    H12   1.109297 S    
P2    O20   1.682908 S    
C32   H29   1.082781 S    
C10   N1    1.441303 S    
C41   H36   1.099280 S    
C21   C22   1.426589 A    
C29   N13   1.445924 S    
N16   C47   1.447719 S    
C11   H15   1.105020 S    
N4    H38   1.041340 S    
N9    C44   1.451154 S    
P4    O12   1.585660 D    
P4    C30   1.949144 S    
O19   C13   1.420509 S    
N15   H70   1.037668 S    
C3    H2    1.110028 S    
P5    C39   1.919313 S    
P2    O10   1.730939 S    
N11   H61   1.043253 S    
C45   H57   1.107390 S    
C20   C21   1.414043 A    
C44   H55   1.090138 S    
Ba1   O13   2.896398 S    
N20   H85   1.032321 S    
C33   C37   1.422663 A    
P7    O22   1.760848 S    
N10   H56   1.025230 S    
C36   C37   1.453675 A    
P3    O8    1.750518 S    
C12   H17   1.092287 S    
N21   C49   1.439279 S    
P1    O1    1.585342 D    
P5    O19   1.773250 S    
O2    Ba2   2.897035 S    
N19   H82   1.043493 S    
C41   H35   1.083405 S    
C19   C30   1.401368 A    
C13   C14   1.563160 S    
C15   N11   1.460121 S    
O16   P7    1.845013 S    
N14   H69   1.042353 S    
N3    H34   1.022318 S    
C2    N19   1.451507 S    
C27   N16   1.409755 S    
C13   H19   1.108223 S    
C1    H1    1.111649 S    
C5    H6    1.094977 S    
C43   H51   1.111414 S    
N2    H32   1.043796 S    
C6    N2    1.468894 S    
P4    Ba2   3.490059 S    
C46   H64   1.096787 S    
C49   H89   1.102171 S    
O17   Ba2   2.910073 S    
C31   H28   1.071433 S    
C17   C29   1.404461 A    
P2    Ba1   3.561121 S    
C11   H16   1.106283 S    
N7    H44   1.028527 S    
C32   C34   1.378695 A    
N17   H76   1.035461 S    
N13   H67   1.036385 S    
P1    C18   1.882128 S    
C16   H25   1.098513 S    
P5    O17   1.772689 S    
C19   N14   1.424944 S    
N1    H31   1.029862 S    
N1    H30   1.042394 S    
C45   H58   1.106892 S    
C11   O22   1.401053 S    
Ba1   O16   2.979047 S    
C4    O15   1.392619 S    
N19   H83   1.042167 S    
N5    H41   1.034763 S    
C18   C29   1.403577 A    
O4    P6    1.540995 D    
P7    C38   1.930094 S    
P1    O5    1.718483 S    
C8    C9    1.529536 S    
C48   H79   1.094237 S    
C7    N3    1.430733 S    
O10   C8    1.391886 S    
C24   C25   1.423896 A    
O6    C10   1.396220 S    
C46   H65   1.101981 S    
N16   H72   1.022892 S    
C26   C27   1.398110 A    
O11   C2    1.422487 S    
C15   C16   1.528788 S    
C25   C26   1.402143 A    
O14   P8    1.734602 S    
O7    Ba1   3.030713 S    
N21   H86   1.023110 S    
P1    O2    1.608348 S    
P5    O18   1.547547 D    
C8    H11   1.111521 S    
C42   H46   1.095252 S    
C7    H8    1.113002 S    
Ba1   O20   3.006969 S    
C4    N21   1.441191 S    
C43   H49   1.105545 S    
P3    O11   1.762885 S    
C48   H80   1.101941 S    
O5    C6    1.385765 S    
C28   H27   1.065879 S    
P2    C35   1.907694 S    
N5    H40   1.039412 S    
C35   C36   1.482909 A    
C1    N8    1.449492 S    
C2    C3    1.548293 S    
O12   Ba2   2.900153 S    
C9    N4    1.458878 S    
O1    Ba1   2.899757 S    
C47   H73   1.101437 S    
C12   N7    1.451376 S    
C4    H3    1.113742 S    
C1    H14   1.100088 S    
C14   H21   1.096803 S    
C46   H63   1.102568 S    
N17   H77   1.031673 S    
P2    O7    1.561579 D    
Ba1   Ba2   4.718545 S    
N18   H78   1.026394 S    
N12   C46   1.448923 S    
H26   C26   1.070789 S    
C37   C38   1.473528 A    
C32   C35   1.397150 A    
C22   C24   1.482310 A    
P1    Ba1   3.489486 S    
C47   H75   1.096038 S    
C5    H5    1.104516 S    
O8    Ba1   2.909420 S    
C2    N12   1.448868 S    
N6    H43   1.043255 S    
N8    H48   1.027163 S    
C45   H59   1.111172 S    
C31   C39   1.391185 A    
O13   Ba2   3.038060 S    
O3    P6    1.766724 S    
C11   C12   1.537520 S    
C18   C28   1.414902 A    
N10   C45   1.442154 S    
C23   C30   1.469372 A    
C49   H88   1.104343 S    
C15   H22   1.106875 S    
O2    Ba1   3.037196 S    
P8    C20   1.864468 S    
C24   C28   1.441984 A    
C4    C5    1.520404 S    
H23   C16   1.101622 S    
N8    C43   1.444078 S    
O3    Ba1   2.917026 S    
C44   H53   1.101030 S    
C3    H18   1.106504 S    
Ba2   O20   2.978402 S    
C14   N10   1.453048 S    
N9    H52   1.028952 S    
C3    N20   1.448387 S    
P8    O23   1.540727 D    
O6    P6    1.731509 S    
N15   H71   1.044120 S    
P7    O21   1.600202 D    
C42   H47   1.105934 S    
P3    O9    1.535991 D    
P4    O13   1.608349 S    
N14   H68   1.036468 S    
N11   H60   1.040146 S    
C8    H10   1.108459 S    
C44   H54   1.097331 S    
N20   H84   1.043778 S    
N13   H66   1.028264 S    
C15   O24   1.397549 S    
C1    C10   1.539104 S    
C14   H20   1.106143 S    
N18   C48   1.445444 S    
C39   C40   1.438185 A    
C21   N15   1.422161 S    
N4    H39   1.043901 S    
P8    O24   1.735421 S    
C13   N9    1.456688 S    
P4    O15   1.741116 S    
C33   C34   1.417061 A    
N3    C41   1.430037 S    
C48   H81   1.105465 S    
C33   N17   1.407251 S    
Ba2   O21   3.031052 S    
C19   C20   1.399325 A    
P3    C34   1.878902 S    
N12   H62   1.028944 S    
C7    H9    1.101399 S    
C10   H13   1.074643 S    
C6    H7    1.108274 S    
N7    C42   1.446175 S    
C43   H50   1.105000 S    
C5    H4    1.106701 S    
C40   N18   1.407826 S    
C22   C23   1.457879 A    
N6    H42   1.044755 S    
O16   Ba2   3.006025 S    
C17   C25   1.439214 A    
C41   H37   1.099561 S    
C36   C40   1.441795 A    
C42   H45   1.108798 S    
C31   C38   1.395984 A    
C12   N6    1.457190 S    
C47   H74   1.106799 S    
