data_mof_unit_37791.cif
_audit_creation_date              2012-12-11T17:36:18-0500
_audit_creation_method            fapswitch 2.2
_symmetry_space_group_name_H-M    P1
_symmetry_Int_Tables_number       1
_space_group_crystal_system       triclinic
_cell_length_a                    25.835289
_cell_length_b                    6.910196
_cell_length_c                    21.69552
_cell_angle_alpha                 90.011114
_cell_angle_beta                  95.969706
_cell_angle_gamma                 90.006946
_cell_volume                      3852.22959327

loop_
_atom_site_label
_atom_site_type_symbol
_atom_type_description
_atom_site_fract_x
_atom_site_fract_y
_atom_site_fract_z
_atom_type_partial_charge
O1    O     O_R   0.208650 0.594520 0.175450 -0.535973
O2    O     O_R   0.791350 0.405480 0.824550 -0.536120
O3    O     O_R   0.291350 0.094520 0.324550 -0.536348
O4    O     O_R   0.708650 0.905480 0.675450 -0.536086
O5    O     O_R   0.192980 0.260780 0.300160 -0.540682
O6    O     O_R   0.807020 0.739220 0.699840 -0.539830
O7    O     O_R   0.307020 0.760780 0.199840 -0.539966
O8    O     O_R   0.692980 0.239220 0.800160 -0.540814
C1    C     C_R   0.178802 0.432685 0.318238 0.709684
C2    C     C_R   0.821063 0.567414 0.681683 0.713881
C3    C     C_R   0.321054 0.932577 0.181673 0.710688
C4    C     C_R   0.678792 0.067309 0.818226 0.713999
O9    O     O_R   0.202550 0.264660 0.174420 -0.537159
O10   O     O_R   0.797450 0.735340 0.825580 -0.537188
O11   O     O_R   0.297450 0.764660 0.325580 -0.537183
O12   O     O_R   0.702550 0.235340 0.674420 -0.537227
O13   O     O_R   0.300990 0.096480 0.197920 -0.534850
O14   O     O_R   0.699010 0.903520 0.802080 -0.536280
O15   O     O_R   0.199010 0.596480 0.302080 -0.536227
O16   O     O_R   0.800990 0.403520 0.697920 -0.535165
C5    C     C_R   0.191135 0.433353 0.151130 0.700494
C6    C     C_R   0.808887 0.566647 0.848853 0.699876
C7    C     C_R   0.308881 0.933405 0.348854 0.699101
C8    C     C_R   0.691137 0.066595 0.651132 0.700333
O17   O     O_3   0.282290 0.427760 0.257860 -0.365953
O18   O     O_3   0.717710 0.572240 0.742140 -0.367164
O19   O     O_3   0.217710 0.927760 0.242140 -0.366843
O20   O     O_3   0.782290 0.072240 0.757860 -0.366102
V1    V     V_3+5 0.244010 0.152080 0.248540 1.432575
V2    V     V_3+5 0.755990 0.847920 0.751460 1.436353
V3    V     V_3+5 0.255990 0.652080 0.251460 1.433345
V4    V     V_3+5 0.744010 0.347920 0.748540 1.435239
C9    C     C_R   0.657510 0.060252 0.591966 -0.055155
C10   C     C_R   0.342521 0.939709 0.408013 -0.050840
C11   C     C_R   0.842534 0.560570 0.908014 -0.052756
C12   C     C_R   0.157504 0.439472 0.091960 -0.054600
C13   C     C_R   0.647203 0.112353 0.481247 -0.138017
C14   C     C_R   0.352856 0.887241 0.518713 -0.145990
C15   C     C_R   0.852988 0.615240 0.018614 -0.142382
C16   C     C_R   0.147082 0.385204 0.981339 -0.139591
C17   C     C_R   0.678717 0.106466 0.537267 -0.147931
C18   C     C_R   0.321337 0.893186 0.462699 -0.156780
C19   C     C_R   0.821436 0.608636 0.962633 -0.152255
C20   C     C_R   0.178628 0.391743 0.037328 -0.149507
C21   C     C_R   0.603991 0.020242 0.590365 -0.211751
C22   C     C_R   0.396034 0.979862 0.409613 -0.212255
C23   C     C_R   0.896001 0.519555 0.909654 -0.211860
C24   C     C_R   0.104030 0.480333 0.090320 -0.212009
C25   C     C_R   0.570625 0.028081 0.533739 0.088892
C26   C     C_R   0.429412 0.971866 0.466230 0.088609
C27   C     C_R   0.929422 0.528310 0.966232 0.088735
C28   C     C_R   0.070624 0.471750 0.033731 0.088804
C29   C     C_R   0.593628 0.074888 0.478999 0.125185
C30   C     C_R   0.406421 0.924878 0.520964 0.128591
C31   C     C_R   0.906512 0.576836 0.020895 0.127181
C32   C     C_R   0.093547 0.423422 0.979060 0.125309
C33   C     C_R   0.515467 0.993473 0.529452 0.057188
C34   C     C_R   0.484571 0.006469 0.470516 0.057404
C35   C     C_R   0.984551 0.493079 0.970538 0.057003
C36   C     C_R   0.015496 0.506988 0.029423 0.057552
C37   C     C_R   0.509892 0.053052 0.417875 -0.183225
C38   C     C_R   0.490152 0.946790 0.582087 -0.182119
C39   C     C_R   0.990257 0.555164 0.081991 -0.182986
C40   C     C_R   0.009796 0.445011 0.917965 -0.181898
C41   C     C_R   0.563140 0.086051 0.422205 -0.187565
C42   C     C_R   0.436911 0.913675 0.577754 -0.188287
C43   C     C_R   0.937045 0.588879 0.077640 -0.187826
C44   C     C_R   0.063016 0.411423 0.922312 -0.186875
H1    H     H_    0.580681 0.121845 0.380372 0.135616
H2    H     H_    0.419377 0.877752 0.619581 0.136375
H3    H     H_    0.919572 0.625979 0.119412 0.136268
H4    H     H_    0.080497 0.374466 0.880533 0.136550
H5    H     H_    0.410247 0.012724 0.365861 0.093085
H6    H     H_    0.589765 0.987622 0.634127 0.094541
H7    H     H_    0.089858 0.514040 0.134036 0.094098
H8    H     H_    0.910159 0.485583 0.865949 0.094033
H9    H     H_    0.280257 0.860352 0.461926 0.130591
H10   H     H_    0.719807 0.139117 0.538036 0.136551
H11   H     H_    0.219677 0.358368 0.038130 0.135060
H12   H     H_    0.780398 0.642210 0.961826 0.134025
H13   H     H_    0.664736 0.148649 0.439473 0.138026
H14   H     H_    0.335336 0.850747 0.560479 0.131776
H15   H     H_    0.835531 0.652934 0.060325 0.135102
H16   H     H_    0.164554 0.347727 0.939620 0.136244
H17   H     H_    0.489622 0.065764 0.372150 0.125537
H18   H     H_    0.510424 0.933997 0.627808 0.127573
H19   H     H_    0.010570 0.568723 0.127669 0.126492
H20   H     H_    0.989486 0.431544 0.872282 0.127016
C45   C     C_R   0.403032 0.817647 0.049913 0.421657
C46   C     C_R   0.589724 0.191611 0.942644 0.482669
C47   C     C_R   0.090011 0.308217 0.442892 0.404877
C48   C     C_R   0.903269 0.682003 0.550091 0.485001
C49   C     C_R   0.365519 0.804025 0.092492 -0.214777
C50   C     C_R   0.628323 0.206184 0.901386 -0.238492
C51   C     C_R   0.128540 0.293824 0.401550 -0.233884
C52   C     C_R   0.865698 0.695846 0.592602 -0.226492
H21   H     H_    0.337314 0.687491 0.087993 0.163725
H22   H     H_    0.653070 0.332906 0.902725 0.168565
H23   H     H_    0.153388 0.167396 0.402930 0.167868
H24   H     H_    0.837547 0.812525 0.588074 0.164450
C53   C     C_R   0.362773 0.942785 0.139354 -0.123020
C54   C     C_R   0.636315 0.055887 0.859677 -0.125904
C55   C     C_R   0.136376 0.443999 0.359759 -0.120872
C56   C     C_R   0.862836 0.557115 0.639437 -0.125000
C57   C     C_R   0.399125 0.094525 0.144117 -0.166574
C58   C     C_R   0.604149 0.891614 0.858926 -0.161714
C59   C     C_R   0.104139 0.608038 0.359038 -0.161278
C60   C     C_R   0.899144 0.405273 0.644266 -0.166479
H25   H     H_    0.397940 0.203728 0.179767 0.129215
H26   H     H_    0.609103 0.773646 0.827185 0.136244
H27   H     H_    0.108997 0.725955 0.327259 0.133160
H28   H     H_    0.897884 0.296131 0.679909 0.132719
C61   C     C_R   0.438046 0.104865 0.103782 -0.091948
C62   C     C_R   0.564627 0.878673 0.898305 -0.096635
C63   C     C_R   0.064678 0.620797 0.398513 -0.084778
C64   C     C_R   0.938119 0.394733 0.604013 -0.101589
H29   H     H_    0.466237 0.221306 0.109487 0.170056
H30   H     H_    0.539821 0.752093 0.895566 0.207187
H31   H     H_    0.039829 0.747250 0.395834 0.187528
H32   H     H_    0.966277 0.278235 0.609781 0.193934
C65   C     C_R   0.440515 0.968145 0.056285 -0.040974
C66   C     C_R   0.557151 0.026541 0.940771 -0.035740
C67   C     C_R   0.057337 0.472957 0.441028 -0.037598
C68   C     C_R   0.940686 0.531327 0.556519 -0.040454
C69   C     C_1   0.481633 0.987146 0.015410 0.140862
C70   C     C_1   0.516012 0.005328 0.981568 0.183606
C71   C     C_1   0.016231 0.493910 0.481876 0.169257
C72   C     C_1   0.981840 0.512087 0.515702 0.190693
S1    S     S_3+6 0.400943 0.643336 0.989892 0.036454
O21   O     O_2   0.431570 0.469407 0.013624 -0.292480
O22   O     O_2   0.345603 0.581970 0.971843 -0.332155
O23   O     O_3   0.426098 0.728928 0.926858 -0.480137
H33   H     H_    0.402800 0.836665 0.911912 0.337476
S2    S     S_3+6 0.583153 0.380473 0.996251 -0.002399
O24   O     O_2   0.627051 0.523189 0.995916 -0.335346
O25   O     O_2   0.532432 0.482165 0.978710 -0.309694
O26   O     O_3   0.582971 0.286661 0.067759 -0.503768
H34   H     H_    0.570087 0.392256 0.093014 0.366253
S3    S     S_3+6 0.083914 0.119916 0.496865 0.003250
O27   O     O_2   0.033291 0.017088 0.479915 -0.297027
O28   O     O_2   0.127766 0.977066 0.496462 -0.340887
O29   O     O_3   0.083675 0.212902 0.568455 -0.485760
H35   H     H_    0.116254 0.289026 0.575328 0.336367
S4    S     S_3+6 0.901421 0.856336 0.490146 0.026974
O30   O     O_2   0.846031 0.916442 0.471858 -0.325375
O31   O     O_2   0.932008 0.030190 0.514164 -0.313355
O32   O     O_3   0.926670 0.768833 0.427404 -0.505015
H36   H     H_    0.930648 0.883001 0.400699 0.374589

loop_
_geom_bond_atom_site_label_1
_geom_bond_atom_site_label_2
_ccdc_geom_bond_type
O17   V3    S    
C25   C29   A    
O1    C5    A    
O19   V1    S    
C9    C21   A    
C16   H16   S    
O3    C7    A    
O32   H36   S    
C10   C18   A    
C48   C52   A    
O15   V3    S    
S2    O26   S    
C45   S1    S    
C33   C38   A    
C5    C12   S    
O7    C3    A    
C6    C11   S    
C38   H18   S    
O5    C1    A    
C26   C30   A    
C58   C62   A    
C36   C39   A    
C40   C44   A    
C57   C61   A    
C23   H8    S    
C14   C18   A    
C48   C68   A    
C58   H26   S    
C46   S2    S    
S3    O29   S    
C51   H23   S    
C44   H4    S    
C50   H22   S    
O1    V3    S    
O13   V1    S    
C31   C43   A    
O2    V4    S    
O3    V1    S    
C28   C36   A    
C65   C69   S    
C1    O15   A    
C15   C31   A    
C2    O16   A    
O23   H33   S    
C16   C32   A    
O2    C6    A    
C54   C58   A    
C10   C22   A    
C11   C19   A    
C16   C20   A    
C43   H3    S    
C1    C55   S    
C68   C72   S    
S1    O23   S    
C13   C29   A    
C34   C37   A    
O11   C7    A    
C11   C23   A    
C35   C36   A    
O12   C8    A    
C47   C67   A    
C14   H14   S    
O17   V1    S    
C46   C66   A    
C24   H7    S    
C13   H13   S    
O10   V2    S    
S4    O32   S    
C51   C55   A    
C46   C50   A    
O5    V1    S    
C53   C57   A    
C39   C43   A    
O7    V3    S    
C38   C42   A    
O19   V3    S    
C26   C34   A    
O20   V4    S    
C63   C67   A    
S4    O31   D    
C49   C53   A    
C17   H10   S    
O18   V4    S    
C15   C19   A    
C19   H12   S    
C32   C44   A    
C45   C49   A    
C64   H32   S    
C21   H6    S    
O8    V4    S    
C66   C70   S    
C4    C54   S    
C23   C27   A    
C67   C71   S    
C14   C30   A    
C21   C25   A    
O8    C4    A    
C7    C10   S    
C35   C40   A    
O9    C5    A    
C3    C53   S    
C59   C63   A    
C62   H30   S    
C37   H17   S    
C47   S3    S    
O6    V2    S    
O18   V2    S    
C63   H31   S    
C52   C56   A    
C69   C70   T    
C61   H29   S    
C12   C20   A    
C27   C35   A    
C71   C72   T    
C49   H21   S    
C56   C60   A    
C29   C41   A    
S1    O21   D    
O16   V4    S    
O9    V1    S    
C57   H25   S    
C3    O13   A    
C64   C68   A    
C39   H19   S    
C59   H27   S    
C20   H11   S    
S4    O30   D    
O6    C2    A    
C25   C33   A    
S2    O25   D    
S3    O27   D    
O11   V3    S    
S2    O24   D    
C30   C42   A    
O12   V4    S    
O26   H34   S    
C22   C26   A    
C8    C9    S    
C9    C17   A    
C60   C64   A    
C2    C56   S    
C15   H15   S    
S3    O28   D    
O10   C6    A    
C33   C34   A    
C42   H2    S    
C45   C65   A    
O4    C8    A    
C41   H1    S    
C52   H24   S    
O20   V2    S    
C12   C24   A    
C27   C31   A    
C37   C41   A    
C13   C17   A    
C48   S4    S    
O14   V2    S    
C47   C51   A    
C62   C66   A    
C60   H28   S    
C24   C28   A    
C61   C65   A    
C50   C54   A    
C18   H9    S    
C4    O14   A    
O29   H35   S    
C55   C59   A    
C40   H20   S    
C22   H5    S    
O4    V2    S    
C28   C32   A    
S1    O22   D    
