data_mof_unit_45674.cif
_audit_creation_date              2013-03-05T15:41:46-0500
_audit_creation_method            fapswitch 2.2
_symmetry_space_group_name_H-M    P1
_symmetry_Int_Tables_number       1
_space_group_crystal_system       triclinic
_cell_length_a                    11.148347
_cell_length_b                    12.69718
_cell_length_c                    23.556321
_cell_angle_alpha                 90.717392
_cell_angle_beta                  96.911433
_cell_angle_gamma                 68.58704
_cell_volume                      3079.9526671

loop_
_atom_site_label
_atom_site_type_symbol
_atom_site_description
_atom_site_fract_x
_atom_site_fract_y
_atom_site_fract_z
_atom_type_partial_charge
O1    O     O_R   0.196340 0.303200 0.448500 -0.475965
O2    O     O_R   0.199310 0.519670 0.454880 -0.488334
C1    C     C_R   0.149207 0.616745 0.428802 0.552988
O3    O     O_R   0.045660 0.691380 0.441680 -0.454245
O4    O     O_R   0.811930 0.659460 0.430950 -0.445647
C2    C     C_R   0.748779 0.604752 0.403950 0.557270
O5    O     O_R   0.757900 0.507620 0.421760 -0.514748
O6    O     O_R   0.988630 0.322990 0.439840 -0.490621
C3    C     C_R   0.101049 0.282137 0.423394 0.554937
O7    O     O_R   0.196380 0.301720 0.573850 -0.433079
O8    O     O_R   0.199350 0.518300 0.571080 -0.456807
C4    C     C_R   0.149068 0.617955 0.591224 0.583773
O9    O     O_R   0.045700 0.689900 0.567030 -0.449415
O10   O     O_R   0.811960 0.658090 0.547150 -0.468083
C5    C     C_R   0.751235 0.601542 0.566315 0.565925
O11   O     O_R   0.757930 0.506140 0.547110 -0.480953
O12   O     O_R   0.988670 0.321620 0.556040 -0.511282
C6    C     C_R   0.100716 0.277684 0.585265 0.556106
Cr1   Cr    Cr6+3 0.189770 0.415650 0.511620 1.166783
Cr2   Cr    Cr6+3 0.930400 0.667320 0.496770 1.194977
Cr3   Cr    Cr6+3 0.879870 0.417010 0.491650 1.098969
O13   O     O_3   0.000020 0.499990 0.500010 -0.318070
C7    C     C_R   0.673811 0.756262 0.138606 -0.036165
C8    C     C_R   0.693728 0.639527 0.344336 -0.027641
C9    C     C_R   0.658763 0.566095 0.251377 0.229329
C10   C     C_R   0.665358 0.559050 0.310120 -0.096054
C11   C     C_R   0.696843 0.739027 0.319126 0.217831
C12   C     C_R   0.691248 0.748446 0.258783 -0.023963
C13   C     C_R   0.680049 0.656630 0.225925 -0.037053
C14   C     C_R   0.685261 0.657868 0.167505 -0.130491
C15   C     C_R   0.693240 0.845329 0.169565 0.231625
C16   C     C_R   0.698751 0.843588 0.229493 0.270186
H1    H     H_    0.683448 0.585700 0.142985 0.209636
H2    H     H_    0.654965 0.486096 0.329178 0.194271
C17   C     C_1   0.236104 0.163262 0.122748 0.073435
C18   C     C_2   0.183692 0.233345 0.226602 0.246964
C19   C     C_2   0.150251 0.168573 0.262103 0.264215
C20   C     C_1   0.129720 0.200606 0.320278 0.101694
C21   C     C_1   0.211569 0.198274 0.169491 0.103137
C22   C     C_1   0.115049 0.232661 0.368295 0.063518
C23   C     C_1   0.167818 0.749083 0.123450 0.093529
C24   C     C_2   0.150432 0.681400 0.227462 -0.019893
C25   C     C_2   0.231111 0.690025 0.273183 0.291599
C26   C     C_1   0.215024 0.658786 0.329855 0.053850
C27   C     C_1   0.157808 0.717774 0.170329 0.086811
C28   C     C_1   0.193130 0.636664 0.376385 0.048796
H3    H     H_    0.075693 0.647704 0.232911 0.116640
C29   C     C_1   0.624566 0.761692 0.865219 0.121520
C30   C     C_2   0.666504 0.747063 0.757446 0.218977
C31   C     C_2   0.710508 0.645749 0.733547 0.238872
C32   C     C_1   0.709024 0.636936 0.672798 0.098984
C33   C     C_1   0.650387 0.754363 0.816990 0.123476
C34   C     C_1   0.717800 0.625010 0.622707 0.106031
C35   C     C_R   0.192619 0.192066 0.856726 -0.006083
C36   C     C_R   0.111431 0.223394 0.641369 -0.027718
C37   C     C_R   0.993619 0.190777 0.715579 0.216080
C38   C     C_R   0.003725 0.205682 0.657955 -0.104225
C39   C     C_R   0.215798 0.216987 0.682817 0.188942
C40   C     C_R   0.198685 0.219456 0.740644 -0.073289
C41   C     C_R   0.090641 0.200173 0.758334 -0.011149
C42   C     C_R   0.087499 0.187284 0.817759 0.135676
C43   C     C_R   0.278288 0.239461 0.838581 0.175263
C44   C     C_R   0.285799 0.245795 0.780755 -0.071443
H4    H     H_    0.360438 0.271999 0.767702 0.238437
H5    H     H_    0.923442 0.209000 0.626184 0.193811
C45   C     C_R   0.120418 0.737289 0.855577 0.011726
C46   C     C_R   0.187471 0.644998 0.650210 -0.029080
C47   C     C_R   0.319059 0.580376 0.741992 0.191851
C48   C     C_R   0.306858 0.579194 0.681388 0.155325
C49   C     C_R   0.092284 0.728557 0.678142 0.158085
C50   C     C_R   0.099115 0.723702 0.737354 -0.092501
C51   C     C_R   0.211171 0.647434 0.770156 -0.045376
C52   C     C_R   0.214064 0.648136 0.830292 0.218133
C53   C     C_R   0.002231 0.800629 0.823017 0.156404
C54   C     C_R   0.993394 0.794057 0.764082 -0.080705
H6    H     H_    0.903551 0.846581 0.739533 0.248247
O14   O     O_R   0.113660 0.883270 0.047820 -0.472230
O15   O     O_R   0.186930 0.068530 0.043990 -0.493545
C55   C     C_R   0.265794 0.110332 0.069336 0.557770
O16   O     O_R   0.377770 0.089040 0.054220 -0.446845
O17   O     O_R   0.562800 0.872960 0.056970 -0.447640
C56   C     C_R   0.602417 0.774684 0.080753 0.563876
O18   O     O_R   0.555390 0.700940 0.062700 -0.499093
O19   O     O_R   0.295020 0.731920 0.049950 -0.477952
C57   C     C_R   0.189612 0.787732 0.069763 0.557837
O20   O     O_R   0.094290 0.884230 0.921550 -0.451939
O21   O     O_R   0.168980 0.069410 0.926940 -0.486550
C58   C     C_R   0.239202 0.118306 0.908684 0.560599
O22   O     O_R   0.358400 0.089990 0.927950 -0.455282
O23   O     O_R   0.544850 0.873850 0.939920 -0.483004
C59   C     C_R   0.575536 0.776205 0.919013 0.555956
O24   O     O_R   0.536020 0.701900 0.936430 -0.455084
O25   O     O_R   0.277070 0.732810 0.932890 -0.457713
C60   C     C_R   0.162032 0.784064 0.908417 0.576858
Cr4   Cr    Cr6+3 0.149500 0.973980 0.985330 1.152688
Cr5   Cr    Cr6+3 0.457000 0.976510 0.994660 1.187637
Cr6   Cr    Cr6+3 0.411170 0.724270 0.995270 1.167501
O26   O     O_3   0.339220 0.891590 0.991750 -0.317444
Cl1   Cl    Cl    0.780445 0.518405 0.775103 -0.466461
Cl2   Cl    Cl    0.605960 0.874666 0.716113 -0.445435
N1    N     N_R   0.983158 0.163313 0.837683 -0.082611
O27   O     O_R   0.927363 0.215759 0.880772 -0.000002
O28   O     O_R   0.927362 0.215760 0.880773 -0.000002
N2    N     N_R   0.366625 0.270487 0.878871 0.131059
O29   O     O_R   0.481642 0.258734 0.866818 -0.189937
O30   O     O_R   0.332419 0.310243 0.928092 -0.253191
N3    N     N_R   0.879263 0.175094 0.729040 0.115427
O31   O     O_R   0.854132 0.087952 0.709774 -0.221950
O32   O     O_R   0.786870 0.259739 0.747473 -0.152715
N4    N     N_R   0.339336 0.207012 0.666292 0.109894
O33   O     O_R   0.374187 0.294281 0.667789 -0.263037
O34   O     O_R   0.405222 0.117454 0.640194 -0.199013
Cl3   Cl    Cl    0.322618 0.533756 0.874903 -0.389118
Cl4   Cl    Cl    0.710991 0.959880 0.133758 -0.417059
N5    N     N_R   0.892077 0.872744 0.849219 0.095189
O35   O     O_R   0.805848 0.961260 0.821417 -0.216044
O36   O     O_R   0.870383 0.843575 0.898630 -0.318320
N6    N     N_R   0.444593 0.527355 0.773925 0.157883
O37   O     O_R   0.494922 0.417807 0.781227 -0.149716
O38   O     O_R   0.499060 0.589253 0.802971 -0.278764
N7    N     N_R   0.417966 0.525328 0.651105 0.107502
O39   O     O_R   0.514830 0.436033 0.672185 -0.172374
O40   O     O_R   0.427104 0.571253 0.603507 -0.326132
N8    N     N_R   0.991283 0.822008 0.646599 0.109884
O41   O     O_R   0.873138 0.823587 0.637069 -0.275110
O42   O     O_R   0.020700 0.899607 0.622603 -0.265084
N9    N     N_R   0.627671 0.481589 0.218175 0.088053
O43   O     O_R   0.681260 0.375478 0.234736 -0.254340
O44   O     O_R   0.529173 0.512127 0.178146 -0.272586
Cl5   Cl    Cl    0.699554 0.968916 0.263334 -0.333094
N10   N     N_R   0.711263 0.826067 0.355453 0.128239
O45   O     O_R   0.824625 0.834423 0.366821 -0.255627
O46   O     O_R   0.618763 0.881613 0.385486 -0.246070
Cl6   Cl    Cl    0.132367 0.041353 0.239895 -0.469280
Cl7   Cl    Cl    0.199910 0.361393 0.248578 -0.584948
Cl8   Cl    Cl    0.349926 0.748742 0.266979 -0.506074

loop_
_geom_bond_atom_site_label_1
_geom_bond_atom_site_label_2
_geom_bond_distance
_ccdc_geom_bond_type
C20   C22   1.206722 T    
O21   C58   1.275099 A    
N1    O27   1.301228 A    
C7    C56   1.468480 S    
C11   N10   1.432626 S    
C42   N1    1.435094 S    
C8    C11   1.416253 A    
C54   H6    1.079305 S    
C16   Cl5   1.773348 S    
Cr6   O26   1.976830 S    
Cr4   O26   1.975379 S    
O4    Cr2   1.938516 S    
O8    Cr1   1.921443 S    
C31   Cl1   1.765216 S    
C43   C44   1.379881 A    
O19   Cr6   1.910939 S    
C5    C34   1.421421 S    
C12   C13   1.426255 A    
C19   C20   1.445449 S    
C8    C10   1.395647 A    
O4    C2    1.273167 A    
N5    O35   1.301621 A    
C45   C53   1.403423 A    
C52   Cl3   1.768305 S    
C37   C38   1.396384 A    
N4    O33   1.300033 A    
O20   C60   1.276173 A    
N4    O34   1.300706 A    
C47   N6    1.431437 S    
N6    O37   1.300782 A    
C10   H2    1.083655 S    
C47   C48   1.418108 A    
N5    O36   1.301679 A    
C29   C59   1.423301 S    
Cr5   O26   1.975265 S    
N3    O31   1.300725 A    
C49   C50   1.388632 A    
O16   Cr5   2.028961 S    
O7    Cr1   2.048465 S    
C15   Cl4   1.774029 S    
C14   H1    1.082189 S    
C45   C60   1.470038 S    
O14   C57   1.271230 A    
C40   C41   1.422362 A    
N1    O28   1.301244 A    
C50   C54   1.406863 A    
Cr3   O13   1.976075 S    
N3    O32   1.300858 A    
N2    O30   1.302232 A    
N2    O29   1.301497 A    
C26   C28   1.209131 T    
O24   Cr6   2.026056 S    
C31   C32   1.432566 S    
C43   N2    1.440401 S    
C9    C13   1.409925 A    
C4    C46   1.477892 S    
O1    Cr1   2.037512 S    
C53   C54   1.383555 A    
C44   H4    1.078860 S    
C7    C14   1.387265 A    
O10   Cr2   1.912913 S    
C12   C16   1.432112 A    
Cr1   O13   1.977499 S    
O1    C3    1.265759 A    
O19   C57   1.271451 A    
C59   O24   1.268544 A    
O17   Cr5   1.942580 S    
O15   C55   1.271873 A    
O6    C3    1.275543 A    
C35   C43   1.407597 A    
C39   C40   1.396457 A    
O5    Cr3   2.061416 S    
C45   C52   1.412778 A    
O14   Cr4   2.042823 S    
C3    C22   1.435394 S    
O17   C56   1.273402 A    
C37   C41   1.423932 A    
O21   Cr4   1.926912 S    
C41   C42   1.417481 A    
C46   C48   1.406087 A    
C24   C27   1.449585 S    
C7    C15   1.406368 A    
C17   C21   1.206773 T    
C25   C26   1.447230 S    
N9    O44   1.301660 A    
C37   N3    1.431698 S    
C13   C14   1.384878 A    
C15   C16   1.405713 A    
C48   N7    1.446665 S    
O15   Cr4   1.926202 S    
C47   C51   1.428952 A    
C30   C33   1.433007 S    
C2    C8    1.467599 S    
O12   C6    1.280355 A    
O25   C60   1.273838 A    
C58   O22   1.269321 A    
N7    O39   1.299703 A    
C6    C36   1.469962 S    
Cr2   O13   1.976857 S    
C56   O18   1.275637 A    
C36   C38   1.399041 A    
C24   C25   1.347890 D    
N9    O43   1.301423 A    
C18   Cl7   1.764964 S    
O25   Cr6   1.939832 S    
N8    O42   1.300908 A    
C18   C19   1.353086 D    
O9    Cr2   2.053997 S    
O2    Cr1   1.929550 S    
C39   N4    1.436937 S    
C18   C21   1.445468 S    
C38   H5    1.083975 S    
C51   C52   1.413058 A    
N10   O46   1.301304 A    
O6    Cr3   1.909850 S    
C5    O11   1.267266 A    
O8    C4    1.292877 A    
O11   Cr3   2.025493 S    
O23   Cr5   1.910685 S    
C2    O5    1.272213 A    
C35   C42   1.418206 A    
C19   Cl6   1.763980 S    
C23   C57   1.440778 S    
C1    C28   1.439489 S    
C40   C44   1.398652 A    
C46   C49   1.418842 A    
O22   Cr5   2.058723 S    
O2    C1    1.281520 A    
C9    C10   1.379139 A    
C50   C51   1.413695 A    
N10   O45   1.302265 A    
C30   Cl2   1.763931 S    
C35   C58   1.471541 S    
O23   C59   1.269756 A    
O7    C6    1.269484 A    
C53   N5    1.440371 S    
C17   C55   1.435586 S    
C24   H3    1.086816 S    
C9    N9    1.438227 S    
C25   Cl8   1.761291 S    
N6    O38   1.299835 A    
N7    O40   1.301839 A    
O20   Cr4   2.044860 S    
C55   O16   1.271371 A    
O3    Cr2   2.031352 S    
C49   N8    1.439809 S    
C29   C33   1.199492 T    
C4    O9    1.254427 A    
C30   C31   1.341631 D    
O18   Cr6   2.060394 S    
C36   C39   1.404678 A    
C11   C12   1.419935 A    
C23   C27   1.209530 T    
O10   C5    1.270533 A    
C32   C34   1.198889 T    
C1    O3    1.265294 A    
N8    O41   1.302032 A    
O12   Cr3   1.941490 S    
