data_mof_unit_6048.cif
_audit_creation_date              2012-12-11T14:30:05-0500
_audit_creation_method            fapswitch 2.2
_symmetry_space_group_name_H-M    P1
_symmetry_Int_Tables_number       1
_space_group_crystal_system       triclinic
_cell_length_a                    13.021703
_cell_length_b                    13.021703
_cell_length_c                    26.627559
_cell_angle_alpha                 89.99997
_cell_angle_beta                  90.000018
_cell_angle_gamma                 120.000193
_cell_volume                      3910.17967674

loop_
_atom_site_label
_atom_site_type_symbol
_atom_type_description
_atom_site_fract_x
_atom_site_fract_y
_atom_site_fract_z
_atom_type_partial_charge
C1    C     C_R   0.557185 0.457216 0.821224 0.549549
C2    C     C_R   0.900031 0.442815 0.678776 0.549548
C3    C     C_R   0.542783 0.099969 0.821224 0.549549
C4    C     C_R   0.557185 0.457216 0.678776 0.549550
C5    C     C_R   0.900031 0.442815 0.821224 0.549548
C6    C     C_R   0.542783 0.099969 0.678776 0.549549
C7    C     C_R   0.457216 0.557185 0.321224 0.549549
C8    C     C_R   0.442815 0.900031 0.178776 0.549548
C9    C     C_R   0.099969 0.542784 0.321224 0.549549
C10   C     C_R   0.457216 0.557185 0.178776 0.549549
C11   C     C_R   0.442815 0.900031 0.321224 0.549547
C12   C     C_R   0.099969 0.542784 0.178776 0.549549
C13   C     C_R   0.997777 0.506067 0.973582 0.013977
C14   C     C_R   0.508293 0.002230 0.526417 0.013978
C15   C     C_R   0.493935 0.491708 0.973583 0.013978
C16   C     C_R   0.997775 0.506066 0.526417 0.013977
C17   C     C_R   0.508292 0.002228 0.973583 0.013978
C18   C     C_R   0.493935 0.491708 0.526417 0.013978
C19   C     C_R   0.506065 0.997774 0.473583 0.013978
C20   C     C_R   0.002233 0.508295 0.026416 0.013978
C21   C     C_R   0.491707 0.493937 0.473583 0.013978
C22   C     C_R   0.506064 0.997772 0.026417 0.013978
C23   C     C_R   0.002231 0.508294 0.473583 0.013977
C24   C     C_R   0.491706 0.493937 0.026417 0.013978
C25   C     C_R   0.991209 0.689371 0.973728 0.099019
C26   C     C_R   0.698164 0.008795 0.526271 0.099019
C27   C     C_R   0.310629 0.301835 0.973729 0.099018
C28   C     C_R   0.991209 0.689372 0.526271 0.099020
C29   C     C_R   0.698165 0.008795 0.973729 0.099019
C30   C     C_R   0.310629 0.301836 0.526271 0.099018
C31   C     C_R   0.689371 0.991209 0.473729 0.099020
C32   C     C_R   0.008795 0.698165 0.026270 0.099020
C33   C     C_R   0.301835 0.310629 0.473729 0.099018
C34   C     C_R   0.689371 0.991209 0.026271 0.099020
C35   C     C_R   0.008795 0.698165 0.473729 0.099020
C36   C     C_R   0.301836 0.310629 0.026271 0.099019
C37   C     C_R   0.961901 0.576902 0.895412 -0.121737
C38   C     C_R   0.615003 0.038103 0.604588 -0.121738
C39   C     C_R   0.423099 0.384997 0.895412 -0.121738
C40   C     C_R   0.961899 0.576901 0.604588 -0.121737
C41   C     C_R   0.615003 0.038103 0.895412 -0.121738
C42   C     C_R   0.423099 0.384997 0.604588 -0.121738
C43   C     C_R   0.576901 0.961899 0.395412 -0.121738
C44   C     C_R   0.038105 0.615004 0.104587 -0.121738
C45   C     C_R   0.384997 0.423100 0.395413 -0.121739
C46   C     C_R   0.576901 0.961899 0.104588 -0.121738
C47   C     C_R   0.038104 0.615004 0.395413 -0.121738
C48   C     C_R   0.384996 0.423100 0.104587 -0.121739
C49   C     C_R   0.035645 0.520080 0.130548 -0.002070
C50   C     C_R   0.484436 0.964358 0.369451 -0.002070
C51   C     C_R   0.479920 0.515565 0.130549 -0.002070
C52   C     C_R   0.035644 0.520080 0.369451 -0.002070
C53   C     C_R   0.484436 0.964357 0.130549 -0.002071
C54   C     C_R   0.479921 0.515565 0.369451 -0.002070
C55   C     C_R   0.520079 0.035643 0.630549 -0.002070
C56   C     C_R   0.964359 0.484437 0.869450 -0.002070
C57   C     C_R   0.515564 0.479921 0.630549 -0.002070
C58   C     C_R   0.520079 0.035643 0.869451 -0.002069
C59   C     C_R   0.964358 0.484437 0.630549 -0.002070
C60   C     C_R   0.515563 0.479921 0.869451 -0.002070
C61   C     C_R   0.985912 0.593133 0.947228 -0.007027
C62   C     C_R   0.607224 0.014094 0.552771 -0.007028
C63   C     C_R   0.406868 0.392777 0.947229 -0.007028
C64   C     C_R   0.985910 0.593133 0.552771 -0.007027
C65   C     C_R   0.607223 0.014093 0.947229 -0.007028
C66   C     C_R   0.406868 0.392777 0.552771 -0.007028
C67   C     C_R   0.593132 0.985910 0.447229 -0.007027
C68   C     C_R   0.014095 0.607225 0.052770 -0.007028
C69   C     C_R   0.392776 0.406869 0.447229 -0.007027
C70   C     C_R   0.593131 0.985909 0.052771 -0.007027
C71   C     C_R   0.014095 0.607225 0.447230 -0.007028
C72   C     C_R   0.392776 0.406869 0.052770 -0.007027
C73   C     C_R   0.005696 0.416826 0.894442 0.093247
C74   C     C_R   0.411131 0.994308 0.605557 0.093247
C75   C     C_R   0.583175 0.588869 0.894443 0.093247
C76   C     C_R   0.005695 0.416826 0.605557 0.093247
C77   C     C_R   0.411131 0.994306 0.894443 0.093247
C78   C     C_R   0.583175 0.588870 0.605557 0.093247
C79   C     C_R   0.416824 0.005694 0.394443 0.093246
C80   C     C_R   0.994310 0.411133 0.105556 0.093247
C81   C     C_R   0.588868 0.583177 0.394444 0.093246
C82   C     C_R   0.416823 0.005692 0.105557 0.093247
C83   C     C_R   0.994309 0.411132 0.394444 0.093246
C84   C     C_R   0.588868 0.583178 0.105556 0.093247
C85   C     C_R   0.006482 0.416846 0.947157 0.016747
C86   C     C_R   0.410368 0.993526 0.552842 0.016747
C87   C     C_R   0.583155 0.589634 0.947157 0.016747
C88   C     C_R   0.006479 0.416846 0.552843 0.016747
C89   C     C_R   0.410367 0.993523 0.947158 0.016747
C90   C     C_R   0.583155 0.589634 0.552843 0.016747
C91   C     C_R   0.416845 0.006478 0.447157 0.016747
C92   C     C_R   0.993529 0.410370 0.052841 0.016746
C93   C     C_R   0.589631 0.583158 0.447158 0.016746
C94   C     C_R   0.416843 0.006475 0.052842 0.016747
C95   C     C_R   0.993527 0.410369 0.447158 0.016747
C96   C     C_R   0.589631 0.583159 0.052842 0.016746
C97   C     C_R   0.991631 0.317537 0.025838 -0.100114
C98   C     C_R   0.325911 0.008379 0.474161 -0.100113
C99   C     C_R   0.682465 0.674093 0.025839 -0.100112
C100  C     C_R   0.991627 0.317536 0.474161 -0.100113
C101  C     C_R   0.325909 0.008374 0.025839 -0.100113
C102  C     C_R   0.682465 0.674092 0.474161 -0.100112
C103  C     C_R   0.317535 0.991626 0.525839 -0.100114
C104  C     C_R   0.008384 0.325914 0.974160 -0.100113
C105  C     C_R   0.674088 0.682469 0.525840 -0.100113
C106  C     C_R   0.317532 0.991621 0.974161 -0.100113
C107  C     C_R   0.008381 0.325913 0.525840 -0.100113
C108  C     C_R   0.674088 0.682469 0.974160 -0.100112
Cr1   Cr    Cr6+3 0.487630 0.241180 0.750000 1.107270
Cr2   Cr    Cr6+3 0.753550 0.512370 0.750000 1.107270
Cr3   Cr    Cr6+3 0.758820 0.246450 0.750000 1.107270
Cr4   Cr    Cr6+3 0.241180 0.487630 0.250000 1.107270
Cr5   Cr    Cr6+3 0.512370 0.753550 0.250000 1.107270
Cr6   Cr    Cr6+3 0.246450 0.758820 0.250000 1.107270
O1    O     O_R   0.460870 0.120930 0.805240 -0.466554
O2    O     O_R   0.660060 0.539130 0.694760 -0.466554
O3    O     O_R   0.879070 0.339940 0.805240 -0.466554
O4    O     O_R   0.460870 0.120930 0.694760 -0.466554
O5    O     O_R   0.660060 0.539130 0.805240 -0.466554
O6    O     O_R   0.879070 0.339940 0.694760 -0.466554
O7    O     O_R   0.120930 0.460870 0.305240 -0.466554
O8    O     O_R   0.539130 0.660060 0.194760 -0.466554
O9    O     O_R   0.339940 0.879070 0.305240 -0.466554
O10   O     O_R   0.120930 0.460870 0.194760 -0.466554
O11   O     O_R   0.539130 0.660060 0.305240 -0.466554
O12   O     O_R   0.339940 0.879070 0.194760 -0.466554
O13   O     O_R   0.498910 0.350470 0.801870 -0.501021
O14   O     O_R   0.851560 0.501090 0.698130 -0.501021
O15   O     O_R   0.649530 0.148440 0.801870 -0.501020
O16   O     O_R   0.498910 0.350470 0.698130 -0.501021
O17   O     O_R   0.851560 0.501090 0.801870 -0.501021
O18   O     O_R   0.649530 0.148440 0.698130 -0.501020
O19   O     O_R   0.350470 0.498910 0.301870 -0.501021
O20   O     O_R   0.501090 0.851560 0.198130 -0.501021
O21   O     O_R   0.148440 0.649530 0.301870 -0.501020
O22   O     O_R   0.350470 0.498910 0.198130 -0.501021
O23   O     O_R   0.501090 0.851560 0.301870 -0.501021
O24   O     O_R   0.148440 0.649530 0.198130 -0.501020
O25   O     O_3   0.666667 0.333333 0.750000 -0.292345
O26   O     O_3   0.333333 0.666667 0.250000 -0.292346
H1    H     H_    0.064762 0.696347 0.124784 0.188772
H2    H     H_    0.631587 0.935242 0.375215 0.188772
H3    H     H_    0.303653 0.368414 0.124784 0.188771
H4    H     H_    0.064762 0.696347 0.375216 0.188772
H5    H     H_    0.631587 0.935243 0.124785 0.188772
H6    H     H_    0.303653 0.368414 0.375216 0.188771
H7    H     H_    0.696345 0.064760 0.624785 0.188772
H8    H     H_    0.935243 0.631587 0.875215 0.188772
H9    H     H_    0.368414 0.303653 0.624784 0.188771
H10   H     H_    0.696346 0.064761 0.875216 0.188772
H11   H     H_    0.935241 0.631587 0.624785 0.188772
H12   H     H_    0.368414 0.303653 0.875216 0.188771
I1    I     I_    0.019843 0.844292 0.066166 -0.257071
I2    I     I_    0.824449 0.980157 0.433833 -0.257072
I3    I     I_    0.155707 0.175549 0.066167 -0.257072
I4    I     I_    0.019847 0.844294 0.433833 -0.257070
I5    I     I_    0.824449 0.980158 0.066167 -0.257072
I6    I     I_    0.155706 0.175550 0.433833 -0.257072
I7    I     I_    0.844294 0.019848 0.566167 -0.257073
I8    I     I_    0.980151 0.824446 0.933833 -0.257073
I9    I     I_    0.175550 0.155706 0.566167 -0.257073
I10   I     I_    0.844295 0.019850 0.933833 -0.257073
I11   I     I_    0.980152 0.824447 0.566167 -0.257072
I12   I     I_    0.175552 0.155704 0.933833 -0.257073
I13   I     I_    0.921665 0.248857 0.147285 -0.218800
I14   I     I_    0.327185 0.078330 0.352713 -0.218793
I15   I     I_    0.751144 0.672809 0.147286 -0.218795
I16   I     I_    0.921663 0.248857 0.352714 -0.218800
I17   I     I_    0.327187 0.078331 0.147286 -0.218795
I18   I     I_    0.751145 0.672809 0.352714 -0.218797
I19   I     I_    0.248857 0.921664 0.647286 -0.218801
I20   I     I_    0.078332 0.327186 0.852712 -0.218795
I21   I     I_    0.672807 0.751145 0.647287 -0.218798
I22   I     I_    0.248856 0.921662 0.852714 -0.218802
I23   I     I_    0.078334 0.327189 0.647287 -0.218795
I24   I     I_    0.672806 0.751145 0.852713 -0.218798
H13   H     H_    0.983771 0.241135 0.044604 0.208172
H14   H     H_    0.257369 0.016239 0.455395 0.208172
H15   H     H_    0.758866 0.742635 0.044604 0.208172
H16   H     H_    0.983767 0.241134 0.455396 0.208172
H17   H     H_    0.257366 0.016233 0.044604 0.208172
H18   H     H_    0.758867 0.742634 0.455396 0.208172
H19   H     H_    0.241133 0.983766 0.544605 0.208171
H20   H     H_    0.016244 0.257372 0.955395 0.208172
H21   H     H_    0.742630 0.758871 0.544605 0.208172
H22   H     H_    0.241130 0.983760 0.955395 0.208171
H23   H     H_    0.016240 0.257371 0.544605 0.208172
H24   H     H_    0.742629 0.758872 0.955395 0.208172

loop_
_geom_bond_atom_site_label_1
_geom_bond_atom_site_label_2
_ccdc_geom_bond_type
C44   C49   A    
C80   C92   A    
C77   I22   S    
C87   C108  A    
Cr2   O2    S    
C18   C21   A    
Cr4   O26   S    
C5    C56   S    
Cr4   O19   S    
C30   I9    S    
C50   C79   A    
C12   C49   S    
Cr3   O25   S    
C78   C90   A    
C31   C67   A    
C99   C108  A    
C20   C92   A    
C77   C89   A    
C103  H19   S    
Cr2   O25   S    
C48   C72   A    
C41   C58   A    
Cr4   O10   S    
C24   C96   A    
C1    O5    A    
Cr6   O12   S    
C46   H5    S    
Cr5   O11   S    
C86   C103  A    
C98   C103  A    
C14   C62   A    
C96   C99   A    
C107  H23   S    
C102  C105  A    
C84   C96   A    
C105  H21   S    
C42   H9    S    
C84   I15   S    
C58   C77   A    
C55   C74   A    
Cr1   O13   S    
C48   C51   A    
C38   C55   A    
C94   C101  A    
C44   H1    S    
C4    C57   S    
C92   C97   A    
C78   I21   S    
C9    O7    A    
Cr6   O21   S    
C19   C67   A    
Cr6   O26   S    
C98   H14   S    
C6    C55   S    
C79   C91   A    
C13   C20   A    
C33   C69   A    
C32   C68   A    
C25   C32   A    
C26   C62   A    
C82   I17   S    
C35   C71   A    
C26   C31   A    
C37   H8    S    
C40   C59   A    
C3    O15   A    
C22   C94   A    
C9    C52   S    
Cr4   O22   S    
C10   C51   S    
C57   C78   A    
C42   C57   A    
C22   C70   A    
Cr3   O15   S    
Cr1   O4    S    
Cr5   O8    S    
C59   C76   A    
C45   C69   A    
C45   H6    S    
C102  H18   S    
C23   C71   A    
Cr2   O17   S    
C17   C89   A    
C35   I4    S    
C28   C35   A    
C6    O18   A    
C1    C60   S    
C88   C107  A    
C4    O2    A    
C34   C70   A    
C14   C19   A    
C41   C65   A    
C41   H10   S    
C8    O20   A    
C47   H4    S    
C7    O11   A    
C79   I14   S    
C40   H11   S    
C21   C69   A    
C53   C82   A    
C18   C90   A    
Cr2   O5    S    
C52   C83   A    
C29   C34   A    
C99   H15   S    
C20   C68   A    
C27   I12   S    
C81   C93   A    
C97   H13   S    
C12   O10   A    
C83   C95   A    
C25   I8    S    
Cr5   O26   S    
C26   I7    S    
C25   C61   A    
C81   I18   S    
C74   C86   A    
C73   I20   S    
C85   C104  A    
C14   C86   A    
C74   I19   S    
C30   C66   A    
C106  H22   S    
C27   C63   A    
C37   C56   A    
C29   C65   A    
Cr6   O9    S    
C28   C64   A    
C8    O12   A    
C15   C24   A    
C2    C59   S    
C45   C54   A    
C16   C23   A    
Cr5   O20   S    
C36   I3    S    
C89   C106  A    
Cr5   O23   S    
C44   C68   A    
C47   C71   A    
C13   C85   A    
C82   C94   A    
C100  H16   S    
C9    O21   A    
C80   I13   S    
C31   I2    S    
C101  H17   S    
C33   I6    S    
C24   C72   A    
C15   C87   A    
C73   C85   A    
C75   C87   A    
C101  C106  A    
C76   C88   A    
C100  C107  A    
C2    O6    A    
C56   C73   A    
C30   C33   A    
C104  H20   S    
C75   I24   S    
C95   C100  A    
C93   C102  A    
C29   I10   S    
C108  H24   S    
C76   I23   S    
C11   O9    A    
C1    O13   A    
C90   C105  A    
C10   O22   A    
C10   O8    A    
C8    C53   S    
C4    O16   A    
C43   C50   A    
C7    O19   A    
C47   C52   A    
C27   C36   A    
C18   C66   A    
C39   C63   A    
C83   I16   S    
C60   C75   A    
C17   C65   A    
C17   C22   A    
C40   C64   A    
C49   C80   A    
Cr3   O3    S    
Cr1   O25   S    
C37   C61   A    
Cr4   O7    S    
C11   C50   S    
C3    O1    A    
C21   C93   A    
C39   C60   A    
C39   H12   S    
C46   C53   A    
C42   C66   A    
C23   C95   A    
C12   O24   A    
Cr6   O24   S    
C91   C98   A    
C11   O23   A    
C38   H7    S    
C46   C70   A    
C97   C104  A    
C19   C91   A    
Cr1   O1    S    
C32   I1    S    
C3    C58   S    
Cr3   O18   S    
C5    O17   A    
C13   C61   A    
C48   H3    S    
C43   C67   A    
C5    O3    A    
Cr1   O16   S    
C16   C88   A    
C15   C63   A    
Cr3   O6    S    
C43   H2    S    
C16   C64   A    
C7    C54   S    
C51   C84   A    
C6    O4    A    
C54   C81   A    
C34   I5    S    
C36   C72   A    
C28   I11   S    
Cr2   O14   S    
C38   C62   A    
C2    O14   A    
