data_mof_unit_58648.cif
_audit_creation_date              2012-12-10T17:45:20-0500
_audit_creation_method            fapswitch 2.2
_symmetry_space_group_name_H-M    P1
_symmetry_Int_Tables_number       1
_space_group_crystal_system       triclinic
_cell_length_a                    17.809088
_cell_length_b                    17.867941
_cell_length_c                    17.893872
_cell_angle_alpha                 115.078227
_cell_angle_beta                  93.004906
_cell_angle_gamma                 69.388548
_cell_volume                      4795.57853931

loop_
_atom_site_label
_atom_site_type_symbol
_atom_type_description
_atom_site_fract_x
_atom_site_fract_y
_atom_site_fract_z
_atom_type_partial_charge
C1    C     C_R   0.463999 0.464110 0.287919 0.792596
C2    C     C_R   0.907154 0.615484 0.578934 -0.060818
C3    C     C_R   0.955808 0.648326 0.637938 -0.220939
C4    C     C_R   0.536076 0.535564 0.712056 0.814824
C5    C     C_R   0.038504 0.622154 0.617413 0.091891
C6    C     C_R   0.072765 0.567027 0.533357 0.017764
C7    C     C_R   0.086649 0.653301 0.679697 0.456076
C8    C     C_R   0.169021 0.629544 0.657925 -0.332496
C9    C     C_R   0.155403 0.546945 0.513759 -0.263247
C10   C     C_R   0.560683 0.538783 0.792848 -0.069363
C11   C     C_R   0.448104 0.450335 0.203502 0.009161
C12   C     C_R   0.817858 0.395706 0.330301 -0.249078
C13   C     C_R   0.664392 0.532283 0.886206 0.429606
C14   C     C_R   0.635636 0.543636 0.815695 -0.317148
C15   C     C_R   0.513060 0.525932 0.842326 -0.255356
C16   C     C_R   0.462976 0.730330 0.554960 0.789550
C17   C     C_R   0.543865 0.502558 0.906761 0.006670
C18   C     C_R   0.618884 0.510922 0.931242 0.123261
C19   C     C_R   0.501397 0.474171 0.949324 0.030103
C20   C     C_R   0.528023 0.471059 0.025218 0.063142
C21   C     C_R   0.602392 0.480942 0.047722 -0.243697
C22   C     C_R   0.647436 0.498360 0.000717 -0.177550
C23   C     C_R   0.834815 0.485872 0.470584 -0.238524
C24   C     C_R   0.434758 0.446790 0.919045 -0.009755
C25   C     C_R   0.388996 0.433122 0.969488 -0.286882
C26   C     C_R   0.409454 0.439777 0.047229 0.146815
C27   C     C_R   0.480194 0.456639 0.075654 0.095460
C28   C     C_R   0.536052 0.269456 0.445625 0.796585
C29   C     C_R   0.359914 0.427698 0.096195 -0.189832
C30   C     C_R   0.378695 0.434020 0.174370 -0.200048
C31   C     C_R   0.498603 0.461248 0.155008 -0.251577
C32   C     C_R   0.554299 0.174853 0.422796 -0.036907
C33   C     C_R   0.448089 0.822064 0.574483 0.004206
C34   C     C_R   0.901954 0.494970 0.442410 0.066151
C35   C     C_R   0.640167 0.019627 0.346898 -0.014928
C36   C     C_R   0.620420 0.109240 0.365657 -0.237087
C37   C     C_R   0.508076 0.150929 0.462446 -0.272653
C38   C     C_R   0.528536 0.062474 0.449852 0.072615
C39   C     C_R   0.591003 0.994479 0.385427 0.056252
C40   C     C_R   0.288055 0.554234 0.553371 0.807150
C41   C     C_R   0.488736 0.040703 0.500571 0.079529
C42   C     C_R   0.506618 0.950245 0.482079 0.055064
C43   C     C_R   0.559525 0.884412 0.410419 -0.285031
C44   C     C_R   0.600944 0.904737 0.362075 -0.035021
C45   C     C_R   0.931644 0.445535 0.356825 0.116024
C46   C     C_R   0.433813 0.106919 0.571400 -0.226914
C47   C     C_R   0.397180 0.085599 0.621853 -0.236015
C48   C     C_R   0.414361 0.997576 0.604850 0.169289
C49   C     C_R   0.469573 0.928517 0.535043 0.103463
C50   C     C_R   0.376890 0.978083 0.657686 -0.197631
C51   C     C_R   0.393345 0.890470 0.642155 -0.217070
C52   C     C_R   0.712193 0.447538 0.445587 0.809634
C53   C     C_R   0.486128 0.840355 0.521872 -0.276918
C54   C     C_R   0.791476 0.438993 0.415309 -0.050561
C55   C     C_R   0.202536 0.577992 0.575370 -0.031123
C56   C     C_R   0.943335 0.547393 0.498473 0.017206
C57   C     C_R   0.887254 0.398691 0.300167 -0.001620
C58   C     C_R   0.416255 0.418722 0.831913 0.115571
C59   C     C_R   0.338370 0.457952 0.813863 -0.204207
C60   C     C_R   0.320830 0.431276 0.731689 -0.135760
C61   C     C_R   0.380518 0.364971 0.667233 -0.034344
C62   C     C_R   0.457977 0.325315 0.684795 -0.112021
C63   C     C_R   0.475750 0.351563 0.766811 -0.144662
C64   C     C_R   0.646590 0.829899 0.282906 0.145215
C65   C     C_R   0.710108 0.756200 0.283620 -0.154199
C66   C     C_R   0.751947 0.684949 0.209011 -0.142695
C67   C     C_R   0.023947 0.531580 0.472804 0.090361
C68   C     C_R   0.729984 0.686052 0.133269 -0.099908
C69   C     C_R   0.665681 0.758064 0.131944 -0.115655
C70   C     C_R   0.623738 0.829610 0.206440 -0.144320
C71   C     C_R   0.718442 0.957308 0.295844 0.126809
C72   C     C_R   0.731827 0.945271 0.214140 -0.157658
C73   C     C_R   0.805747 0.886343 0.166182 -0.122342
C74   C     C_R   0.867121 0.840221 0.199816 -0.099314
C75   C     C_R   0.854922 0.853456 0.281693 -0.131166
C76   C     C_R   0.781074 0.912247 0.329854 -0.137244
C77   C     C_R   0.908519 0.356638 0.208953 0.110831
C78   C     C_R   0.052695 0.480770 0.387479 -0.214056
C79   C     C_R   0.923813 0.265747 0.162086 -0.154874
C80   C     C_R   0.941051 0.226993 0.075696 -0.135250
C81   C     C_R   0.942458 0.278763 0.035538 -0.101894
C82   C     C_R   0.926562 0.369413 0.081685 -0.137876
C83   C     C_R   0.909472 0.408371 0.168066 -0.176032
C84   C     C_R   0.818716 0.666285 0.598998 0.123633
C85   C     C_R   0.776092 0.702541 0.546392 -0.133498
C86   C     C_R   0.694297 0.756181 0.568136 -0.145419
C87   C     C_R   0.654334 0.773786 0.642263 -0.046380
C88   C     C_R   0.695757 0.736759 0.694203 -0.105189
C89   C     C_R   0.006354 0.441257 0.330555 -0.247468
C90   C     C_R   0.777736 0.683600 0.673043 -0.186258
H1    H     H_    0.032018 0.402943 0.266173 0.161948
H2    H     H_    0.305872 0.414581 0.074414 0.134794
H3    H     H_    0.528248 0.783791 0.471647 0.119871
H4    H     H_    0.363369 0.875952 0.682618 0.131222
H5    H     H_    0.355681 0.138807 0.675438 0.148638
H6    H     H_    0.658865 0.128115 0.337624 0.167004
H7    H     H_    0.455102 0.203106 0.502007 0.139595
H8    H     H_    0.568513 0.815376 0.388379 0.151158
H9    H     H_    0.418656 0.176667 0.591444 0.144512
H10   H     H_    0.206918 0.652227 0.705097 0.131807
H11   H     H_    0.334529 0.030704 0.710807 0.137269
H12   H     H_    0.704639 0.503685 0.020467 0.190750
H13   H     H_    0.927796 0.698193 0.699735 0.204056
H14   H     H_    0.782608 0.362316 0.286749 0.168951
H15   H     H_    0.816128 0.513630 0.536154 0.171561
H16   H     H_    0.110483 0.471460 0.362001 0.142602
H17   H     H_    0.094299 0.721538 0.796492 0.330296
H18   H     H_    0.761066 0.554918 0.872894 0.329889
H19   H     H_    0.291709 0.509802 0.863373 0.138444
H20   H     H_    0.261023 0.462049 0.717953 0.142216
H21   H     H_    0.366408 0.344445 0.603781 0.134984
H22   H     H_    0.504451 0.274012 0.635088 0.139894
H23   H     H_    0.549157 0.477598 0.183009 0.123494
H24   H     H_    0.535808 0.320090 0.779643 0.135112
H25   H     H_    0.727772 0.754602 0.341947 0.118000
H26   H     H_    0.801436 0.628911 0.209919 0.122078
H27   H     H_    0.762670 0.630976 0.075636 0.165160
H28   H     H_    0.648379 0.758456 0.073180 0.139079
H29   H     H_    0.573861 0.884949 0.204669 0.125563
H30   H     H_    0.684563 0.980316 0.187291 0.126039
H31   H     H_    0.815405 0.876328 0.102890 0.130247
H32   H     H_    0.924237 0.794489 0.162541 0.124035
H33   H     H_    0.902626 0.818028 0.307802 0.128521
H34   H     H_    0.338917 0.426667 0.212407 0.130231
H35   H     H_    0.772275 0.921933 0.393216 0.124390
H36   H     H_    0.922516 0.225041 0.192461 0.132545
H37   H     H_    0.953072 0.156868 0.039846 0.132565
H38   H     H_    0.955609 0.248694 0.968656 0.128292
H39   H     H_    0.927179 0.409571 0.050510 0.135228
H40   H     H_    0.896514 0.478832 0.203092 0.123218
H41   H     H_    0.806633 0.690923 0.489538 0.124767
H42   H     H_    0.662305 0.785047 0.528010 0.128095
H43   H     H_    0.591343 0.816397 0.659713 0.137125
H44   H     H_    0.664551 0.750072 0.751354 0.124812
H45   H     H_    0.337823 0.413900 0.946436 0.150417
H46   H     H_    0.809338 0.656177 0.714367 0.129794
H47   H     H_    0.672531 0.554361 0.777786 0.157880
H48   H     H_    0.451640 0.535474 0.829304 0.179526
H49   H     H_    0.629239 0.472867 0.100438 0.150655
H50   H     H_    0.186055 0.504708 0.451811 0.131908
O1    O     O_3   0.500000 0.500000 0.500000 -0.476056
O2    O     O_R   0.309700 0.585900 0.509470 -0.639371
O3    O     O_R   0.674980 0.398780 0.398780 -0.647761
O4    O     O_R   0.340340 0.501790 0.578230 -0.649458
O5    O     O_R   0.674980 0.513530 0.513520 -0.634189
O6    O     O_3   0.052301 0.705925 0.761225 -0.795091
O7    O     O_3   0.737635 0.539012 0.910527 -0.817669
O8    O     O_R   0.524320 0.685780 0.578230 -0.645775
O9    O     O_R   0.567430 0.291230 0.398780 -0.645089
O10   O     O_R   0.417260 0.532000 0.348010 -0.635302
O11   O     O_R   0.490990 0.490990 0.674980 -0.629496
O12   O     O_R   0.524330 0.409580 0.302030 -0.641510
O13   O     O_R   0.567420 0.567430 0.674980 -0.650849
O14   O     O_R   0.417260 0.693460 0.509470 -0.629531
O15   O     O_R   0.490990 0.329540 0.513520 -0.661621
Zn1   Zn    Zn3+2 0.565540 0.565550 0.565540 0.964056
Zn2   Zn    Zn3+2 0.412570 0.576510 0.467300 0.975336
Zn3   Zn    Zn3+2 0.456340 0.456340 0.565550 0.946931
Zn4   Zn    Zn3+2 0.565550 0.401610 0.401610 0.965178

loop_
_geom_bond_atom_site_label_1
_geom_bond_atom_site_label_2
_ccdc_geom_bond_type
C66   C68   A    
C87   C88   A    
C34   C56   A    
C52   O5    A    
O10   Zn2   S    
C40   O2    A    
C41   C42   A    
C87   H43   S    
C2    C84   S    
C35   C36   A    
C1    C11   S    
C43   H8    S    
C43   C44   A    
C6    C9    A    
C37   H7    S    
C81   C82   A    
C7    C8    A    
C85   C86   A    
C44   C64   S    
C80   H37   S    
C45   C57   A    
C26   C27   A    
C37   C38   A    
C66   H26   S    
C13   C18   A    
C75   H33   S    
C5    C6    A    
C32   C36   A    
C12   H14   S    
C10   C15   A    
C38   C39   A    
C68   H27   S    
C9    H50   S    
C77   C83   A    
C23   H15   S    
C69   H28   S    
C1    O12   A    
C73   C74   A    
C17   C19   A    
C63   H24   S    
O1    Zn4   S    
C19   C20   A    
C11   C30   A    
C68   C69   A    
C28   O15   A    
C41   C46   A    
C26   C29   A    
C9    C55   A    
C64   C70   A    
C89   H1    S    
C45   C89   A    
C7    O6    S    
C15   H48   S    
C40   C55   S    
C48   C50   A    
C4    O13   A    
O12   Zn4   S    
C35   C71   S    
C59   C60   A    
C21   C22   A    
O15   Zn3   S    
C76   H35   S    
C65   H25   S    
C61   C62   A    
C67   C78   A    
C84   C90   A    
C8    C55   A    
C52   C54   S    
C50   C51   A    
C77   C79   A    
C78   C89   A    
C33   C53   A    
C52   O3    A    
C74   C75   A    
C27   C31   A    
O11   Zn3   S    
C57   C77   S    
C28   C32   S    
C84   C85   A    
O14   Zn2   S    
C10   C14   A    
C5    C7    A    
H17   O6    S    
C86   C87   A    
C72   C73   A    
C42   C49   A    
C25   C26   A    
C53   H3    S    
C60   C61   A    
C82   H39   S    
C35   C39   A    
C75   C76   A    
O5    Zn1   S    
C29   C30   A    
C16   C33   S    
C90   H46   S    
C36   H6    S    
C47   C48   A    
C14   H47   S    
C70   H29   S    
C23   C34   A    
C72   H30   S    
C62   C63   A    
C17   C18   A    
C1    O10   A    
C34   C45   A    
C32   C37   A    
C24   C25   A    
O13   Zn1   S    
O9    Zn4   S    
C38   C41   A    
C12   C57   A    
O1    Zn2   S    
C48   C49   A    
C74   H32   S    
C79   H36   S    
C30   H34   S    
C83   H40   S    
C65   C66   A    
C73   H31   S    
C40   O4    A    
C81   H38   S    
C16   O14   A    
C42   C43   A    
C21   H49   S    
O2    Zn2   S    
O4    Zn3   S    
C61   H21   S    
C23   C54   A    
C3    H13   S    
C58   C63   A    
C15   C17   A    
C4    O11   A    
C46   C47   A    
C6    C67   A    
C47   H5    S    
C18   C22   A    
C88   C90   A    
C80   C81   A    
C3    C5    A    
O1    Zn1   S    
O3    Zn4   S    
C39   C44   A    
C20   C27   A    
C33   C51   A    
C56   C67   A    
C22   H12   S    
C78   H16   S    
C16   O8    A    
C64   C65   A    
H18   O7    S    
C46   H9    S    
C2    C3    A    
C58   C59   A    
C88   H44   S    
C71   C72   A    
C2    C56   A    
C85   H41   S    
C86   H42   S    
C71   C76   A    
C49   C53   A    
C59   H19   S    
C19   C24   A    
C8    H10   S    
C69   C70   A    
C25   H45   S    
C60   H20   S    
C51   H4    S    
C11   C31   A    
C79   C80   A    
O1    Zn3   S    
C28   O9    A    
C62   H22   S    
C20   C21   A    
C50   H11   S    
C24   C58   S    
C82   C83   A    
C13   O7    S    
O8    Zn1   S    
C13   C14   A    
C4    C10   S    
C31   H23   S    
C29   H2    S    
C12   C54   A    
