data_mof_unit_7987.cif
_audit_creation_date              2012-10-26T18:32:19-0400
_audit_creation_method            fapswitch 2.2
_symmetry_space_group_name_H-M    P1
_symmetry_Int_Tables_number       1
_space_group_crystal_system       triclinic
_cell_length_a                    12.450138
_cell_length_b                    13.259528
_cell_length_c                    15.88694
_cell_angle_alpha                 74.384069
_cell_angle_beta                  101.771342
_cell_angle_gamma                 116.96736
_cell_volume                      2240.9264715

loop_
_atom_site_label
_atom_site_type_symbol
_atom_type_description
_atom_site_fract_x
_atom_site_fract_y
_atom_site_fract_z
_atom_type_partial_charge
C1    C     C_R   0.854963 0.286790 0.504378 0.577152
C2    C     C_R   0.226443 0.839399 0.478215 -0.043885
C3    C     C_R   0.811987 0.075756 0.539876 0.088202
C4    C     C_R   0.002958 0.502892 0.659051 0.578040
C5    C     C_R   0.728453 0.961005 0.562541 -0.087989
C6    C     C_R   0.604281 0.930133 0.548789 0.089049
C7    C     C_R   0.560170 0.013410 0.501589 0.071304
C8    C     C_R   0.643653 0.130392 0.478403 -0.023016
C9    C     C_R   0.434123 0.985027 0.481123 0.030045
C10   C     C_R   0.392767 0.072488 0.460647 0.000118
C11   C     C_R   0.475242 0.185950 0.431408 -0.124152
C12   C     C_3   0.127010 0.499454 0.071504 0.037016
C13   C     C_R   0.596157 0.210856 0.431147 -0.112575
C14   C     C_R   0.349315 0.874946 0.469665 0.013516
C15   C     C_R   0.186633 0.924477 0.478225 -0.047620
C16   C     C_R   0.144694 0.714439 0.487521 0.537192
C17   C     C_R   0.770345 0.163276 0.504101 0.023084
C18   C     C_R   0.339160 0.321938 0.641282 -0.130443
C19   C     C_R   0.755518 0.640440 0.376522 0.034799
C20   C     C_R   0.649104 0.649357 0.335956 0.007210
C21   C     C_R   0.539966 0.580727 0.374736 0.091680
C22   C     C_R   0.541704 0.515481 0.462004 -0.021850
C23   C     C_3   0.004545 0.506042 0.082834 0.027278
C24   C     C_R   0.649365 0.496286 0.496619 0.135847
C25   C     C_R   0.438794 0.462849 0.513669 -0.011539
C26   C     C_R   0.436652 0.378638 0.590103 0.013916
C27   C     C_R   0.531705 0.349768 0.617566 -0.152001
C28   C     C_R   0.999806 0.501068 0.340478 0.542571
C29   C     C_R   0.636720 0.405742 0.575632 0.009499
C30   C     C_R   0.339210 0.492848 0.496363 0.046625
C31   C     C_R   0.243953 0.352470 0.619700 0.142819
C32   C     C_3   0.118937 0.484817 0.973000 -0.018172
C33   C     C_3   0.886961 0.409501 0.951030 -0.134188
C34   C     C_3   0.998846 0.622876 0.022639 0.119536
C35   C     C_3   0.889957 0.396992 0.053221 -0.042436
C36   C     C_1   0.999380 0.502664 0.250847 0.006395
C37   C     C_3   0.009043 0.509898 0.915775 0.024380
C38   C     C_1   0.234874 0.558902 0.932485 0.229232
C39   C     C_1   0.236579 0.604107 0.091477 0.231959
C40   C     C_1   0.062264 0.893387 0.490232 0.233576
C41   C     C_1   0.226887 0.131744 0.449947 0.195690
C42   C     C_1   0.384159 0.817134 0.422115 0.257279
C43   C     C_1   0.100608 0.366456 0.970922 0.214374
C44   C     C_1   0.143887 0.292175 0.672997 0.286790
C45   C     C_3   0.020011 0.632273 0.923677 0.183410
C46   C     C_1   0.650938 0.722243 0.249943 0.248752
C47   C     C_1   0.713639 0.350291 0.622726 0.284958
C48   C     C_1   0.777906 0.419947 0.898517 0.230142
C49   C     C_1   0.895968 0.286265 0.099264 0.235197
C50   C     C_1   0.774715 0.381844 0.079524 0.219855
C51   C     C_1   0.090559 0.725754 0.058542 0.248180
C52   C     C_1   0.001011 0.504075 0.175500 -0.013925
C53   C     C_1   0.008218 0.507224 0.823412 -0.044889
C54   C     C_1   0.006392 0.505019 0.748332 0.007474
C55   C     C_R   0.268819 0.042415 0.462356 -0.023160
Cu1   Cu    Cu3+1 0.098280 0.475420 0.519630 1.009778
Cu2   Cu    Cu3+1 0.901720 0.524580 0.480370 0.972217
H1    H     H_    0.445843 0.254404 0.403344 0.139236
H2    H     H_    0.151862 0.412370 0.200061 0.242366
H3    H     H_    0.812461 0.576519 0.984718 0.278876
H4    H     H_    0.885587 0.706868 0.008064 0.241809
H5    H     H_    0.954231 0.031495 0.591398 0.237700
H6    H     H_    0.972174 0.126379 0.495431 0.264633
H7    H     H_    0.547175 0.805343 0.656797 0.249037
H8    H     H_    0.539570 0.756227 0.567109 0.241741
H9    H     H_    0.361821 0.476523 0.338848 0.238626
H10   H     H_    0.401003 0.622798 0.310298 0.269991
H11   H     H_    0.145539 0.804492 0.898992 0.242408
H12   H     H_    0.760033 0.894977 0.595172 0.132224
H13   H     H_    0.154999 0.725060 0.838542 0.237952
H14   H     H_    0.946921 0.675217 0.795921 0.241827
H15   H     H_    0.938062 0.743502 0.866123 0.231871
H16   H     H_    0.650346 0.294275 0.393881 0.166642
H17   H     H_    0.523390 0.281677 0.676206 0.131217
H18   H     H_    0.337870 0.254920 0.698785 0.106833
H19   H     H_    0.334814 0.560223 0.442570 0.152270
H20   H     H_    0.837823 0.688796 0.343830 0.142913
H21   H     H_    0.878404 0.327474 0.938283 0.127326
H22   H     H_    0.221508 0.398190 0.127405 0.252947
N1    N     N_R   0.246300 0.438200 0.549400 -0.248344
N2    N     N_3   0.939183 0.103662 0.556424 -0.574128
N3    N     N_3   0.524400 0.816024 0.588901 -0.616504
N4    N     N_1   0.086531 0.274523 0.969106 -0.234642
N5    N     N_1   0.063953 0.243070 0.716399 -0.246000
N6    N     N_3   0.429655 0.558166 0.317244 -0.621224
N7    N     N_1   0.652353 0.780666 0.180982 -0.219339
N8    N     N_1   0.767752 0.299178 0.664648 -0.281939
N9    N     N_1   0.692779 0.427576 0.857347 -0.260318
N10   N     N_1   0.899513 0.199209 0.135146 -0.220481
N11   N     N_1   0.684958 0.369515 0.100345 -0.247853
N12   N     N_R   0.754300 0.561180 0.451130 -0.252774
N13   N     N_3   0.141339 0.723036 0.901896 -0.607470
N14   N     N_3   0.929429 0.663374 0.860329 -0.619096
N15   N     N_1   0.160311 0.806026 0.086369 -0.247839
N16   N     N_3   0.141799 0.401355 0.135662 -0.604867
N17   N     N_1   0.325101 0.616143 0.900943 -0.248180
N18   N     N_1   0.322812 0.683979 0.107434 -0.210755
N19   N     N_3   0.881240 0.623154 0.027341 -0.607338
N20   N     N_1   0.963044 0.868805 0.499797 -0.307435
N21   N     N_1   0.194142 0.203469 0.439839 -0.309849
N22   N     N_1   0.414226 0.774425 0.382650 -0.327661
O1    O     O_R   0.972520 0.318130 0.524690 -0.454502
O2    O     O_R   0.806530 0.359650 0.491530 -0.527606
O3    O     O_R   0.083030 0.479240 0.637150 -0.485987
O4    O     O_R   0.917040 0.520750 0.603990 -0.492137
O5    O     O_R   0.193470 0.640350 0.508470 -0.492219
O6    O     O_R   0.027480 0.681870 0.475310 -0.493956
O7    O     O_R   0.082960 0.479250 0.396010 -0.506224
O8    O     O_R   0.916970 0.520760 0.362850 -0.508074

loop_
_geom_bond_atom_site_label_1
_geom_bond_atom_site_label_2
_ccdc_geom_bond_type
Cu2   O4    S    
C42   N22   T    
C8    C13   A    
C6    N3    S    
C27   C29   A    
C43   N4    T    
H4    N19   S    
C18   C26   A    
C45   N14   S    
H9    N6    S    
C23   C52   S    
C7    C8    A    
C53   C54   T    
H22   N16   S    
C12   C23   S    
C34   C51   S    
C18   H18   S    
C29   C47   S    
H3    N19   S    
H6    N2    S    
C5    C6    A    
C33   C35   S    
C33   H21   S    
C39   N18   T    
Cu1   Cu2   S    
C19   H20   S    
C45   N13   S    
C24   C29   A    
Cu1   O7    S    
C5    H12   S    
C16   O6    A    
H11   N13   S    
C50   N11   T    
Cu2   O8    S    
C19   C20   A    
C22   C25   A    
C35   C49   S    
C48   N9    T    
C12   N16   S    
C32   C38   S    
C27   H17   S    
C2    C16   S    
C9    C10   A    
C1    O2    A    
C36   C52   T    
C16   O5    A    
C14   C42   S    
C37   C53   S    
C21   C22   A    
C12   C32   S    
H2    N16   S    
C40   N20   T    
Cu2   O2    S    
C21   N6    S    
H10   N6    S    
C31   C44   S    
C31   N1    A    
Cu1   O3    S    
C3    C5    A    
C25   C26   A    
C33   C37   S    
C15   C55   A    
C9    C14   A    
C3    N2    S    
C10   C55   A    
C30   H19   S    
C23   C34   S    
Cu1   O5    S    
C35   C50   S    
C26   C27   A    
C41   N21   T    
C34   C45   S    
C32   C37   S    
C2    C15   A    
H7    N3    S    
H15   N14   S    
Cu2   O6    S    
H5    N2    S    
C13   H16   S    
C23   C35   S    
C22   C24   A    
C37   C45   S    
C11   H1    S    
C24   N12   A    
C25   C30   A    
C7    C9    A    
Cu2   N12   S    
C4    C54   S    
H13   N13   S    
C49   N10   T    
C44   N5    T    
C6    C7    A    
H14   N14   S    
C28   O8    A    
C4    O4    A    
C1    C17   S    
C8    C17   A    
Cu1   N1    S    
C12   C39   S    
C30   N1    A    
C11   C13   A    
H8    N3    S    
C28   O7    A    
C41   C55   S    
C4    O3    A    
C34   N19   S    
C32   C43   S    
C3    C17   A    
C2    C14   A    
C15   C40   S    
C19   N12   A    
C10   C11   A    
C51   N15   T    
Cu1   O1    S    
C20   C21   A    
C28   C36   S    
C38   N17   T    
C33   C48   S    
C18   C31   A    
C1    O1    A    
C20   C46   S    
C47   N8    T    
C46   N7    T    
