data_mof_unit_58682.cif
_audit_creation_date              2012-12-11T20:24:00-0500
_audit_creation_method            fapswitch 2.2
_symmetry_space_group_name_H-M    P1
_symmetry_Int_Tables_number       1
_space_group_crystal_system       triclinic
_cell_length_a                    8.263007
_cell_length_b                    17.305641
_cell_length_c                    18.994704
_cell_angle_alpha                 102.772009
_cell_angle_beta                  91.742048
_cell_angle_gamma                 98.375625
_cell_volume                      2615.19868542

loop_
_atom_site_label
_atom_site_type_symbol
_atom_type_description
_atom_site_fract_x
_atom_site_fract_y
_atom_site_fract_z
_atom_type_partial_charge
Ba1   Ba    Ba6+2 0.854170 0.535040 0.467640 1.646936
Ba2   Ba    Ba6+2 0.335670 0.465030 0.532370 1.653797
C1    C     C_3   0.722408 0.813916 0.271947 -0.061160
C2    C     C_3   0.666358 0.740565 0.302588 0.334039
C3    C     C_3   0.461073 0.340142 0.307937 0.341407
C4    C     C_3   0.453370 0.320189 0.225655 -0.361987
C5    C     C_3   0.070562 0.300266 0.718976 0.359121
C6    C     C_3   0.101064 0.279257 0.791428 -0.354828
C7    C     C_3   0.536429 0.247699 0.666494 0.355776
C8    C     C_3   0.486534 0.164399 0.680116 -0.338206
C9    C     C_R   0.050329 0.547703 0.804252 -0.165886
C10   C     C_R   0.017389 0.531148 0.728586 0.041148
C11   C     C_R   0.850418 0.432749 0.808633 -0.153895
C12   C     C_3   0.120028 0.707874 0.282009 0.374776
C13   C     C_R   0.783672 0.436018 0.740938 0.004591
C14   C     C_R   0.337324 0.572664 0.195448 -0.166934
C15   C     C_R   0.405611 0.562716 0.260523 0.001348
C16   C     C_R   0.127827 0.460264 0.196220 -0.148490
C17   C     C_R   0.168196 0.470131 0.271071 0.053745
C18   C     C_R   0.978443 0.493344 0.845669 0.007299
C19   C     C_R   0.877404 0.478093 0.698231 -0.240603
C20   C     C_R   0.205807 0.515807 0.156741 0.000617
C21   C     C_R   0.313733 0.517617 0.300898 -0.237443
C22   C     C_R   0.754444 0.456693 0.960628 -0.080154
C23   C     C_3   0.096655 0.738435 0.213670 -0.381820
C24   C     C_R   0.650906 0.429369 0.009136 -0.080361
C25   C     C_R   0.702473 0.446667 0.081344 -0.069004
C26   C     C_R   0.860463 0.486238 0.102969 -0.077101
C27   C     C_R   0.980476 0.493415 0.052909 0.013079
C28   C     C_R   0.924808 0.482548 0.978435 0.036526
C29   C     C_R   0.149696 0.514875 0.077490 -0.016282
C30   C     C_R   0.261597 0.533265 0.024830 0.037338
C31   C     C_R   0.205941 0.523671 0.950295 0.017611
C32   C     C_R   0.036549 0.499460 0.925488 -0.017436
C33   C     C_R   0.431577 0.559934 0.043010 -0.082442
C34   C     C_3   0.245517 0.712709 0.630378 0.304753
C35   C     C_R   0.535512 0.588633 0.995314 -0.075296
C36   C     C_R   0.484246 0.573869 0.923321 -0.060899
C37   C     C_R   0.326349 0.535279 0.900866 -0.077172
C38   C     C_2   0.444624 0.716641 0.477330 -0.256307
C39   C     C_3   0.367311 0.763672 0.430983 -0.045506
C40   C     C_2   0.419205 0.852369 0.455666 -0.090025
C41   C     C_2   0.555879 0.882451 0.499728 -0.018266
C42   C     C_2   0.642476 0.826415 0.530645 -0.130573
C43   C     C_1   0.578304 0.749692 0.519884 0.065601
C44   C     C_R   0.801758 0.138212 0.531567 -0.105209
C45   C     C_3   0.263333 0.804373 0.648793 -0.271673
C46   C     C_R   0.860807 0.219910 0.541658 0.007366
C47   C     C_R   0.620299 0.237401 0.474142 0.019325
C48   C     C_R   0.560881 0.155932 0.463866 -0.140972
C49   C     C_R   0.649633 0.105975 0.493307 0.015566
C50   C     C_2   0.622041 0.969479 0.518304 -0.089089
C51   C     C_2   0.585049 0.019658 0.477399 -0.072990
C52   C     C_R   0.767358 0.269760 0.515178 -0.289795
C53   C     C_3   0.950859 0.284269 0.365444 0.284159
C54   C     C_3   0.927784 0.191600 0.345106 0.016348
C55   C     C_3   0.780340 0.679963 0.699614 0.495757
C56   C     C_3   0.669894 0.627032 0.738841 -0.338957
H1    H     H_    0.711490 0.753076 0.360405 0.055185
H2    H     H_    0.297079 0.826514 0.599856 -0.009041
H3    H     H_    0.143025 0.822461 0.663761 0.099824
H4    H     H_    0.832439 0.303863 0.379778 -0.010680
H5    H     H_    0.039183 0.305536 0.413451 0.033264
H6    H     H_    0.901867 0.171638 0.395744 0.002629
H7    H     H_    0.851738 0.640877 0.662731 -0.000202
H8    H     H_    0.857962 0.829186 0.278242 0.126245
H9    H     H_    0.571962 0.658835 0.764749 0.143302
H10   H     H_    0.741377 0.608897 0.781145 0.028534
H11   H     H_    0.613321 0.572424 0.698830 0.137396
H12   H     H_    0.530379 0.730351 0.298538 -0.052347
H13   H     H_    0.339410 0.352756 0.325850 0.020204
H14   H     H_    0.554102 0.394657 0.327188 0.063248
H15   H     H_    0.366057 0.264326 0.203529 0.169212
H16   H     H_    0.412286 0.369917 0.205233 0.048679
H17   H     H_    0.576513 0.312448 0.206276 0.099719
H18   H     H_    0.682991 0.799199 0.213343 0.091082
H19   H     H_    0.162895 0.705498 0.169624 0.074561
H20   H     H_    0.142894 0.360112 0.720348 0.078715
H21   H     H_    0.937886 0.302140 0.711193 -0.063657
H22   H     H_    0.232191 0.274333 0.800187 0.158773
H23   H     H_    0.068890 0.326578 0.836070 0.067371
H24   H     H_    0.024881 0.221193 0.792644 0.113488
H25   H     H_    0.671829 0.258337 0.664790 -0.078381
H26   H     H_    0.478231 0.249548 0.613534 0.078798
H27   H     H_    0.527708 0.118786 0.636531 0.073587
H28   H     H_    0.351258 0.150851 0.681159 0.154881
H29   H     H_    0.055601 0.645086 0.272971 0.066186
H30   H     H_    0.543911 0.160961 0.732747 0.117153
H31   H     H_    0.139229 0.599674 0.829034 0.070656
H32   H     H_    0.797551 0.384115 0.832016 0.068369
H33   H     H_    0.391570 0.623565 0.175418 0.063487
H34   H     H_    0.031029 0.412258 0.170832 0.070188
H35   H     H_    0.835583 0.473463 0.642709 0.069559
H36   H     H_    0.360392 0.516167 0.354370 0.059791
H37   H     H_    0.692939 0.461466 0.911767 0.082180
H38   H     H_    0.523859 0.404840 0.992446 0.080554
H39   H     H_    0.615816 0.435104 0.120719 0.097612
H40   H     H_    0.253507 0.708610 0.290666 -0.072492
H41   H     H_    0.889492 0.511942 0.159159 0.129691
H42   H     H_    0.493502 0.554399 0.091302 0.078565
H43   H     H_    0.662519 0.612851 0.012399 0.077319
H44   H     H_    0.570479 0.586789 0.884155 0.081751
H45   H     H_    0.300968 0.514065 0.844129 0.130531
H46   H     H_    0.502729 0.997586 0.429438 0.078977
H47   H     H_    0.755569 0.849768 0.564122 0.096131
H48   H     H_    0.877766 0.100142 0.550531 0.078662
H49   H     H_    0.705834 0.991803 0.565942 0.081451
H50   H     H_    0.347254 0.890270 0.433954 0.081195
H51   H     H_    0.965426 0.728408 0.195052 0.135662
H52   H     H_    0.446995 0.131274 0.431919 0.098821
H53   H     H_    0.402875 0.652505 0.466394 0.074998
H54   H     H_    0.814514 0.332845 0.522128 0.070694
H55   H     H_    0.146170 0.803391 0.223861 0.120184
H56   H     H_    0.365489 0.693918 0.618293 -0.011413
H57   H     H_    0.159403 0.689835 0.581752 0.069471
O1    O     O_2   0.873520 0.443690 0.322540 -0.459768
O2    O     O_3   0.681680 0.719758 0.662623 -0.629975
O3    O     O_3   0.057753 0.756777 0.341281 -0.588391
O4    O     O_2   0.316180 0.556340 0.677510 -0.469497
O5    O     O_3   0.067690 0.549150 0.588340 -0.496527
O6    O     O_3   0.526120 0.408390 0.624220 -0.469577
O7    O     O_3   0.185692 0.683974 0.689476 -0.615809
O8    O     O_3   0.608980 0.401570 0.457310 -0.487813
O9    O     O_3   0.103650 0.364840 0.585560 -0.491978
O10   O     O_2   0.192903 0.222959 0.530044 -0.462152
O11   O     O_3   0.118969 0.241511 0.663839 -0.595511
O12   O     O_3   0.122020 0.450920 0.411670 -0.493126
O13   O     O_3   0.580730 0.598500 0.542710 -0.490694
O14   O     O_2   0.336360 0.303040 0.452600 -0.453221
O15   O     O_3   0.502800 0.274936 0.333572 -0.632793
O16   O     O_2   0.460206 0.456876 0.756813 -0.510623
O17   O     O_3   0.483504 0.304567 0.722108 -0.591179
O18   O     O_3   0.663590 0.591680 0.375790 -0.467115
O19   O     O_2   0.708355 0.517368 0.247269 -0.504136
O20   O     O_3   0.008215 0.315908 0.307484 -0.628036
O21   O     O_3   0.728970 0.673830 0.262905 -0.611955
O22   O     O_2   0.853350 0.696990 0.547450 -0.471045
O23   O     O_3   0.086060 0.635230 0.414460 -0.482654
O24   O     O_2   0.052426 0.782640 0.483622 -0.480335
P1    P     P_3+3 0.040700 0.421000 0.332140 0.979803
P2    P     P_3+3 0.677490 0.686860 0.568200 0.982501
P3    P     P_3+3 0.140014 0.736944 0.420265 0.960062
P4    P     P_3+3 0.149010 0.579070 0.667870 0.977349
P5    P     P_3+3 0.068923 0.261661 0.580249 0.960362
P6    P     P_3+3 0.625398 0.587930 0.285211 0.930188
P7    P     P_3+3 0.516762 0.301211 0.428361 0.952809
P8    P     P_3+3 0.565861 0.400151 0.712170 0.930132
C57   C     C_2   0.389497 0.842331 0.710665 0.913904
O25   O     O_2   0.374932 0.823890 0.768853 -0.554715
O26   O     O_R   0.521228 0.900073 0.703555 -0.748243
H58   H     H_    0.517608 0.915271 0.655161 0.261489
N1    N     N_2   0.786635 0.155898 0.294441 -0.457785
H59   H     H_    0.675651 0.158252 0.317501 0.203106
C58   C     C_3   0.784007 0.170324 0.222161 -0.160421
H60   H     H_    0.673074 0.133908 0.190312 0.091284
H61   H     H_    0.778386 0.234271 0.224022 0.136613
H62   H     H_    0.892173 0.152036 0.193743 0.144028
C59   C     C_2   0.081317 0.158879 0.320109 0.915827
O27   O     O_2   0.152117 0.178916 0.269889 -0.618920
O28   O     O_R   0.141861 0.104716 0.354809 -0.766696
H63   H     H_    0.242251 0.085036 0.332201 0.293868
N2    N     N_2   0.895452 0.738614 0.751342 -0.420215
H64   H     H_    0.972037 0.713283 0.780400 0.185465
C60   C     C_3   0.832329 0.805433 0.796100 -0.150084
H65   H     H_    0.739869 0.783778 0.831416 0.102891
H66   H     H_    0.934567 0.846056 0.830928 0.101029
H67   H     H_    0.777263 0.840572 0.762071 0.185326
N3    N     N_2   0.651658 0.882088 0.309515 -0.448329
H68   H     H_    0.684010 0.897510 0.364202 0.208787
C61   C     C_3   0.674287 0.950698 0.277052 -0.220628
H69   H     H_    0.608475 0.997934 0.307113 0.116025
H70   H     H_    0.623385 0.933539 0.219973 0.117498
H71   H     H_    0.806695 0.975503 0.279195 0.138013

loop_
_geom_bond_atom_site_label_1
_geom_bond_atom_site_label_2
_ccdc_geom_bond_type
C43   P2    S    
C53   C54   S    
C8    H27   S    
C38   C39   S    
C11   H32   S    
O15   P7    S    
O4    P4    D    
C39   C40   S    
C17   C21   A    
Ba1   O13   S    
C34   H56   S    
C2    H12   S    
C4    H17   S    
Ba2   O8    S    
C42   C43   D    
C46   C52   A    
C8    H30   S    
C24   C25   A    
C31   C37   A    
C61   H70   S    
C23   H19   S    
C3    C4    S    
C5    H21   S    
C60   H65   S    
C33   C35   A    
C35   C36   A    
C57   O26   S    
C12   H29   S    
C16   C17   A    
C3    H14   S    
C36   C37   A    
O24   P3    D    
C41   C50   S    
C7    O17   S    
C61   H69   S    
O10   P5    D    
C47   C52   A    
C53   H4    S    
C48   H52   S    
Ba2   O14   S    
C46   P5    S    
C34   C45   S    
Ba1   Ba2   S    
C13   P8    S    
C54   C59   S    
C45   H2    S    
C8    H28   S    
C55   N2    S    
C50   H49   S    
C17   P1    S    
C12   O3    S    
C53   H5    S    
C54   H6    S    
C4    H16   S    
Ba1   O1    S    
C54   N1    S    
C7    C8    S    
C58   H61   S    
O21   P6    S    
C23   H51   S    
C2    O21   S    
C18   C32   S    
Ba2   O12   S    
N3    C61   S    
C12   C23   S    
C59   O28   S    
Ba2   P4    S    
O20   P1    S    
O5    P4    S    
O7    P4    S    
Ba1   O18   S    
C1    N3    S    
C12   H40   S    
C38   H53   S    
N2    C60   S    
C24   H38   S    
C38   C43   D    
C44   C46   A    
C9    C18   A    
C20   C29   S    
C28   C32   A    
C6    H23   S    
C30   C33   A    
C5    C6    S    
C57   O25   D    
C58   H62   S    
O23   P3    S    
C22   H37   S    
Ba2   O5    S    
C14   C15   A    
C48   C49   A    
C42   H47   S    
C44   C49   A    
C49   C51   S    
Ba1   O5    S    
C34   O7    S    
C41   C42   S    
Ba1   O8    S    
C27   C28   A    
C23   H55   S    
C9    H31   S    
C29   C30   A    
O8    P7    S    
C9    C10   A    
O6    P8    S    
C31   C32   A    
C58   H60   S    
C52   H54   S    
C15   C21   A    
O16   P8    D    
C1    H18   S    
O14   P7    D    
Ba1   P1    S    
C7    H25   S    
C5    H20   S    
C26   H41   S    
C56   H10   S    
N3    H68   S    
N1    C58   S    
C11   C13   A    
C15   P6    S    
C6    H24   S    
C1    H8    S    
O18   P6    S    
O12   P1    S    
C33   H42   S    
C26   C27   A    
Ba1   O22   S    
C50   C51   D    
C4    H15   S    
C55   O2    S    
N2    H64   S    
O13   P2    S    
Ba2   O6    S    
O19   P6    D    
O22   P2    D    
C45   C57   S    
C25   H39   S    
C14   C20   A    
C11   C18   A    
C16   C20   A    
O17   P8    S    
C60   H67   S    
Ba1   O12   S    
C55   H7    S    
O3    P3    S    
C45   H3    S    
Ba2   O4    S    
C10   P4    S    
C56   H11   S    
C37   H45   S    
Ba2   O9    S    
O26   H58   S    
C21   H36   S    
C16   H34   S    
O28   H63   S    
C60   H66   S    
C39   P3    S    
C27   C29   A    
C30   C31   A    
C35   H43   S    
C22   C24   A    
C55   C56   S    
C59   O27   D    
C19   H35   S    
C53   O20   S    
C44   H48   S    
C2    H1    S    
O11   P5    S    
C47   P7    S    
C5    O11   S    
C36   H44   S    
C22   C28   A    
Ba1   P2    S    
C7    H26   S    
C10   C19   A    
C3    O15   S    
C56   H9    S    
C13   C19   A    
N1    H59   S    
C14   H33   S    
C3    H13   S    
C47   C48   A    
C40   C41   D    
C25   C26   A    
C6    H22   S    
O2    P2    S    
O9    P5    S    
C51   H46   S    
C34   H57   S    
C40   H50   S    
Ba1   O23   S    
C1    C2    S    
O1    P1    D    
C61   H71   S    
Ba2   O13   S    
