data_mof_unit_62520.cif
_audit_creation_date              2012-12-10T17:50:06-0500
_audit_creation_method            fapswitch 2.2
_symmetry_space_group_name_H-M    P1
_symmetry_Int_Tables_number       1
_space_group_crystal_system       triclinic
_cell_length_a                    27.781076
_cell_length_b                    36.309707
_cell_length_c                    27.782326
_cell_angle_alpha                 90.000492
_cell_angle_beta                  89.999863
_cell_angle_gamma                 90.005606
_cell_volume                      28024.663585

loop_
_atom_site_label
_atom_site_type_symbol
_atom_type_description
_atom_site_fract_x
_atom_site_fract_y
_atom_site_fract_z
_atom_type_partial_charge
C1    C     C_R   0.500000 0.650426 0.249999 0.830734
C2    C     C_R   0.999998 0.650426 0.249997 0.830363
C3    C     C_1   0.499978 0.249995 0.431100 -0.120779
C4    C     C_1   0.499975 0.250003 0.931099 -0.121610
C5    C     C_1   0.499976 0.250003 0.068901 -0.121744
C6    C     C_1   0.499978 0.749995 0.068900 -0.118580
C7    C     C_1   0.499979 0.749995 0.931100 -0.118480
C8    C     C_1   0.999975 0.750003 0.931099 -0.121754
C9    C     C_1   0.999976 0.750002 0.068901 -0.121739
C10   C     C_1   0.999978 0.249994 0.068900 -0.118693
C11   C     C_1   0.999979 0.249995 0.931100 -0.118687
C12   C     C_1   0.999975 0.250003 0.431099 -0.121606
C13   C     C_R   0.000006 0.349575 0.249994 0.827207
C14   C     C_1   0.999976 0.250002 0.568901 -0.121240
C15   C     C_1   0.999978 0.749995 0.568900 -0.120804
C16   C     C_1   0.999978 0.749995 0.431100 -0.118844
C17   C     C_1   0.499972 0.750005 0.474547 0.022987
C18   C     C_1   0.499972 0.750004 0.525453 0.022888
C19   C     C_1   0.499975 0.249991 0.525453 0.024641
C20   C     C_1   0.499975 0.249991 0.474547 0.024060
C21   C     C_1   0.499971 0.250005 0.974547 0.022739
C22   C     C_1   0.499972 0.250005 0.025453 0.022809
C23   C     C_1   0.499975 0.749992 0.025453 0.025166
C24   C     C_R   0.000002 0.349587 0.750003 0.825426
C25   C     C_1   0.499975 0.749992 0.974547 0.025141
C26   C     C_1   0.999971 0.750004 0.974547 0.022801
C27   C     C_1   0.999971 0.750004 0.025453 0.022704
C28   C     C_1   0.999975 0.249991 0.025453 0.025025
C29   C     C_1   0.999975 0.249991 0.974547 0.025076
C30   C     C_1   0.999972 0.250004 0.474547 0.022845
C31   C     C_1   0.999972 0.250004 0.525453 0.022881
C32   C     C_1   0.999974 0.749992 0.525453 0.024029
C33   C     C_1   0.999975 0.749992 0.474547 0.024644
C34   C     C_R   0.499986 0.750001 0.120644 0.823958
C35   C     C_R   0.000001 0.150426 0.249999 0.830586
C36   C     C_R   0.499986 0.750002 0.879356 0.823958
C37   C     C_R   0.499985 0.249997 0.879355 0.826042
C38   C     C_R   0.499985 0.249997 0.120645 0.825220
C39   C     C_R   0.499986 0.250002 0.620644 0.823979
C40   C     C_R   0.499986 0.250002 0.379356 0.824126
C41   C     C_R   0.499985 0.749997 0.379355 0.824763
C42   C     C_R   0.499985 0.749997 0.620645 0.826052
C43   C     C_R   0.999986 0.750002 0.620644 0.824115
C44   C     C_R   0.999986 0.750002 0.379356 0.823864
C45   C     C_R   0.999985 0.249997 0.379355 0.826097
C46   C     C_R   0.000001 0.150426 0.750000 0.830778
C47   C     C_R   0.999985 0.249997 0.620645 0.824735
C48   C     C_R   0.999986 0.250001 0.120644 0.824004
C49   C     C_R   0.999986 0.250002 0.879356 0.823887
C50   C     C_R   0.999985 0.749997 0.879355 0.825246
C51   C     C_R   0.999985 0.749997 0.120645 0.826055
C52   C     C_R   0.370641 0.749999 0.249999 0.825426
C53   C     C_R   0.370641 0.749999 0.750000 0.825107
C54   C     C_R   0.370641 0.249999 0.749999 0.824935
C55   C     C_R   0.370641 0.249999 0.250000 0.825973
C56   C     C_R   0.870641 0.749999 0.750000 0.825943
C57   C     C_R   0.000006 0.849575 0.749993 0.827585
C58   C     C_R   0.870641 0.749999 0.250001 0.824923
C59   C     C_R   0.870641 0.249999 0.250000 0.825100
C60   C     C_R   0.870641 0.249999 0.750001 0.825580
C61   C     C_R   0.629352 0.750000 0.249999 0.823942
C62   C     C_R   0.629352 0.750000 0.750002 0.826136
C63   C     C_R   0.629352 0.250000 0.749998 0.826211
C64   C     C_R   0.629352 0.250000 0.250002 0.824963
C65   C     C_R   0.129352 0.750000 0.749998 0.825047
C66   C     C_R   0.129352 0.750000 0.250002 0.826208
C67   C     C_R   0.129352 0.250000 0.249998 0.826219
C68   C     C_R   0.000007 0.849575 0.250006 0.827219
C69   C     C_R   0.129352 0.250000 0.750001 0.823983
C70   C     C_1   0.681096 0.750001 0.249997 -0.120245
C71   C     C_1   0.681096 0.750000 0.750004 -0.120118
C72   C     C_1   0.681096 0.250001 0.749996 -0.119191
C73   C     C_1   0.681096 0.249999 0.250004 -0.120735
C74   C     C_1   0.181096 0.749999 0.749996 -0.120597
C75   C     C_1   0.181096 0.750001 0.250003 -0.119406
C76   C     C_1   0.181096 0.250000 0.249996 -0.119900
C77   C     C_1   0.181096 0.250001 0.750003 -0.120167
C78   C     C_1   0.724544 0.750000 0.249998 0.023685
C79   C     C_3   0.477707 0.977707 0.302129 -0.186950
C80   C     C_1   0.724544 0.749998 0.750003 0.023635
C81   C     C_1   0.724544 0.250000 0.749997 0.024718
C82   C     C_1   0.724544 0.249997 0.250003 0.023749
C83   C     C_1   0.224544 0.749997 0.749996 0.023852
C84   C     C_1   0.224544 0.750000 0.250003 0.024522
C85   C     C_1   0.224544 0.249999 0.249997 0.023837
C86   C     C_1   0.224544 0.250000 0.750002 0.023726
C87   C     C_1   0.775449 0.749998 0.250000 0.024244
C88   C     C_1   0.775450 0.749997 0.750001 0.023480
C89   C     C_1   0.775450 0.249998 0.750000 0.025215
C90   C     C_3   0.485722 0.977945 0.695859 -0.198781
C91   C     C_1   0.775449 0.249996 0.250001 0.024437
C92   C     C_1   0.275449 0.749996 0.749999 0.024489
C93   C     C_1   0.275450 0.749998 0.250000 0.025024
C94   C     C_1   0.275450 0.249997 0.249999 0.023656
C95   C     C_1   0.275449 0.249998 0.750000 0.024240
C96   C     C_1   0.818897 0.749997 0.250002 -0.119384
C97   C     C_1   0.818897 0.749997 0.749999 -0.121298
C98   C     C_1   0.818897 0.249998 0.750001 -0.118285
C99   C     C_1   0.818897 0.249996 0.249999 -0.119178
C100  C     C_1   0.318897 0.749996 0.750001 -0.119123
C101  C     C_3   0.477801 0.022245 0.698153 -0.181317
C102  C     C_1   0.318897 0.749998 0.249999 -0.118465
C103  C     C_1   0.318897 0.249997 0.250001 -0.121149
C104  C     C_1   0.318897 0.249997 0.749999 -0.119450
C105  C     C_3   0.550381 0.978107 0.241803 -0.288656
C106  C     C_3   0.549331 0.979045 0.765239 -0.279869
C107  C     C_3   0.550913 0.021940 0.757034 -0.279631
C108  C     C_3   0.549488 0.021168 0.235746 -0.292763
C109  C     C_3   0.546678 0.479038 0.727800 -0.280240
C110  C     C_3   0.548456 0.479040 0.267873 -0.280126
C111  C     C_3   0.550493 0.521935 0.259768 -0.279720
C112  C     C_R   0.499999 0.650426 0.749999 0.830132
C113  C     C_3   0.486509 0.021961 0.304899 -0.187281
C114  C     C_3   0.549453 0.521934 0.735685 -0.279679
C115  C     C_3   0.048572 0.979040 0.732449 -0.280116
C116  C     C_3   0.048553 0.979040 0.267621 -0.279950
C117  C     C_3   0.050547 0.021935 0.259504 -0.279779
C118  C     C_3   0.050552 0.021935 0.740568 -0.279645
C119  C     C_3   0.048018 0.479035 0.231002 -0.280131
C120  C     C_3   0.050660 0.478106 0.755951 -0.288726
C121  C     C_3   0.050040 0.521166 0.762045 -0.292818
C122  C     C_3   0.050256 0.521928 0.239059 -0.279558
C123  C     C_2   0.089880 0.536748 0.271960 0.970538
C124  C     C_3   0.493892 0.477950 0.805732 -0.197533
C125  C     C_2   0.093557 0.543674 0.744893 0.938687
C126  C     C_2   0.088304 0.461004 0.722718 0.993316
C127  C     C_2   0.094969 0.458728 0.241516 1.007830
C128  C     C_2   0.089178 0.036769 0.774623 0.970880
C129  C     C_2   0.089223 0.036767 0.225505 0.971237
C130  C     C_2   0.095189 0.958746 0.255746 1.007925
C131  C     C_2   0.095191 0.958749 0.744398 1.007940
C132  C     C_2   0.591248 0.536767 0.765767 0.971081
C133  C     C_2   0.589351 0.536769 0.225979 0.970982
C134  C     C_2   0.595155 0.458748 0.256244 1.007984
C135  C     C_3   0.488737 0.477949 0.195118 -0.197599
C136  C     C_2   0.594244 0.458741 0.735091 1.008256
C137  C     C_2   0.593727 0.043677 0.250937 0.938507
C138  C     C_2   0.587865 0.036779 0.721174 0.970987
C139  C     C_2   0.595329 0.958761 0.751063 1.007306
C140  C     C_2   0.589477 0.961005 0.273314 0.993329
C141  C     C_2   0.425261 0.964344 0.310009 0.913594
C142  C     C_2   0.444735 0.958147 0.669327 0.968426
C143  C     C_2   0.425524 0.036021 0.690763 0.931644
C144  C     C_2   0.446575 0.042284 0.332551 0.963920
C145  C     C_2   0.457221 0.458156 0.837970 0.966998
C146  C     C_3   0.480707 0.522249 0.196979 -0.180641
C147  C     C_2   0.449258 0.458154 0.166386 0.967684
C148  C     C_2   0.428914 0.536031 0.186747 0.931136
C149  C     C_2   0.435092 0.536032 0.819560 0.930743
C150  C     C_2   0.948681 0.958154 0.833255 0.967835
C151  C     C_2   0.948811 0.958153 0.166667 0.967891
C152  C     C_2   0.928577 0.036030 0.187138 0.930733
C153  C     C_2   0.928475 0.036030 0.812756 0.931109
C154  C     C_2   0.951175 0.458169 0.334747 0.967745
C155  C     C_2   0.922609 0.464347 0.693419 0.913502
C156  C     C_2   0.942895 0.542287 0.669950 0.964427
C157  C     C_3   0.485727 0.522250 0.804615 -0.180180
C158  C     C_2   0.930384 0.536046 0.314848 0.931634
C159  C     C_1   0.502681 0.958948 0.342888 0.282394
C160  C     C_1   0.526423 0.967902 0.663456 0.266402
C161  C     C_1   0.503874 0.040486 0.657544 0.255505
C162  C     C_1   0.528578 0.031348 0.336021 0.233094
C163  C     C_1   0.538890 0.467908 0.831842 0.264939
C164  C     C_1   0.531144 0.467906 0.164983 0.265404
C165  C     C_1   0.508963 0.540492 0.157858 0.254523
C166  C     C_1   0.517456 0.540493 0.840976 0.253898
C167  C     C_1   0.030556 0.967907 0.835218 0.265495
C168  C     C_3   0.988355 0.977949 0.804794 -0.197770
C169  C     C_1   0.030689 0.967906 0.164825 0.265482
C170  C     C_1   0.008470 0.040491 0.157819 0.254523
C171  C     C_1   0.008325 0.040492 0.842192 0.254554
C172  C     C_1   0.033074 0.467918 0.334279 0.265983
C173  C     C_1   0.998478 0.458949 0.657104 0.282562
C174  C     C_1   0.024659 0.531349 0.662806 0.233360
C175  C     C_1   0.011078 0.540504 0.341888 0.254739
C176  C     C_2   0.479713 0.965248 0.157072 0.944184
C177  C     C_2   0.464010 0.959364 0.838124 0.941778
C178  C     C_2   0.487888 0.036300 0.840717 0.935066
C179  C     C_3   0.988444 0.977948 0.195187 -0.197963
C180  C     C_2   0.464482 0.043338 0.163789 0.959197
C181  C     C_2   0.451613 0.459364 0.668169 0.942155
C182  C     C_2   0.459272 0.459362 0.335979 0.942330
C183  C     C_2   0.482993 0.536296 0.339881 0.935060
C184  C     C_2   0.474882 0.536293 0.662106 0.935168
C185  C     C_2   0.959857 0.959361 0.663732 0.942145
C186  C     C_2   0.959739 0.959362 0.336206 0.942116
C187  C     C_2   0.983480 0.036297 0.339979 0.935154
C188  C     C_2   0.983602 0.036295 0.659994 0.934999
C189  C     C_2   0.957289 0.459352 0.164975 0.941737
C190  C     C_3   0.980425 0.022249 0.197092 -0.180510
C191  C     C_2   0.983858 0.465248 0.843762 0.944296
C192  C     C_2   0.968344 0.543339 0.837738 0.959473
C193  C     C_2   0.980939 0.536286 0.160515 0.935069
C194  C     C_1   0.415321 0.959881 0.209426 0.207612
C195  C     C_1   0.410755 0.966600 0.774050 0.276366
C196  C     C_1   0.417086 0.040231 0.793003 0.275698
C197  C     C_1   0.410184 0.033192 0.229035 0.354353
C198  C     C_1   0.408301 0.466608 0.739340 0.276961
C199  C     C_1   0.409605 0.466605 0.269089 0.276696
C200  C     C_1   0.414902 0.540235 0.288375 0.276013
C201  C     C_3   0.980338 0.022249 0.802877 -0.180665
C202  C     C_1   0.411808 0.540237 0.719648 0.276724
C203  C     C_1   0.909733 0.966605 0.730281 0.276516
C204  C     C_1   0.909712 0.966605 0.269585 0.276452
C205  C     C_1   0.915113 0.040235 0.288840 0.276281
C206  C     C_1   0.915161 0.040234 0.711035 0.275956
C207  C     C_1   0.909179 0.466611 0.232989 0.276778
C208  C     C_1   0.917185 0.459883 0.794346 0.207624
C209  C     C_1   0.911178 0.533195 0.774990 0.354205
C210  C     C_1   0.914046 0.540237 0.213564 0.275799
C211  C     C_3   0.989990 0.477957 0.305118 -0.198423
C212  C     C_R   0.500005 0.349575 0.749992 0.827020
C213  C     C_3   0.975356 0.477708 0.698941 -0.186941
C214  C     C_3   0.984027 0.521963 0.695782 -0.187508
C215  C     C_3   0.981927 0.522258 0.303431 -0.181083
C216  C     C_1   0.999824 0.611057 0.250056 0.004339
C217  C     C_1   0.999893 0.611027 0.749882 -0.009705
C218  C     C_1   0.999626 0.388979 0.750143 -0.031063
C219  C     C_1   0.999869 0.388947 0.250014 -0.012570
C220  C     C_1   0.999818 0.111057 0.750057 0.004124
C221  C     C_1   0.999822 0.111057 0.249940 0.004165
C222  C     C_1   0.999869 0.888947 0.249996 -0.012526
C223  C     C_R   0.500007 0.349575 0.250006 0.827587
C224  C     C_1   0.999865 0.888947 0.750002 -0.012737
C225  C     C_1   0.499871 0.611057 0.750110 0.004191
C226  C     C_1   0.499822 0.611057 0.249937 0.004145
C227  C     C_1   0.499870 0.388947 0.249992 -0.012728
C228  C     C_1   0.499907 0.388947 0.750047 -0.012505
C229  C     C_1   0.499917 0.111027 0.250138 -0.009744
C230  C     C_1   0.499791 0.111057 0.749968 0.004156
C231  C     C_1   0.499848 0.888947 0.750024 -0.012407
C232  C     C_1   0.499645 0.888979 0.249883 -0.031074
C233  C     C_3   0.497418 0.963062 0.250846 -0.016692
C234  C     C_R   0.500001 0.150426 0.749999 0.830779
C235  C     C_3   0.498308 0.963031 0.749263 -0.003511
C236  C     C_3   0.497927 0.036967 0.748856 -0.063008
C237  C     C_3   0.498205 0.036942 0.251395 -0.016534
C238  C     C_3   0.498536 0.463031 0.751062 -0.003568
C239  C     C_3   0.498383 0.463031 0.249129 -0.003600
C240  C     C_3   0.498034 0.536967 0.248708 -0.062992
C241  C     C_3   0.498231 0.536967 0.751514 -0.063031
C242  C     C_3   0.998372 0.963031 0.750850 -0.003584
C243  C     C_3   0.998381 0.963031 0.249146 -0.003553
C244  C     C_3   0.998030 0.036967 0.248726 -0.063000
C245  C     C_R   0.500002 0.150415 0.249998 0.825067
C246  C     C_3   0.998019 0.036967 0.751269 -0.062977
C247  C     C_3   0.998393 0.463031 0.250902 -0.003514
C248  C     C_3   0.997344 0.463062 0.749289 -0.016638
C249  C     C_3   0.998109 0.536942 0.748709 -0.016538
C250  C     C_3   0.998066 0.536967 0.251317 -0.062937
C251  C     C_3   0.962297 0.522366 0.209984 -0.193100
C252  C     C_3   0.961005 0.522556 0.789211 -0.234235
C253  C     C_3   0.965379 0.478003 0.794022 -0.198889
C254  C     C_3   0.957283 0.477922 0.214782 -0.214745
C255  C     C_3   0.963501 0.022369 0.708886 -0.193138
C256  C     C_R   0.500000 0.849587 0.249996 0.825293
C257  C     C_3   0.963449 0.022369 0.291058 -0.193407
C258  C     C_3   0.958311 0.977925 0.286415 -0.215409
C259  C     C_3   0.958356 0.977924 0.713522 -0.215039
C260  C     C_3   0.459700 0.522369 0.712743 -0.193647
C261  C     C_3   0.463226 0.522369 0.290853 -0.193183
C262  C     C_3   0.458113 0.477924 0.286181 -0.215268
C263  C     C_3   0.455034 0.477926 0.717865 -0.215434
C264  C     C_3   0.459324 0.022555 0.212596 -0.234204
C265  C     C_3   0.465476 0.022369 0.792842 -0.192904
C266  C     C_3   0.460123 0.977924 0.788462 -0.214752
C267  C     C_R   0.500007 0.849575 0.750007 0.827408
C268  C     C_3   0.463480 0.978003 0.207591 -0.198703
C269  C     C_1   0.999277 0.577918 0.250460 0.047377
C270  C     C_1   0.999407 0.577860 0.749412 0.041993
C271  C     C_1   0.998801 0.422125 0.749939 0.032726
C272  C     C_1   0.999434 0.422107 0.250298 0.080572
C273  C     C_1   0.999254 0.077918 0.750451 0.047171
C274  C     C_1   0.999262 0.077918 0.249545 0.047069
C275  C     C_1   0.999432 0.922107 0.249726 0.080541
C276  C     C_1   0.999425 0.922107 0.750270 0.080697
C277  C     C_1   0.499374 0.577918 0.750574 0.047049
C278  C     C_R   0.000002 0.650415 0.750000 0.825443
C279  C     C_1   0.499263 0.577918 0.249536 0.047168
C280  C     C_1   0.499433 0.422107 0.249716 0.080680
C281  C     C_1   0.499518 0.422107 0.750376 0.080591
C282  C     C_1   0.499463 0.077860 0.250636 0.041959
C283  C     C_1   0.499198 0.077918 0.749610 0.046952
C284  C     C_1   0.499390 0.922107 0.749789 0.080734
C285  C     C_1   0.498843 0.922125 0.250129 0.032741
C286  C     C_1   0.499976 0.750003 0.431099 -0.121096
C287  C     C_1   0.499976 0.750002 0.568901 -0.121664
C288  C     C_1   0.499978 0.249995 0.568900 -0.118949
H1    H     H_    0.562165 0.967957 0.206267 0.207312
H2    H     H_    0.048498 0.975368 0.307108 0.206948
H3    H     H_    0.062718 0.033767 0.294315 0.184948
H4    H     H_    0.062773 0.033767 0.705775 0.184904
H5    H     H_    0.046823 0.475365 0.191533 0.206838
H6    H     H_    0.064024 0.467953 0.790923 0.207285
H7    H     H_    0.055122 0.524973 0.800881 0.199007
H8    H     H_    0.061444 0.533760 0.203919 0.184816
H9    H     H_    0.130847 0.580503 0.290247 0.357057
H10   H     H_    0.131013 0.591141 0.751437 0.355120
H11   H     H_    0.142700 0.424422 0.716275 0.357043
H12   H     H_    0.551231 0.975372 0.804680 0.206736
H13   H     H_    0.166163 0.455315 0.227633 0.364456
H14   H     H_    0.129651 0.080511 0.794027 0.356889
H15   H     H_    0.129716 0.080510 0.206150 0.357123
H16   H     H_    0.166782 0.955415 0.267441 0.363791
H17   H     H_    0.166807 0.955430 0.732830 0.364610
H18   H     H_    0.633415 0.580516 0.781112 0.357368
H19   H     H_    0.629956 0.580510 0.206853 0.356996
H20   H     H_    0.666689 0.455429 0.268302 0.364607
H21   H     H_    0.664367 0.455413 0.716513 0.363911
H22   H     H_    0.630842 0.091151 0.242743 0.355381
H23   H     H_    0.564780 0.033773 0.791204 0.184931
H24   H     H_    0.627379 0.080519 0.699880 0.356851
H25   H     H_    0.667428 0.955487 0.759119 0.364329
H26   H     H_    0.644108 0.924424 0.277311 0.357281
H27   H     H_    0.354158 0.975103 0.316405 0.369974
H28   H     H_    0.404807 0.955218 0.608587 0.369916
H29   H     H_    0.354042 0.025898 0.687640 0.368466
H30   H     H_    0.400075 0.084892 0.337584 0.366387
H31   H     H_    0.426598 0.455233 0.903893 0.368203
H32   H     H_    0.412705 0.455232 0.103558 0.367932
H33   H     H_    0.357708 0.525913 0.179722 0.368104
H34   H     H_    0.552826 0.024977 0.196722 0.198982
H35   H     H_    0.364833 0.525915 0.833099 0.368104
H36   H     H_    0.911701 0.955230 0.895833 0.368208
H37   H     H_    0.911920 0.955231 0.104038 0.368354
H38   H     H_    0.857334 0.025913 0.180498 0.368231
H39   H     H_    0.857223 0.025911 0.819294 0.368249
H40   H     H_    0.916055 0.455261 0.398389 0.369940
H41   H     H_    0.851291 0.475107 0.690215 0.369732
H42   H     H_    0.896220 0.584898 0.667008 0.366281
H43   H     H_    0.859355 0.525939 0.323499 0.368546
H44   H     H_    0.465649 0.965122 0.085589 0.368201
H45   H     H_    0.542787 0.475365 0.688506 0.207068
H46   H     H_    0.436794 0.955396 0.905404 0.366711
H47   H     H_    0.494643 0.078309 0.888146 0.363088
H48   H     H_    0.435030 0.077929 0.114694 0.362360
H49   H     H_    0.414845 0.455392 0.605597 0.366841
H50   H     H_    0.428408 0.455390 0.401664 0.367455
H51   H     H_    0.487172 0.578309 0.387599 0.362348
H52   H     H_    0.474654 0.578301 0.614199 0.361848
H53   H     H_    0.929447 0.955389 0.597836 0.367073
H54   H     H_    0.929233 0.955390 0.402058 0.367055
H55   H     H_    0.987923 0.078314 0.387668 0.362353
H56   H     H_    0.548190 0.475367 0.307359 0.206967
H57   H     H_    0.988102 0.078306 0.612303 0.362348
H58   H     H_    0.924925 0.455379 0.100015 0.366769
H59   H     H_    0.973010 0.465121 0.915803 0.368941
H60   H     H_    0.941124 0.577932 0.888103 0.362456
H61   H     H_    0.984060 0.578304 0.112724 0.362511
H62   H     H_    0.562475 0.533767 0.294645 0.184927
H63   H     H_    0.558185 0.533765 0.699856 0.184969
H64   H     H_    0.048577 0.975367 0.692963 0.206953
N1    N     N_1   0.521204 0.944192 0.374872 -0.115636
N2    N     N_1   0.062681 0.959917 0.140205 -0.076310
N3    N     N_1   0.029881 0.054718 0.127271 -0.129059
N4    N     N_1   0.029690 0.054719 0.872772 -0.129065
N5    N     N_1   0.065745 0.459936 0.357994 -0.075535
N6    N     N_1   0.015549 0.444193 0.624322 -0.115380
N7    N     N_1   0.055443 0.538958 0.636510 -0.087488
N8    N     N_1   0.033352 0.554734 0.371811 -0.129000
N9    N     N_1   0.377954 0.945744 0.210243 -0.129426
N10   N     N_1   0.371962 0.957605 0.764268 -0.083421
N11   N     N_1   0.379592 0.054156 0.793570 -0.126303
N12   N     N_1   0.557167 0.959912 0.637295 -0.075103
N13   N     N_1   0.371565 0.041662 0.240211 -0.080176
N14   N     N_1   0.371354 0.457618 0.754688 -0.079622
N15   N     N_1   0.371405 0.457614 0.257198 -0.083343
N16   N     N_1   0.377436 0.554165 0.286896 -0.125723
N17   N     N_1   0.374636 0.554168 0.724561 -0.123178
N18   N     N_1   0.871452 0.957613 0.741909 -0.083621
N19   N     N_1   0.871448 0.957613 0.257901 -0.080425
N20   N     N_1   0.877638 0.054165 0.287562 -0.123928
N21   N     N_1   0.877684 0.054163 0.712258 -0.125637
N22   N     N_1   0.871260 0.457626 0.245756 -0.082811
N23   N     N_1   0.523752 0.054712 0.625976 -0.127860
N24   N     N_1   0.879819 0.445747 0.795203 -0.129110
N25   N     N_1   0.872098 0.541666 0.765555 -0.080744
N26   N     N_1   0.876625 0.554172 0.215896 -0.125435
N27   N     N_1   0.560509 0.038957 0.360912 -0.087853
N28   N     N_1   0.573124 0.459921 0.853234 -0.076806
N29   N     N_1   0.563267 0.459917 0.140535 -0.076580
N30   N     N_1   0.530538 0.554719 0.127426 -0.128960
N31   N     N_1   0.541734 0.554720 0.869299 -0.130109
N32   N     N_1   0.062511 0.959919 0.859884 -0.076393
O1    O     O_3   0.499990 0.750000 0.250000 -0.501864
O2    O     O_R   0.527870 0.668020 0.722120 -0.624489
O3    O     O_R   0.972140 0.331980 0.722150 -0.621300
O4    O     O_R   0.972140 0.168020 0.222150 -0.621538
O5    O     O_R   0.972140 0.168020 0.777850 -0.621460
O6    O     O_R   0.972140 0.831980 0.777850 -0.623601
O7    O     O_R   0.972140 0.831980 0.222150 -0.623673
O8    O     O_2   0.109262 0.517424 0.302279 -0.593683
O9    O     O_R   0.104558 0.573375 0.266712 -0.796243
O10   O     O_2   0.123065 0.531440 0.716569 -0.555627
O11   O     O_R   0.101111 0.578676 0.764576 -0.789456
O12   O     O_2   0.092455 0.470428 0.680766 -0.567713
O13   O     O_R   0.527870 0.331980 0.722120 -0.620898
O14   O     O_R   0.119119 0.433980 0.741171 -0.778307
O15   O     O_2   0.096436 0.431748 0.267760 -0.616405
O16   O     O_R   0.137054 0.470722 0.218747 -0.761523
O17   O     O_2   0.107585 0.017476 0.805578 -0.593951
O18   O     O_R   0.104080 0.073371 0.769720 -0.796593
O19   O     O_2   0.107681 0.017470 0.194583 -0.593691
O20   O     O_R   0.104110 0.073371 0.230421 -0.796440
O21   O     O_2   0.095887 0.931714 0.229559 -0.616808
O22   O     O_R   0.137936 0.970809 0.277180 -0.761264
O23   O     O_2   0.095849 0.931714 0.770579 -0.616715
O24   O     O_R   0.527870 0.331980 0.277880 -0.620815
O25   O     O_R   0.137973 0.970819 0.723039 -0.761122
O26   O     O_2   0.612634 0.517468 0.794736 -0.593801
O27   O     O_R   0.605572 0.573377 0.759444 -0.795078
O28   O     O_2   0.607970 0.517476 0.195151 -0.593864
O29   O     O_R   0.604217 0.573371 0.230983 -0.796425
O30   O     O_2   0.595992 0.431714 0.230066 -0.616709
O31   O     O_R   0.637789 0.470818 0.277896 -0.760969
O32   O     O_2   0.597475 0.431705 0.761077 -0.615715
O33   O     O_R   0.634712 0.470807 0.709617 -0.760971
O34   O     O_2   0.624483 0.031438 0.277896 -0.555870
O35   O     O_R   0.527870 0.168020 0.777880 -0.624564
O36   O     O_R   0.600382 0.078686 0.230954 -0.788936
O37   O     O_2   0.604754 0.017496 0.689356 -0.593806
O38   O     O_R   0.603003 0.073376 0.725383 -0.797233
O39   O     O_2   0.594729 0.931702 0.724922 -0.617418
O40   O     O_R   0.639093 0.970867 0.770292 -0.761498
O41   O     O_2   0.595503 0.970428 0.315039 -0.567713
O42   O     O_R   0.619435 0.933982 0.253498 -0.777738
O43   O     O_2   0.417397 0.931273 0.314420 -0.603748
O44   O     O_R   0.385939 0.988288 0.311380 -0.778293
O45   O     O_2   0.425467 0.930562 0.685588 -0.613028
O46   O     O_R   0.527870 0.168020 0.222120 -0.620567
O47   O     O_R   0.431454 0.970550 0.623433 -0.765749
O48   O     O_2   0.418232 0.068956 0.684272 -0.603475
O49   O     O_R   0.385710 0.012558 0.692654 -0.782689
O50   O     O_2   0.435467 0.031542 0.372888 -0.572250
O51   O     O_R   0.424911 0.074257 0.314744 -0.802123
O52   O     O_2   0.435783 0.430569 0.824702 -0.612903
O53   O     O_R   0.450788 0.470564 0.885310 -0.767942
O54   O     O_2   0.429133 0.430566 0.181566 -0.613427
O55   O     O_R   0.438501 0.470562 0.119838 -0.768195
O56   O     O_2   0.421992 0.568966 0.179869 -0.603480
O57   O     O_R   0.527870 0.831980 0.222120 -0.620020
O58   O     O_R   0.389053 0.512570 0.186458 -0.782987
O59   O     O_2   0.428830 0.568968 0.827039 -0.603657
O60   O     O_R   0.395427 0.512571 0.823515 -0.782729
O61   O     O_2   0.928660 0.930566 0.817937 -0.613317
O62   O     O_R   0.937607 0.970562 0.879730 -0.767978
O63   O     O_2   0.928768 0.930566 0.181956 -0.612940
O64   O     O_R   0.937804 0.970562 0.120179 -0.767960
O65   O     O_2   0.921618 0.068965 0.180298 -0.603728
O66   O     O_R   0.888715 0.012570 0.187064 -0.782560
O67   O     O_2   0.921506 0.068965 0.819584 -0.603455
O68   O     O_R   0.527870 0.831980 0.777880 -0.621433
O69   O     O_R   0.888614 0.012569 0.812774 -0.782846
O70   O     O_2   0.930715 0.430575 0.320041 -0.612719
O71   O     O_R   0.941476 0.470588 0.381523 -0.765964
O72   O     O_2   0.914554 0.431276 0.689364 -0.604053
O73   O     O_R   0.883267 0.488291 0.693812 -0.778366
O74   O     O_2   0.929988 0.531546 0.630151 -0.572319
O75   O     O_R   0.922055 0.574262 0.688711 -0.802352
O76   O     O_2   0.923628 0.568983 0.321879 -0.603332
O77   O     O_R   0.890535 0.512591 0.316051 -0.782592
O78   O     O_2   0.511771 0.942568 0.151587 -0.615219
O79   O     O_R   0.027870 0.668020 0.777880 -0.620668
O80   O     O_R   0.453036 0.976141 0.116661 -0.759217
O81   O     O_2   0.494818 0.936260 0.846973 -0.610966
O82   O     O_R   0.431092 0.969127 0.874145 -0.776328
O83   O     O_2   0.516680 0.017759 0.863555 -0.605517
O84   O     O_R   0.477233 0.071896 0.857184 -0.792666
O85   O     O_2   0.500795 0.040560 0.139223 -0.601562
O86   O     O_R   0.427212 0.065960 0.146733 -0.780813
O87   O     O_2   0.480797 0.436259 0.654908 -0.611998
O88   O     O_R   0.413780 0.469126 0.637352 -0.775841
O89   O     O_2   0.489548 0.436256 0.346501 -0.610433
O90   O     O_R   0.027870 0.668020 0.222120 -0.624471
O91   O     O_R   0.424431 0.469124 0.370142 -0.776239
O92   O     O_2   0.510480 0.517746 0.364265 -0.604513
O93   O     O_R   0.471479 0.571899 0.355732 -0.793446
O94   O     O_2   0.500022 0.517746 0.635307 -0.604890
O95   O     O_R   0.461950 0.571891 0.647371 -0.794152
O96   O     O_2   0.990205 0.936255 0.653419 -0.610630
O97   O     O_R   0.925252 0.969123 0.629330 -0.776433
O98   O     O_2   0.990071 0.936254 0.346564 -0.610749
O99   O     O_R   0.925085 0.969125 0.370558 -0.776002
O100  O     O_2   0.011096 0.017748 0.364216 -0.604762
O101  O     O_R   0.027870 0.331980 0.222120 -0.621292
O102  O     O_R   0.972055 0.071901 0.355888 -0.793260
O103  O     O_2   0.011258 0.017747 0.635801 -0.604791
O104  O     O_R   0.972191 0.071896 0.644061 -0.793301
O105  O     O_2   0.987305 0.436235 0.153767 -0.612117
O106  O     O_R   0.921677 0.469118 0.131618 -0.776205
O107  O     O_2   0.016128 0.442567 0.847805 -0.614637
O108  O     O_R   0.959018 0.476142 0.885328 -0.759022
O109  O     O_2   0.005721 0.540560 0.860653 -0.601254
O110  O     O_R   0.931878 0.565963 0.856446 -0.780871
O111  O     O_2   0.007836 0.517724 0.135498 -0.605665
O112  O     O_3   0.499990 0.750000 0.750000 -0.501486
O113  O     O_R   0.027870 0.331980 0.777880 -0.619921
O114  O     O_R   0.969098 0.571897 0.144942 -0.793617
O115  O     O_R   0.027870 0.168020 0.277880 -0.624636
O116  O     O_R   0.027870 0.168020 0.722120 -0.624403
O117  O     O_R   0.027870 0.831980 0.722120 -0.620870
O118  O     O_R   0.027870 0.831980 0.277880 -0.621147
O119  O     O_R   0.472130 0.728510 0.143730 -0.627158
O120  O     O_R   0.472130 0.728510 0.856270 -0.626887
O121  O     O_R   0.472130 0.271490 0.856270 -0.627654
O122  O     O_R   0.472130 0.271490 0.143730 -0.628066
O123  O     O_R   0.472130 0.228510 0.643730 -0.627782
O124  O     O_3   0.499990 0.250000 0.750000 -0.501459
O125  O     O_R   0.472130 0.228510 0.356270 -0.630768
O126  O     O_R   0.472130 0.771490 0.356270 -0.627009
O127  O     O_R   0.472130 0.771490 0.643730 -0.627513
O128  O     O_R   0.972130 0.728510 0.643730 -0.630727
O129  O     O_R   0.972130 0.728510 0.356270 -0.627483
O130  O     O_R   0.972130 0.271490 0.356270 -0.627332
O131  O     O_R   0.972130 0.271490 0.643730 -0.627217
O132  O     O_R   0.972130 0.228510 0.143730 -0.627238
O133  O     O_R   0.972130 0.228510 0.856270 -0.627189
O134  O     O_R   0.972130 0.771490 0.856270 -0.628025
O135  O     O_3   0.499990 0.250000 0.250000 -0.500022
O136  O     O_R   0.972130 0.771490 0.143730 -0.627907
O137  O     O_R   0.393720 0.728520 0.222140 -0.626412
O138  O     O_R   0.393720 0.728520 0.777860 -0.626642
O139  O     O_R   0.393720 0.271480 0.777860 -0.627875
O140  O     O_R   0.393720 0.271480 0.222140 -0.627174
O141  O     O_R   0.393720 0.228520 0.722140 -0.626139
O142  O     O_R   0.393720 0.228520 0.277860 -0.628666
O143  O     O_R   0.393720 0.771480 0.277860 -0.626538
O144  O     O_R   0.393720 0.771480 0.722140 -0.627483
O145  O     O_R   0.893720 0.728520 0.722140 -0.628792
O146  O     O_3   0.999990 0.750000 0.750000 -0.500009
O147  O     O_R   0.893720 0.728520 0.277860 -0.626419
O148  O     O_R   0.893720 0.271480 0.277860 -0.627664
O149  O     O_R   0.893720 0.271480 0.722140 -0.626384
O150  O     O_R   0.893720 0.228520 0.222140 -0.626321
O151  O     O_R   0.893720 0.228520 0.777860 -0.626408
O152  O     O_R   0.893720 0.771480 0.777860 -0.627112
O153  O     O_R   0.893720 0.771480 0.222140 -0.627647
O154  O     O_R   0.606280 0.728500 0.277860 -0.628067
O155  O     O_R   0.606280 0.728500 0.722140 -0.628065
O156  O     O_R   0.606280 0.271500 0.722140 -0.627275
O157  O     O_3   0.999990 0.750000 0.250000 -0.501481
O158  O     O_R   0.606280 0.271500 0.277860 -0.626878
O159  O     O_R   0.606280 0.228500 0.777860 -0.627960
O160  O     O_R   0.606280 0.228500 0.222140 -0.628703
O161  O     O_R   0.606280 0.771500 0.222140 -0.627166
O162  O     O_R   0.606280 0.771500 0.777860 -0.627321
O163  O     O_R   0.106280 0.728500 0.777860 -0.628469
O164  O     O_R   0.106280 0.728500 0.222140 -0.627827
O165  O     O_R   0.106280 0.271500 0.222140 -0.627360
O166  O     O_R   0.106280 0.271500 0.777860 -0.627053
O167  O     O_R   0.106280 0.228500 0.277860 -0.628134
O168  O     O_3   0.999990 0.250000 0.250000 -0.501439
O169  O     O_R   0.106280 0.228500 0.722140 -0.628134
O170  O     O_R   0.106280 0.771500 0.722140 -0.626916
O171  O     O_R   0.106280 0.771500 0.277860 -0.627333
O172  O     O_R   0.527850 0.771500 0.143710 -0.626842
O173  O     O_R   0.527850 0.771500 0.856290 -0.627765
O174  O     O_R   0.527850 0.228500 0.856290 -0.628588
O175  O     O_R   0.527850 0.228500 0.143710 -0.627559
O176  O     O_R   0.527850 0.271500 0.643710 -0.627391
O177  O     O_R   0.527850 0.271500 0.356290 -0.626493
O178  O     O_R   0.527850 0.728500 0.356290 -0.629382
O179  O     O_3   0.999990 0.250000 0.750000 -0.501842
O180  O     O_R   0.527850 0.728500 0.643710 -0.629006
O181  O     O_R   0.027850 0.771500 0.643710 -0.626542
O182  O     O_R   0.027850 0.771500 0.356290 -0.627421
O183  O     O_R   0.027850 0.228500 0.356290 -0.629088
O184  O     O_R   0.027850 0.228500 0.643710 -0.629363
O185  O     O_R   0.027850 0.271500 0.143710 -0.627724
O186  O     O_R   0.027850 0.271500 0.856290 -0.626913
O187  O     O_R   0.027850 0.728500 0.856290 -0.627678
O188  O     O_R   0.027850 0.728500 0.143710 -0.628544
O189  O     O_R   0.472140 0.668020 0.222150 -0.621441
O190  O     O_R   0.527870 0.668020 0.277880 -0.624378
O191  O     O_R   0.472140 0.668020 0.777850 -0.621233
O192  O     O_R   0.472140 0.331980 0.777850 -0.623742
O193  O     O_R   0.472140 0.331980 0.222150 -0.623631
O194  O     O_R   0.472140 0.168020 0.722150 -0.621765
O195  O     O_R   0.472140 0.168020 0.277850 -0.625941
O196  O     O_R   0.472140 0.831980 0.277850 -0.621063
O197  O     O_R   0.472140 0.831980 0.722150 -0.623483
O198  O     O_R   0.972140 0.668020 0.722150 -0.626267
O199  O     O_R   0.972140 0.668020 0.277850 -0.621460
O200  O     O_R   0.972140 0.331980 0.277850 -0.623497
Zn1   Zn    Zn3+2 0.539790 0.780710 0.210180 1.016164
Zn2   Zn    Zn3+2 0.039790 0.780710 0.289820 1.016851
Zn3   Zn    Zn3+2 0.039790 0.219290 0.289820 1.013659
Zn4   Zn    Zn3+2 0.039790 0.219290 0.710180 1.012398
Zn5   Zn    Zn3+2 0.039790 0.280710 0.210180 1.016522
Zn6   Zn    Zn3+2 0.039790 0.280710 0.789820 1.016245
Zn7   Zn    Zn3+2 0.039790 0.719290 0.789820 1.013621
Zn8   Zn    Zn3+2 0.039790 0.719290 0.210180 1.014296
Zn9   Zn    Zn3+2 0.460190 0.719300 0.210200 1.018998
Zn10  Zn    Zn3+2 0.460190 0.719300 0.789800 1.018743
Zn11  Zn    Zn3+2 0.460190 0.280700 0.789800 1.015520
Zn12  Zn    Zn3+2 0.539790 0.780710 0.789820 1.016568
Zn13  Zn    Zn3+2 0.460190 0.280700 0.210200 1.015422
Zn14  Zn    Zn3+2 0.460190 0.219300 0.710200 1.018265
Zn15  Zn    Zn3+2 0.460190 0.219300 0.289800 1.007460
Zn16  Zn    Zn3+2 0.460190 0.780700 0.289800 1.016769
Zn17  Zn    Zn3+2 0.460190 0.780700 0.710200 1.016000
Zn18  Zn    Zn3+2 0.960190 0.719300 0.710200 1.007295
Zn19  Zn    Zn3+2 0.960190 0.719300 0.289800 1.018352
Zn20  Zn    Zn3+2 0.960190 0.280700 0.289800 1.016033
Zn21  Zn    Zn3+2 0.960190 0.280700 0.710200 1.016659
Zn22  Zn    Zn3+2 0.960190 0.219300 0.210200 1.018652
Zn23  Zn    Zn3+2 0.539790 0.219290 0.789820 1.014152
Zn24  Zn    Zn3+2 0.960190 0.219300 0.789800 1.019013
Zn25  Zn    Zn3+2 0.960190 0.780700 0.789800 1.015488
Zn26  Zn    Zn3+2 0.960190 0.780700 0.210200 1.015482
Zn27  Zn    Zn3+2 0.539790 0.219290 0.210180 1.013400
Zn28  Zn    Zn3+2 0.539790 0.280710 0.710180 1.016927
Zn29  Zn    Zn3+2 0.539790 0.280710 0.289820 1.017035
Zn30  Zn    Zn3+2 0.539790 0.719290 0.289820 1.012450
Zn31  Zn    Zn3+2 0.539790 0.719290 0.710180 1.013785
Zn32  Zn    Zn3+2 0.039790 0.780710 0.710180 1.017013

loop_
_geom_bond_atom_site_label_1
_geom_bond_atom_site_label_2
_ccdc_geom_bond_type
C177  O82   S    
C172  N5    T    
C2    C216  S    
C8    C26   T    
C174  N7    T    
C19   C20   S    
C74   C83   T    
C183  O93   S    
C185  O97   S    
C54   O141  A    
C178  C265  S    
C48   O185  A    
C181  O87   D    
C55   O142  A    
C170  N3    T    
C190  C244  S    
O148  Zn20  S    
C118  C128  S    
O112  Zn12  S    
C147  O54   D    
C151  O64   S    
C134  O30   D    
C149  O59   D    
C60   C98   S    
C60   O149  A    
C35   C221  S    
C180  C264  S    
O197  Zn17  S    
C106  C107  S    
C176  O78   D    
C182  C262  S    
O128  Zn18  S    
O127  Zn17  S    
C50   O134  A    
C64   O158  A    
C119  H5    S    
C169  N2    T    
C163  N28   T    
C152  C190  S    
O182  Zn2   S    
O135  Zn15  S    
O146  Zn7   S    
C186  O98   D    
O112  Zn17  S    
C239  C262  S    
C223  O24   A    
O146  Zn25  S    
C110  H56   S    
C16   C44   S    
C88   C97   T    
C61   O154  A    
C53   O144  A    
C235  C266  S    
O129  Zn19  S    
C21   C22   S    
C237  C264  S    
C238  C263  S    
C38   O122  A    
C236  C283  S    
C199  C262  S    
H37   O64   S    
C203  C259  S    
H39   O69   S    
C153  C201  S    
C127  O16   S    
C143  O49   S    
C139  O40   S    
C244  C257  S    
O1    Zn9   S    
O146  Zn18  S    
C207  N22   T    
O185  Zn5   S    
C15   C32   T    
C194  C268  S    
C267  O68   A    
O123  Zn14  S    
O187  Zn7   S    
C69   O166  A    
H48   O86   S    
C198  N14   T    
O139  Zn11  S    
C183  C261  S    
O165  Zn5   S    
H59   O108  S    
O138  Zn10  S    
C82   C91   S    
C184  O95   S    
C173  C213  S    
O192  Zn11  S    
C183  O92   D    
C11   C49   S    
C158  O76   D    
C151  C179  S    
H36   O62   S    
H38   O66   S    
C135  C146  S    
C156  O74   D    
C239  C280  S    
O1    Zn16  S    
C240  C279  S    
C234  O194  A    
O124  Zn14  S    
C125  O11   S    
C112  O191  A    
C126  O12   D    
C38   O175  A    
O126  Zn16  S    
C212  O13   A    
O176  Zn28  S    
O161  Zn1   S    
C217  C278  S    
C146  C240  S    
O178  Zn30  S    
C236  C265  S    
C52   O143  A    
H27   O44   S    
C8    C50   S    
O157  Zn19  S    
O133  Zn24  S    
H35   O60   S    
H15   O20   S    
C65   C74   S    
C220  C273  T    
C249  C270  S    
C68   C222  S    
C47   O131  A    
C60   O151  A    
C245  O46   A    
C118  C246  S    
C113  C144  S    
C64   O160  A    
C107  C138  S    
O179  Zn6   S    
C120  H6    S    
C80   C88   S    
O154  Zn30  S    
C105  C140  S    
O177  Zn29  S    
C247  C272  S    
C200  C261  S    
O135  Zn13  S    
O157  Zn8   S    
C143  O48   D    
O158  Zn29  S    
C116  H2    S    
O124  Zn28  S    
C90   C235  S    
C230  C234  S    
C84   C93   S    
O121  Zn11  S    
C105  H1    S    
C86   C95   S    
C176  C268  S    
C131  O25   S    
C116  C130  S    
C62   O155  A    
C45   O183  A    
C165  N30   T    
C173  N6    T    
H28   O47   S    
C49   O133  A    
O168  Zn5   S    
C175  N8    T    
C76   C85   T    
C141  O44   S    
C179  C243  S    
C256  O57   A    
O112  Zn10  S    
C252  C253  S    
C233  C268  S    
C78   C87   S    
C66   O171  A    
C69   C77   S    
C153  O67   D    
O124  Zn23  S    
C65   O170  A    
C148  O56   D    
C193  C251  S    
O1    Zn1   S    
C130  O21   D    
C106  C139  S    
C189  O106  S    
C248  C271  S    
H58   O106  S    
O2    Zn31  S    
C40   O125  A    
H17   O25   S    
H26   O42   S    
O142  Zn15  S    
C197  C264  S    
C160  N12   T    
C261  C262  S    
C36   O120  A    
C223  C227  S    
C57   O6    A    
H49   O88   S    
H42   O75   S    
O181  Zn32  S    
O175  Zn27  S    
O151  Zn24  S    
C257  C258  S    
C211  C247  S    
C195  C266  S    
O136  Zn26  S    
C48   O132  A    
C110  C111  S    
H32   O55   S    
O1    Zn30  S    
C210  N26   T    
O174  Zn23  S    
C107  H23   S    
C140  O42   S    
C64   C73   S    
C267  O197  A    
C117  C129  S    
C227  C280  T    
C136  O33   S    
C124  C163  S    
C229  C245  S    
O171  Zn2   S    
H24   O38   S    
O168  Zn3   S    
C223  O193  A    
C234  O35   A    
C46   O5    A    
C244  C274  S    
C154  O71   S    
O150  Zn22  S    
C192  O109  D    
O198  Zn18  S    
C56   C97   S    
C214  C249  S    
C61   O161  A    
C206  C255  S    
C145  O52   D    
C178  O83   D    
H47   O84   S    
C168  C242  S    
C46   C220  S    
H50   O91   S    
O191  Zn10  S    
C13   O101  A    
C39   O123  A    
O179  Zn4   S    
O57   Zn1   S    
C56   O145  A    
C114  H63   S    
C248  C253  S    
C251  C254  S    
O157  Zn2   S    
C192  C252  S    
H41   O73   S    
C13   C219  S    
C155  O72   D    
C243  C258  S    
C184  O94   D    
C121  C125  S    
C122  C250  S    
C124  C238  S    
C131  O23   D    
O190  Zn30  S    
C101  C236  S    
C17   C18   S    
O199  Zn19  S    
O131  Zn21  S    
C108  C237  S    
O130  Zn20  S    
C237  C282  S    
C119  C247  S    
C109  C114  S    
O179  Zn21  S    
C138  O37   D    
C152  O65   D    
C180  O85   D    
C58   O153  A    
C146  C165  S    
C135  C147  S    
C79   C113  S    
C137  O34   D    
O196  Zn16  S    
C128  O17   D    
C110  C134  S    
O173  Zn12  S    
C122  H8    S    
C208  C253  S    
C148  O58   S    
C243  C275  S    
C216  C269  T    
C132  O27   S    
C120  C121  S    
C177  O81   D    
C123  O9    S    
O188  Zn8   S    
C249  C252  S    
C112  C225  S    
H10   O11   S    
C187  O102  S    
C164  N29   T    
O168  Zn22  S    
C185  O96   D    
O115  Zn3   S    
C13   O200  A    
C111  C240  S    
O160  Zn27  S    
C89   C98   T    
C65   O163  A    
C151  O63   D    
C134  O31   S    
C15   C43   S    
O3    Zn21  S    
C69   O169  A    
C17   C286  T    
O125  Zn15  S    
H21   O33   S    
C79   C141  S    
C217  C270  T    
O4    Zn22  S    
C19   C288  T    
O163  Zn7   S    
C63   C72   S    
C62   C71   S    
C226  C279  T    
O120  Zn10  S    
O119  Zn9   S    
C209  C252  S    
H51   O93   S    
C247  C254  S    
O153  Zn26  S    
C153  O69   S    
C113  C237  S    
C57   O117  A    
C225  C277  T    
C167  N32   T    
C120  C248  S    
C250  C269  S    
C91   C99   T    
C191  O108  S    
C41   O126  A    
C169  C179  S    
O137  Zn9   S    
C39   O176  A    
C119  C127  S    
C61   C70   S    
C1    C226  S    
C107  C236  S    
H29   O49   S    
H31   O53   S    
C241  C260  S    
C231  C267  S    
C242  C259  S    
C41   O178  A    
C9    C51   S    
C144  O51   S    
C172  C211  S    
C1    O190  A    
O13   Zn28  S    
O180  Zn31  S    
H25   O40   S    
C127  O15   D    
C213  C214  S    
C139  O39   D    
C52   C102  S    
C26   C27   S    
C184  C260  S    
O112  Zn31  S    
O135  Zn27  S    
O157  Zn26  S    
O184  Zn4   S    
C54   C104  S    
C28   C29   S    
C207  C254  S    
H16   O22   S    
H61   O114  S    
C7    C36   S    
C79   C159  S    
C30   C31   S    
O200  Zn20  S    
C120  C126  S    
C119  C122  S    
C150  O62   S    
C40   O177  A    
C115  H64   S    
C222  C275  T    
C158  O77   S    
C204  C258  S    
C187  C257  S    
C55   O140  A    
C129  O20   S    
C111  H62   S    
C137  O36   S    
O46   Zn27  S    
C208  N24   T    
O124  Zn11  S    
C125  O10   D    
C14   C31   T    
C72   C81   T    
C123  O8    D    
C81   C89   S    
C166  N31   T    
O144  Zn17  S    
C5    C38   S    
C117  H3    S    
C187  O100  D    
C24   O3    A    
C118  H4    S    
O118  Zn2   S    
C114  C132  S    
C260  C263  S    
C37   O121  A    
C181  O88   S    
C146  C148  S    
C53   C100  S    
C224  C276  T    
O152  Zn25  S    
C204  N19   T    
C34   O172  A    
C79   C233  S    
C149  O60   S    
O156  Zn28  S    
O164  Zn8   S    
C59   O150  A    
C67   O167  A    
C167  C168  S    
C2    O90   A    
C246  C255  S    
C205  C257  S    
C18   C287  T    
C250  C251  S    
C197  N13   T    
C35   O4    A    
H19   O29   S    
C209  N25   T    
C6    C34   S    
C32   C33   S    
C174  C214  S    
C175  C215  S    
C45   O130  A    
O134  Zn25  S    
C35   O115  A    
C154  C211  S    
C196  N11   T    
C202  C260  S    
C56   O152  A    
C115  C242  S    
C193  O114  S    
C124  C157  S    
C221  C274  T    
O146  Zn32  S    
C90   C142  S    
O101  Zn5   S    
O140  Zn13  S    
C3    C40   S    
C10   C48   S    
C53   O138  A    
O68   Zn12  S    
O6    Zn25  S    
C109  C238  S    
C73   C82   T    
C141  O43   D    
C206  N21   T    
C171  N4    T    
C9    C27   T    
H14   O18   S    
C10   C28   T    
H33   O58   S    
C193  O111  D    
C201  C246  S    
C12   C30   T    
C44   O129  A    
C202  N17   T    
O195  Zn15  S    
C246  C273  S    
O145  Zn18  S    
H52   O95   S    
O170  Zn32  S    
C93   C102  T    
C130  O22   S    
C132  O26   D    
C39   C288  S    
C188  O103  D    
C189  O105  D    
C235  C284  S    
C7    C25   T    
C232  C285  T    
C63   O159  A    
C112  O2    A    
O113  Zn6   S    
C52   O137  A    
C242  C276  S    
C42   C287  S    
C238  C281  S    
C188  O104  S    
C177  C266  S    
H40   O71   S    
C182  O91   S    
H43   O77   S    
C108  C137  S    
O149  Zn21  S    
C229  C282  T    
O159  Zn23  S    
C66   C75   S    
C230  C283  T    
C278  O198  A    
C90   C160  S    
O172  Zn1   S    
C75   C84   T    
O147  Zn19  S    
O186  Zn6   S    
C212  C228  S    
C117  C244  S    
C44   O182  A    
O5    Zn24  S    
C4    C37   S    
C49   O186  A    
H11   O14   S    
C51   O188  A    
C149  C157  S    
H44   O80   S    
C199  N15   T    
C47   O184  A    
C57   C224  S    
C211  C215  S    
C195  N10   T    
C245  O195  A    
O35   Zn23  S    
C70   C78   T    
C59   C99   S    
C135  C164  S    
C192  O110  S    
C232  C256  S    
C240  C261  S    
C233  C285  S    
C59   O148  A    
C67   O165  A    
O169  Zn4   S    
C178  O84   S    
C115  C131  S    
C168  C201  S    
C162  N27   T    
C83   C92   S    
H60   O110  S    
C140  O41   D    
O90   Zn8   S    
C50   O187  A    
C144  O50   D    
C159  N1    T    
O166  Zn6   S    
C205  N20   T    
C55   C103  S    
C116  C117  S    
C213  C248  S    
C219  C272  T    
C155  C213  S    
C157  C241  S    
C58   O147  A    
C58   C96   S    
C113  C162  S    
C185  C259  S    
C68   O7    A    
C5    C22   T    
O141  Zn14  S    
C63   O156  A    
C215  C250  S    
C200  N16   T    
C142  O47   S    
O7    Zn26  S    
C46   O116  A    
C265  C266  S    
H46   O82   S    
H9    O9    S    
C54   O139  A    
C152  O66   S    
O179  Zn24  S    
C138  O38   S    
O183  Zn3   S    
C115  C118  S    
C3    C20   T    
C116  C243  S    
C150  C168  S    
C109  C136  S    
H54   O99   S    
C121  H7    S    
C128  O18   S    
C196  C265  S    
O162  Zn12  S    
C42   O127  A    
C198  C263  S    
C71   C80   T    
C43   O181  A    
C212  O192  A    
C133  O29   S    
C105  C108  S    
C255  C259  S    
C129  O19   D    
C106  C235  S    
C108  H34   S    
C241  C277  S    
C231  C284  T    
C36   O173  A    
C182  O89   D    
O24   Zn29  S    
C34   O119  A    
H30   O51   S    
C110  C239  S    
C111  C133  S    
C194  N9    T    
C158  C215  S    
C155  O73   S    
C156  O75   S    
C24   O113  A    
C43   O128  A    
C171  C201  S    
C90   C101  S    
C16   C33   T    
H13   O16   S    
C133  O28   D    
C85   C94   S    
C121  C249  S    
C181  C263  S    
H18   O27   S    
C264  C268  S    
C87   C96   T    
C62   O162  A    
O168  Zn20  S    
C189  C254  S    
C191  C253  S    
O132  Zn22  S    
C136  O32   D    
C147  O55   S    
C77   C86   T    
O167  Zn3   S    
C156  C214  S    
C154  O70   D    
H53   O97   S    
C191  O107  D    
C2    O199  A    
C145  O53   S    
C210  C251  S    
C95   C104  T    
C92   C100  T    
C51   O136  A    
O155  Zn31  S    
C105  C233  S    
C188  C255  S    
C186  O99   S    
C256  O196  A    
C228  C281  T    
C12   C45   S    
C1    O189  A    
C157  C166  S    
C94   C103  T    
O193  Zn13  S    
C14   C47   S    
H55   O102  S    
C124  C145  S    
C170  C190  S    
O117  Zn32  S    
O194  Zn14  S    
C218  C271  T    
O122  Zn13  S    
C68   O118  A    
C101  C161  S    
C37   O174  A    
C66   O164  A    
C203  N18   T    
O189  Zn9   S    
C109  H45   S    
C4    C21   T    
C101  C143  S    
C176  O80   S    
C179  C190  S    
H20   O31   S    
O79   Zn7   S    
C6    C23   T    
C180  O86   S    
O116  Zn4   S    
C135  C239  S    
C278  O79   A    
C161  N23   T    
C142  O45   D    
C23   C25   S    
H57   O104  S    
C186  C258  S    
C114  C241  S    
C11   C29   T    
O135  Zn29  S    
C42   O180  A    
O143  Zn16  S    
C67   C76   S    
H22   O36   S    
C122  C123  S    
C106  H12   S    
C126  O14   S    
C41   C286  S    
C150  O61   D    
C24   C218  S    
