data_mof_unit_31008.cif
_audit_creation_date              2012-12-10T18:18:28-0500
_audit_creation_method            fapswitch 2.2
_symmetry_space_group_name_H-M    P1
_symmetry_Int_Tables_number       1
_space_group_crystal_system       triclinic
_cell_length_a                    14.011906
_cell_length_b                    15.020118
_cell_length_c                    15.494657
_cell_angle_alpha                 90.002518
_cell_angle_beta                  68.021539
_cell_angle_gamma                 89.962678
_cell_volume                      3024.0168082

loop_
_atom_site_label
_atom_site_type_symbol
_atom_type_description
_atom_site_fract_x
_atom_site_fract_y
_atom_site_fract_z
_atom_type_partial_charge
C1    C     C_R   0.500075 0.673516 0.499762 0.902974
C2    C     C_R   0.500340 0.769367 0.499372 -0.104238
C3    C     C_R   0.409207 0.185114 0.510655 -0.175307
C4    C     C_R   0.590812 0.814905 0.489297 -0.173843
C5    C     C_R   0.407794 0.092683 0.510589 0.022265
C6    C     C_R   0.592231 0.907339 0.489341 0.022398
C7    C     C_R   0.499533 0.046380 0.500230 0.016237
C8    C     C_R   0.500491 0.953642 0.499703 0.016007
C9    C     C_R   0.590478 0.092873 0.490369 0.066101
C10   C     C_R   0.409545 0.907150 0.509567 0.065840
C11   C     C_R   0.317433 0.045394 0.520494 0.386326
C12   C     C_R   0.499928 0.326487 0.500231 0.898750
C13   C     C_R   0.682600 0.954631 0.479415 0.386939
C14   C     C_R   0.319079 0.952923 0.519850 -0.236710
C15   C     C_R   0.680949 0.047101 0.480069 -0.238334
C16   C     C_R   0.436095 0.497934 0.676176 0.886410
C17   C     C_R   0.563922 0.498628 0.323753 0.884298
C18   C     C_R   0.175283 0.451189 0.565167 0.001043
C19   C     C_R   0.824684 0.548905 0.434956 -0.000253
C20   C     C_R   0.228606 0.548635 0.435090 -0.026116
C21   C     C_R   0.771358 0.451314 0.564919 -0.020952
C22   C     C_R   0.128769 0.549555 0.433560 -0.029677
C23   C     C_R   0.374436 0.438277 0.104653 -0.215245
C24   C     C_R   0.871156 0.450449 0.566557 -0.023271
C25   C     C_R   0.050508 0.499797 0.500292 0.034087
C26   C     C_R   0.949426 0.500210 0.499839 0.034190
C27   C     C_R   0.073368 0.449779 0.567414 -0.055127
C28   C     C_R   0.926553 0.550322 0.432779 -0.060172
C29   C     C_R   0.105857 0.599119 0.366978 -0.241073
C30   C     C_R   0.894000 0.401053 0.633296 -0.244571
C31   C     C_R   0.005949 0.599906 0.366142 0.401274
C32   C     C_R   0.993887 0.400373 0.634216 0.402597
C33   C     C_R   0.397395 0.483747 0.776695 -0.071478
C34   C     C_R   0.619552 0.422421 0.899087 -0.213468
C35   C     C_R   0.602260 0.484503 0.223190 -0.067161
C36   C     C_R   0.260230 0.462115 0.926423 -0.161551
C37   C     C_R   0.736278 0.446946 0.075751 -0.168620
C38   C     C_R   0.292158 0.478274 0.831056 -0.167064
C39   C     C_R   0.706206 0.468126 0.170014 -0.173379
C40   C     C_R   0.469742 0.470037 0.817382 -0.248716
C41   C     C_R   0.529446 0.478945 0.181995 -0.243915
C42   C     C_R   0.439902 0.450342 0.911580 0.094955
C43   C     C_R   0.556528 0.452039 0.089971 0.095263
C44   C     C_R   0.333420 0.450120 0.967379 0.160124
C45   C     C_R   0.301834 0.440198 0.063381 -0.202117
C46   C     C_R   0.662185 0.439696 0.035124 0.158690
C47   C     C_R   0.513957 0.437918 0.952443 0.072241
C48   C     C_R   0.481204 0.442580 0.050174 0.069182
C49   C     C_R   0.692158 0.421648 0.940457 -0.199327
C50   C     C_R   0.589822 0.184872 0.490722 -0.204868
C51   C     C_R   0.410195 0.815148 0.509232 -0.203120
C52   C     C_R   0.499673 0.230648 0.500597 -0.101847
Cl1   Cl    Cl    0.984088 0.664112 0.280148 -0.584546
Cl2   Cl    Cl    0.015535 0.336689 0.720656 -0.606634
Cl3   Cl    Cl    0.200370 0.098561 0.533935 -0.548344
Cl4   Cl    Cl    0.799679 0.901469 0.465922 -0.546088
H1    H     H_    0.220747 0.437777 0.107109 0.162574
H2    H     H_    0.550057 0.478490 0.775065 0.160162
H3    H     H_    0.763637 0.471353 0.201128 0.170672
H4    H     H_    0.235045 0.487354 0.800241 0.173503
H5    H     H_    0.178615 0.460446 0.968343 0.154811
H6    H     H_    0.817120 0.436156 0.034717 0.158603
H7    H     H_    0.345088 0.431312 0.179420 0.156050
H8    H     H_    0.647674 0.408415 0.825423 0.142090
H9    H     H_    0.659799 0.220729 0.482809 0.167201
H10   H     H_    0.340217 0.779294 0.517150 0.168121
H11   H     H_    0.340160 0.222211 0.518687 0.217182
H12   H     H_    0.772361 0.410068 0.897588 0.180787
H13   H     H_    0.659857 0.777809 0.481273 0.217553
H14   H     H_    0.249430 0.916746 0.527450 0.193006
H15   H     H_    0.750600 0.083280 0.472460 0.192256
H16   H     H_    0.196046 0.413720 0.615119 0.181775
H17   H     H_    0.803917 0.586439 0.385050 0.183026
H18   H     H_    0.289566 0.586836 0.384547 0.134828
H19   H     H_    0.710397 0.413067 0.615415 0.127943
H20   H     H_    0.165777 0.637469 0.315348 0.182003
H21   H     H_    0.834035 0.362826 0.685035 0.171172
H22   H     H_    0.451138 0.497776 0.222502 0.156997
N1    N     N_R   0.249980 0.499930 0.499960 -0.116224
N2    N     N_R   0.750020 0.500070 0.500040 -0.115848
O1    O     O_R   0.419720 0.632140 0.499980 -0.622471
O2    O     O_R   0.580280 0.367860 0.500020 -0.625040
O3    O     O_R   0.580270 0.632160 0.499970 -0.615240
O4    O     O_R   0.419730 0.367840 0.500030 -0.617602
O5    O     O_R   0.373870 0.499980 0.632250 -0.618360
O6    O     O_R   0.626130 0.500020 0.367750 -0.618149
O7    O     O_R   0.534420 0.500000 0.632240 -0.623127
O8    O     O_R   0.465580 0.500000 0.367760 -0.625063
Zn1   Zn    Zn3+2 0.392800 0.499980 0.500010 0.961370
Zn2   Zn    Zn3+2 0.607200 0.500020 0.499990 0.962380

loop_
_geom_bond_atom_site_label_1
_geom_bond_atom_site_label_2
_ccdc_geom_bond_type
C23   C45   A    
C22   C29   A    
C17   O8    A    
C14   H14   S    
C2    C4    A    
C37   H6    S    
C7    C8    A    
C29   H20   S    
C46   C49   A    
C45   H1    S    
C43   C46   A    
C49   H12   S    
C24   C26   A    
C5    C11   A    
C11   C14   A    
C1    O1    A    
C12   O4    A    
C1    C2    S    
C30   H21   S    
C18   N1    A    
C22   C25   A    
C16   O7    A    
C50   C52   A    
C43   C48   A    
C13   Cl4   S    
O1    Zn1   S    
C40   C42   A    
C41   C43   A    
C42   C44   A    
C10   C51   A    
C32   Cl2   S    
C4    H13   S    
C12   C52   S    
C18   H16   S    
C37   C39   A    
C33   C40   A    
C40   H2    S    
C18   C27   A    
C12   O2    A    
C17   O6    A    
C19   H17   S    
C4    C6    A    
O6    Zn2   S    
C41   H22   S    
C5    C7    A    
O5    Zn1   S    
C6    C8    A    
C25   C26   A    
C51   H10   S    
C35   C39   A    
C16   C33   S    
C47   C48   A    
C39   H3    S    
C34   H8    S    
C20   H18   S    
C31   Cl1   S    
C19   C28   A    
C38   H4    S    
C20   C22   A    
C13   C15   A    
C10   C14   A    
C16   O5    A    
C36   C44   A    
C1    O3    A    
O4    Zn1   S    
C21   C24   A    
C36   H5    S    
C11   Cl3   S    
C44   C45   A    
C7    C9    A    
O3    Zn2   S    
C34   C49   A    
C23   C48   A    
C20   N1    A    
C27   C32   A    
C28   C31   A    
C3    H11   S    
C9    C50   A    
C3    C5    A    
C3    C52   A    
C25   C27   A    
C15   H15   S    
C21   H19   S    
C26   C28   A    
C33   C38   A    
O2    Zn2   S    
C36   C38   A    
C9    C15   A    
C29   C31   A    
C6    C13   A    
C30   C32   A    
C21   N2    A    
C23   H7    S    
C42   C47   A    
N2    Zn2   S    
C19   N2    A    
C35   C41   A    
C50   H9    S    
C24   C30   A    
N1    Zn1   S    
C2    C51   A    
O8    Zn1   S    
C8    C10   A    
O7    Zn2   S    
C34   C47   A    
C17   C35   S    
C37   C46   A    
