data_mof_unit_49105.cif
_audit_creation_date              2013-03-05T16:36:16-0500
_audit_creation_method            fapswitch 2.2
_symmetry_space_group_name_H-M    P1
_symmetry_Int_Tables_number       1
_space_group_crystal_system       triclinic
_cell_length_a                    27.875705
_cell_length_b                    9.157618
_cell_length_c                    7.767736
_cell_angle_alpha                 89.998348
_cell_angle_beta                  90.014505
_cell_angle_gamma                 90.207555
_cell_volume                      1982.89618212

loop_
_atom_site_label
_atom_site_type_symbol
_atom_site_description
_atom_site_fract_x
_atom_site_fract_y
_atom_site_fract_z
_atom_type_partial_charge
O1    O     O_R   0.500000 0.288390 0.642760 -0.583980
O2    O     O_R   0.500000 0.711610 0.357240 -0.574841
O3    O     O_R   0.500000 0.711610 0.642760 -0.583902
O4    O     O_R   0.500000 0.288390 0.357240 -0.574489
C1    C     C_R   0.499990 0.219853 0.500004 0.831844
C2    C     C_R   0.500008 0.780146 0.500001 0.830930
O5    O     O_R   0.430260 0.500000 0.642770 -0.580664
O6    O     O_R   0.569740 0.500000 0.357230 -0.519956
O7    O     O_R   0.569740 0.500000 0.642770 -0.580317
O8    O     O_R   0.430260 0.500000 0.357230 -0.520498
C3    C     C_R   0.407094 0.502725 0.499968 0.832582
C4    C     C_R   0.592923 0.497298 0.500020 0.832000
Cu1   Cu    Cu3+1 0.500000 0.500000 0.669080 1.046769
Cu2   Cu    Cu3+1 0.500000 0.500000 0.330920 1.086710
C5    C     C_R   0.176547 0.370613 0.478824 0.581400
C6    C     C_R   0.823179 0.633542 0.477491 0.582270
C7    C     C_R   0.177377 0.627967 0.526663 0.582869
C8    C     C_R   0.822974 0.377154 0.531885 0.571998
O9    O     O_2   0.200682 0.244088 0.460224 -0.515709
O10   O     O_2   0.798708 0.759054 0.455339 -0.515255
O11   O     O_2   0.202352 0.753337 0.547125 -0.512927
O12   O     O_2   0.798310 0.251610 0.555385 -0.515775
N1    N     N_R   0.201157 0.498624 0.504135 -0.447737
N2    N     N_R   0.798881 0.505455 0.505845 -0.450599
C9    C     C_R   0.278109 0.549338 0.647304 -0.095986
C10   C     C_R   0.721956 0.455961 0.649532 -0.096820
C11   C     C_R   0.277811 0.450941 0.358663 -0.198316
C12   C     C_R   0.722232 0.548018 0.358073 -0.200645
C13   C     C_R   0.328010 0.559473 0.644593 0.311127
C14   C     C_R   0.672084 0.444673 0.646572 0.309602
C15   C     C_R   0.328204 0.452200 0.355555 0.366177
C16   C     C_R   0.671842 0.545570 0.354421 0.365765
C17   C     C_R   0.252772 0.497970 0.504216 0.207735
C18   C     C_R   0.747270 0.504840 0.505289 0.210174
C19   C     C_R   0.101240 0.501615 0.498042 -0.055986
C20   C     C_R   0.898802 0.504920 0.500830 -0.058934
C21   C     C_R   0.126204 0.370096 0.473097 -0.095727
C22   C     C_R   0.873546 0.635201 0.472452 -0.049208
C23   C     C_R   0.127043 0.631358 0.526485 -0.052866
C24   C     C_R   0.873308 0.374961 0.531907 -0.042962
C25   C     C_R   0.100539 0.242614 0.435155 -0.170943
C26   C     C_R   0.898944 0.762670 0.432655 -0.294946
C27   C     C_R   0.102189 0.760634 0.559418 -0.261418
C28   C     C_R   0.898483 0.246593 0.566650 -0.271969
C29   C     C_R   0.353901 0.506217 0.499755 -0.198388
C30   C     C_R   0.646148 0.494319 0.500009 -0.198340
H1    H     H_    0.257831 0.412794 0.247662 0.162529
H2    H     H_    0.742213 0.584133 0.246192 0.161071
H3    H     H_    0.258709 0.587228 0.759529 0.182791
H4    H     H_    0.741367 0.420938 0.763047 0.181342
H5    H     H_    0.119177 0.142944 0.401510 0.206884
H6    H     H_    0.879691 0.861138 0.398640 0.186293
H7    H     H_    0.121820 0.859082 0.592423 0.188984
H8    H     H_    0.879155 0.147981 0.601192 0.188283
C31   C     C_R   0.974562 0.370746 0.510193 0.012852
C32   C     C_R   0.025598 0.637333 0.508276 0.039868
C33   C     C_R   0.975066 0.637622 0.480552 0.044389
C34   C     C_R   0.024827 0.370428 0.478304 -0.038683
C35   C     C_R   0.949547 0.504468 0.497493 -0.068729
C36   C     C_R   0.050479 0.503234 0.494786 -0.066142
C37   C     C_R   0.948820 0.244445 0.562182 0.384956
C38   C     C_R   0.051819 0.763594 0.557706 0.489291
C39   C     C_R   0.949348 0.763488 0.428980 0.458911
C40   C     C_R   0.050613 0.243808 0.427152 0.461303
C41   C     C_1   0.499996 0.065226 0.500010 -0.145390
C42   C     C_1   0.500000 0.934774 0.500006 -0.145438
N3    N     N_1   0.500000 0.500000 0.076820 -0.014067
N4    N     N_1   0.500000 0.500000 0.923180 -0.019916
O13   O     O_3   0.352782 0.399528 0.214098 -0.672874
H9    H     H_    0.329490 0.366391 0.125663 0.341050
O14   O     O_3   0.647277 0.594360 0.210991 -0.671281
H10   H     H_    0.670572 0.625715 0.121715 0.341969
O15   O     O_3   0.349778 0.625266 0.783994 -0.679119
H11   H     H_    0.377146 0.684078 0.740917 0.336399
O16   O     O_3   0.650373 0.381487 0.787640 -0.679709
H12   H     H_    0.623523 0.319907 0.745764 0.337123
O17   O     O_3   0.973345 0.124770 0.623160 -0.663402
H13   H     H_    0.950114 0.049420 0.662145 0.350471
O18   O     O_3   0.027919 0.882953 0.622658 -0.646258
H14   H     H_    0.051486 0.958227 0.659232 0.353825
O19   O     O_3   0.973598 0.879576 0.356507 -0.639471
H15   H     H_    0.950079 0.952699 0.315357 0.324325
O20   O     O_3   0.029003 0.126272 0.348457 -0.642730
H16   H     H_    0.999463 0.161597 0.291216 0.328450

loop_
_geom_bond_atom_site_label_1
_geom_bond_atom_site_label_2
_geom_bond_distance
_ccdc_geom_bond_type
O5    Cu1   1.954713 S    
C31   C35   1.414814 A    
O15   H11   0.990554 S    
C20   C35   1.414798 A    
O19   H15   0.991703 S    
O17   H13   0.991995 S    
C11   C17   1.397698 A    
C5    O9    1.349713 S    
C7    N1    1.370689 A    
C2    C42   1.416019 S    
C39   O19   1.378029 S    
O1    C1    1.274207 A    
C19   C21   1.406611 A    
C22   C26   1.397694 A    
C10   H4    1.083579 S    
C33   C35   1.415627 A    
C13   O15   1.378685 S    
C34   C36   1.414386 A    
C32   C33   1.424937 A    
C7    C23   1.403549 A    
O7    Cu1   1.954813 S    
C5    C21   1.404012 A    
C8    C24   1.403312 A    
C27   H7    1.083684 S    
C37   O17   1.377700 S    
N1    C17   1.438833 S    
Cu2   N3    1.973781 S    
C8    N2    1.370426 A    
O3    Cu1   1.948593 S    
C6    O10   1.349679 S    
O3    C2    1.274195 A    
C5    N1    1.370273 A    
C12   C18   1.397398 A    
C6    N2    1.370192 A    
Cu1   Cu2   2.626738 S    
O4    Cu2   1.948594 S    
O2    C2    1.274238 A    
C12   C16   1.405031 A    
C10   C18   1.397043 A    
C33   C39   1.417327 A    
C16   O14   1.382608 S    
C9    C13   1.393947 A    
C11   C15   1.404968 A    
N3    N4    1.193436 T    
C38   O18   1.377909 S    
C20   C24   1.404860 A    
C4    C30   1.484048 S    
O8    Cu2   1.954816 S    
C23   C27   1.397502 A    
C34   C40   1.423119 A    
N2    C18   1.438714 S    
C32   C36   1.416441 A    
C13   C29   1.423909 A    
C19   C36   1.415355 A    
C19   C23   1.404120 A    
O16   H12   0.990381 S    
C40   O20   1.374844 S    
O5    C3    1.283670 A    
O20   H16   0.991054 S    
C15   O13   1.382837 S    
O6    C4    1.283824 A    
C1    C41   1.416020 S    
C10   C14   1.393879 A    
C32   C38   1.418575 A    
C3    C29   1.483256 S    
O1    Cu1   1.948605 S    
C11   H1    1.083527 S    
C12   H2    1.083415 S    
O6    Cu2   1.954710 S    
C8    O12   1.349866 S    
C16   C30   1.417783 A    
C14   C30   1.423880 A    
O4    C1    1.274227 A    
C28   C37   1.403823 A    
C20   C22   1.404878 A    
O14   H10   0.991907 S    
C14   O16   1.378255 S    
C31   C37   1.417689 A    
C21   C25   1.398378 A    
O13   H9    0.991926 S    
O2    Cu2   1.948604 S    
O7    C4    1.283842 A    
C9    H3    1.083700 S    
C9    C17   1.397406 A    
O8    C3    1.283525 A    
O18   H14   0.992012 S    
C28   H8    1.083660 S    
C24   C28   1.397525 A    
C41   C42   1.194629 T    
C15   C29   1.417573 A    
C31   C34   1.422986 A    
C6    C22   1.404587 A    
C25   C40   1.393188 A    
C26   C39   1.405345 A    
C25   H5    1.083903 S    
C27   C38   1.404499 A    
C26   H6    1.083690 S    
Cu1   N4    1.973781 S    
C7    O11   1.349908 S    
