data_mof_unit_22659.cif
_audit_creation_date              2012-10-26T18:28:40-0400
_audit_creation_method            fapswitch 2.2
_symmetry_space_group_name_H-M    P1
_symmetry_Int_Tables_number       1
_space_group_crystal_system       triclinic
_cell_length_a                    11.822777
_cell_length_b                    12.938514
_cell_length_c                    15.861978
_cell_angle_alpha                 94.778303
_cell_angle_beta                  74.257967
_cell_angle_gamma                 99.838625
_cell_volume                      2299.29357874

loop_
_atom_site_label
_atom_site_type_symbol
_atom_type_description
_atom_site_fract_x
_atom_site_fract_y
_atom_site_fract_z
_atom_type_partial_charge
C1    C     C_R   0.522048 0.700285 0.498543 0.575688
C2    C     C_R   0.355571 0.024531 0.575083 -0.080139
C3    C     C_R   0.637694 0.868285 0.434094 0.213126
C4    C     C_R   0.362349 0.131793 0.566087 0.213457
C5    C     C_R   0.443321 0.865552 0.538179 -0.163198
C6    C     C_R   0.556614 0.134458 0.461895 -0.163241
C7    C     C_R   0.449294 0.972323 0.528522 -0.008666
C8    C     C_R   0.550663 0.027707 0.471594 -0.008674
C9    C     C_R   0.941241 0.596927 0.583616 -0.143829
C10   C     C_R   0.058739 0.402996 0.416431 -0.143212
C11   C     C_R   0.825102 0.591115 0.575019 0.112652
C12   C     C_R   0.477940 0.299723 0.501486 0.574870
C13   C     C_R   0.174897 0.408854 0.424999 0.113184
C14   C     C_R   0.860211 0.457379 0.462904 0.376790
C15   C     C_R   0.139759 0.542542 0.537156 0.376240
C16   C     C_R   0.427652 0.494753 0.667709 0.558831
C17   C     C_R   0.572214 0.503859 0.332216 0.560380
C18   C     C_R   0.979575 0.464900 0.469322 -0.016382
C19   C     C_R   0.020406 0.535036 0.530720 -0.017105
C20   C     C_R   0.385234 0.485958 0.763239 0.014429
C21   C     C_R   0.613678 0.501586 0.236066 0.012797
C22   C     C_R   0.226874 0.453097 0.895732 -0.119703
C23   C     C_R   0.354029 0.453711 0.083973 -0.128882
C24   C     C_R   0.770255 0.501525 0.101368 -0.121527
C25   C     C_R   0.263775 0.465592 0.805523 -0.084641
C26   C     C_R   0.734291 0.505450 0.192615 -0.089229
C27   C     C_R   0.468988 0.494017 0.812057 -0.132591
C28   C     C_R   0.529696 0.493046 0.187363 -0.136996
C29   C     C_R   0.434411 0.477016 0.902381 0.035069
C30   C     C_R   0.563049 0.485336 0.095350 0.033281
C31   C     C_R   0.310977 0.458736 0.944362 0.050877
C32   C     C_R   0.685929 0.492282 0.052549 0.051261
C33   C     C_R   0.518853 0.479291 0.952118 0.035682
C34   C     C_R   0.642270 0.484732 0.912042 -0.130927
C35   C     C_R   0.478140 0.473419 0.044924 0.035954
C36   C     C_3   0.245743 0.329612 0.367431 -0.226483
C37   C     C_3   0.196214 0.217264 0.398029 -0.299119
C38   C     C_3   0.273245 0.138530 0.345157 -0.435229
C39   C     C_3   0.754248 0.670324 0.632624 -0.227496
C40   C     C_3   0.803976 0.782729 0.602192 -0.298951
C41   C     C_3   0.726865 0.861465 0.654961 -0.435475
C42   C     C_R   0.272490 0.445902 0.034356 -0.121356
C43   C     C_R   0.723679 0.490195 0.961501 -0.122651
C44   C     C_R   0.463310 0.186761 0.508737 0.010153
C45   C     C_R   0.536663 0.813265 0.491350 0.009608
C46   C     C_R   0.644433 0.975531 0.425080 -0.080436
Cl1   Cl    Cl    0.247514 0.195537 0.633142 -0.617446
Cl2   Cl    Cl    0.752726 0.804645 0.367196 -0.610905
Cl3   Cl    Cl    0.188190 0.629846 0.616294 -0.644187
Cl4   Cl    Cl    0.811692 0.369832 0.383947 -0.650413
Cu1   Cu    Cu3+1 0.386820 0.492450 0.493500 1.042672
Cu2   Cu    Cu3+1 0.613180 0.507550 0.506500 1.043183
H1    H     H_    0.178316 0.430374 0.066954 0.117677
H2    H     H_    0.864183 0.505853 0.068864 0.112437
H3    H     H_    0.316271 0.440580 0.152750 0.101125
H4    H     H_    0.679270 0.481750 0.842087 0.110764
H5    H     H_    0.634207 0.177220 0.418099 0.174024
H6    H     H_    0.365700 0.822767 0.581937 0.174037
H7    H     H_    0.721819 0.017607 0.380563 0.157393
H8    H     H_    0.278217 0.982478 0.619636 0.157625
H9    H     H_    0.275255 0.138549 0.274741 0.162731
H10   H     H_    0.365456 0.158431 0.352234 0.156594
H11   H     H_    0.235813 0.058547 0.369493 0.170720
H12   H     H_    0.817285 0.493949 0.928062 0.117717
H13   H     H_    0.192620 0.213490 0.468331 0.235203
H14   H     H_    0.104401 0.193915 0.390671 0.167864
H15   H     H_    0.240905 0.334266 0.298808 0.101689
H16   H     H_    0.340270 0.344173 0.363629 0.206125
H17   H     H_    0.634855 0.841845 0.647423 0.156631
H18   H     H_    0.724222 0.861104 0.725478 0.162945
H19   H     H_    0.764688 0.941522 0.630918 0.170357
H20   H     H_    0.895682 0.805996 0.609798 0.168135
H21   H     H_    0.807905 0.786632 0.531834 0.235294
H22   H     H_    0.659764 0.655878 0.636272 0.205704
H23   H     H_    0.969108 0.652292 0.631778 0.166690
H24   H     H_    0.758868 0.665437 0.701293 0.105815
H25   H     H_    0.030867 0.347595 0.368290 0.165883
H26   H     H_    0.438637 0.495093 0.222883 0.123838
H27   H     H_    0.561078 0.515420 0.778125 0.115569
H28   H     H_    0.800782 0.512044 0.228968 0.181445
H29   H     H_    0.197454 0.459016 0.769008 0.178630
H30   H     H_    0.132431 0.438250 0.927480 0.112226
N1    N     N_R   0.216750 0.481110 0.483710 -0.204156
N2    N     N_R   0.783250 0.518890 0.516290 -0.203602
O1    O     O_R   0.419950 0.645670 0.495380 -0.454150
O2    O     O_R   0.580050 0.354330 0.504620 -0.454555
O3    O     O_R   0.611110 0.658410 0.506370 -0.493347
O4    O     O_R   0.388890 0.341590 0.493630 -0.494283
O5    O     O_R   0.350820 0.490050 0.621260 -0.429289
O6    O     O_R   0.649180 0.509950 0.378740 -0.428366
O7    O     O_R   0.541970 0.502800 0.632250 -0.550974
O8    O     O_R   0.458030 0.497200 0.367750 -0.551264

loop_
_geom_bond_atom_site_label_1
_geom_bond_atom_site_label_2
_ccdc_geom_bond_type
C1    O3    A    
C21   C26   A    
C34   H4    S    
C31   C42   A    
C46   H7    S    
C27   C29   A    
C14   C18   A    
Cu2   O6    S    
C2    C7    A    
C14   N2    A    
Cu1   O1    S    
C36   H15   S    
C7    C8    A    
C15   C19   A    
C23   C42   A    
C5    H6    S    
C22   H30   S    
C36   C37   S    
C24   C26   A    
C27   H27   S    
C42   H1    S    
C2    H8    S    
C20   C25   A    
C24   H2    S    
C29   C33   A    
C3    Cl2   S    
C40   H21   S    
C18   C19   A    
C39   H22   S    
Cu2   N2    S    
C9    C19   A    
C22   C25   A    
C37   H13   S    
C28   H26   S    
C41   H19   S    
C38   H9    S    
C16   O5    A    
C6    C44   A    
C25   H29   S    
C6    H5    S    
C17   O8    A    
C10   H25   S    
C43   H12   S    
C8    C46   A    
C1    O1    A    
C22   C31   A    
C12   O4    A    
Cu1   Cu2   S    
C13   C36   S    
C39   C40   S    
C5    C7    A    
C15   N1    A    
C4    C44   A    
C5    C45   A    
C3    C45   A    
C26   H28   S    
C2    C4    A    
C24   C32   A    
C37   C38   S    
Cu1   O8    S    
C16   C20   S    
C37   H14   S    
C33   C34   A    
C39   H24   S    
C11   C39   S    
C9    C11   A    
C30   C35   A    
C40   C41   S    
C21   C28   A    
C23   C35   A    
Cu1   N1    S    
C41   H17   S    
C38   H11   S    
C40   H20   S    
Cu2   O3    S    
C17   O6    A    
C10   C13   A    
Cu1   O4    S    
C6    C8    A    
C36   H16   S    
C23   H3    S    
C20   C27   A    
C11   N2    A    
C13   N1    A    
C3    C46   A    
C12   O2    A    
C28   C30   A    
C12   C44   S    
Cu1   O5    S    
C30   C32   A    
C1    C45   S    
C14   Cl4   S    
C10   C18   A    
Cu2   O2    S    
C33   C35   A    
C32   C43   A    
C15   Cl3   S    
C17   C21   S    
C16   O7    A    
C29   C31   A    
Cu2   O7    S    
C9    H23   S    
C34   C43   A    
C41   H18   S    
C38   H10   S    
C4    Cl1   S    
