data_mof_unit_17292.cif
_audit_creation_date              2012-12-11T15:54:01-0500
_audit_creation_method            fapswitch 2.2
_symmetry_space_group_name_H-M    P1
_symmetry_Int_Tables_number       1
_space_group_crystal_system       triclinic
_cell_length_a                    10.690133
_cell_length_b                    10.700225
_cell_length_c                    17.059323
_cell_angle_alpha                 80.621657
_cell_angle_beta                  99.2661
_cell_angle_gamma                 118.891474
_cell_volume                      1677.98681597

loop_
_atom_site_label
_atom_site_type_symbol
_atom_type_description
_atom_site_fract_x
_atom_site_fract_y
_atom_site_fract_z
_atom_type_partial_charge
C1    C     C_R   0.361389 0.230315 0.627672 0.561018
C2    C     C_1   0.321035 0.161803 0.778417 -0.054620
C3    C     C_1   0.335633 0.663848 0.277756 -0.046342
C4    C     C_R   0.368932 0.654910 0.585421 0.545788
C5    C     C_1   0.322844 0.673012 0.207043 -0.053111
C6    C     C_R   0.873705 0.687652 0.168750 0.021129
C7    C     C_R   0.924082 0.609067 0.226106 0.032800
C8    C     C_R   0.911396 0.601978 0.305399 0.015423
C9    C     C_R   0.829775 0.780718 0.275245 -0.154106
C10   C     C_R   0.840445 0.785291 0.194312 -0.156584
C11   C     C_3   0.897007 0.457539 0.231433 -0.266117
C12   C     C_R   0.394496 0.830881 0.670876 -0.110193
C13   C     C_3   0.881550 0.448267 0.319223 -0.272182
C14   C     C_R   0.849553 0.676149 0.330016 0.017719
C15   C     C_R   0.305734 0.132333 0.168496 0.016800
C16   C     C_R   0.780867 0.621019 0.626285 0.549786
C17   C     C_R   0.187597 0.115701 0.202154 0.039503
C18   C     C_R   0.193821 0.125441 0.281459 0.026340
C19   C     C_R   0.430808 0.143114 0.300856 -0.156952
C20   C     C_R   0.423465 0.133233 0.219467 -0.159272
C21   C     C_3   0.097133 0.189050 0.177482 -0.270004
C22   C     C_3   0.103593 0.201576 0.265113 -0.266096
C23   C     C_R   0.390514 0.856162 0.748459 -0.025000
C24   C     C_R   0.320617 0.152701 0.330605 0.016847
C25   C     C_R   0.946877 0.724726 0.851536 0.537236
C26   C     C_R   0.284016 0.751551 0.882457 0.534374
C27   C     C_R   0.284751 0.115097 0.857913 0.529435
C28   C     C_R   0.350409 0.224350 0.400853 0.546821
C29   C     C_R   0.894971 0.694372 0.086786 0.559096
C30   C     C_R   0.312754 0.700613 0.123915 0.559732
C31   C     C_R   0.283315 0.103711 0.086590 0.550280
C32   C     C_R   0.365281 0.654185 0.360754 0.550631
C33   C     C_R   0.775507 0.624677 0.401247 0.546445
C34   C     C_3   0.132444 0.463168 0.793300 -0.238298
C35   C     C_R   0.288493 0.742243 0.797912 -0.033959
C36   C     C_R   0.186185 0.617945 0.762497 -0.003219
C37   C     C_R   0.200117 0.592749 0.688267 0.005922
C38   C     C_2   0.504764 0.996338 0.776004 0.221881
C39   C     C_3   0.148933 0.436475 0.711818 -0.243091
C40   C     C_R   0.313855 0.693375 0.645322 -0.015387
C41   C     C_1   0.849882 0.669193 0.702724 -0.027040
C42   C     C_1   0.896817 0.703389 0.769336 -0.031779
C43   C     C_1   0.345232 0.189741 0.709984 -0.016436
Cr1   Cr    Cr6+3 0.608440 0.389080 0.519680 1.049088
Cr2   Cr    Cr6+3 0.288640 0.400090 0.490760 1.007992
Cr3   Cr    Cr6+3 0.602940 0.710800 0.489510 1.026789
Cr4   Cr    Cr6+3 0.052530 0.947560 0.964210 1.029853
Cr5   Cr    Cr6+3 0.059970 0.626800 0.992920 1.012297
Cr6   Cr    Cr6+3 0.373320 0.938440 0.995370 1.003402
H1    H     H_    0.475089 0.913719 0.634201 0.190829
H2    H     H_    0.997693 0.136804 0.289596 0.133314
H3    H     H_    0.018732 0.411458 0.806849 0.166145
H4    H     H_    0.207078 0.445074 0.841553 0.160362
H5    H     H_    0.233859 0.404333 0.713147 0.156491
H6    H     H_    0.044847 0.369129 0.678501 0.162717
H7    H     H_    0.789493 0.846520 0.292753 0.140255
H8    H     H_    0.814900 0.858517 0.151787 0.130389
H9    H     H_    0.993105 0.450410 0.220666 0.147473
H10   H     H_    0.515078 0.025178 0.834881 0.174600
H11   H     H_    0.795330 0.388082 0.196858 0.140750
H12   H     H_    0.770730 0.371560 0.334301 0.158126
H13   H     H_    0.968182 0.434571 0.359011 0.145071
H14   H     H_    0.527794 0.157185 0.338265 0.130093
H15   H     H_    0.511274 0.131744 0.196314 0.134492
H16   H     H_    0.987916 0.116359 0.151449 0.142684
H17   H     H_    0.153724 0.294264 0.141984 0.143247
H18   H     H_    0.162201 0.315284 0.278834 0.163257
O1    O     O_R   0.754020 0.497590 0.609930 -0.490944
O2    O     O_R   0.406180 0.826930 0.920660 -0.528226
O3    O     O_R   0.358620 0.062870 0.901950 -0.538409
O4    O     O_R   0.481420 0.271390 0.600630 -0.459315
O5    O     O_R   0.163910 0.085460 0.050210 -0.515190
O6    O     O_R   0.935200 0.815170 0.045770 -0.495800
O7    O     O_R   0.916120 0.596690 0.069430 -0.514700
O8    O     O_R   0.192310 0.631200 0.086170 -0.503073
O9    O     O_R   0.406770 0.819480 0.096420 -0.504767
O10   O     O_R   0.359170 0.055960 0.064880 -0.502120
O11   O     O_3   0.161940 0.837600 0.984160 -0.291063
O12   O     O_R   0.295080 0.533620 0.397890 -0.512910
O13   O     O_R   0.263810 0.254550 0.589590 -0.526672
O14   O     O_R   0.300820 0.531200 0.560890 -0.500018
O15   O     O_R   0.491480 0.744020 0.564270 -0.517069
O16   O     O_R   0.726290 0.693800 0.583010 -0.494014
O17   O     O_R   0.747830 0.500190 0.434090 -0.524106
O18   O     O_R   0.475680 0.273800 0.437630 -0.508079
O19   O     O_R   0.257620 0.257160 0.413750 -0.524087
O20   O     O_2   0.593057 0.084987 0.731669 -0.517390
O21   O     O_R   0.485280 0.746620 0.388440 -0.513164
O22   O     O_R   0.720550 0.696220 0.420010 -0.510148
O23   O     O_3   0.500010 0.499990 0.499980 -0.253727
O24   O     O_R   0.163320 0.092900 0.874450 -0.507725
O25   O     O_R   0.934650 0.822080 0.882840 -0.475179
O26   O     O_R   0.915520 0.604140 0.893670 -0.504633
O27   O     O_R   0.191760 0.638110 0.923230 -0.502409

loop_
_geom_bond_atom_site_label_1
_geom_bond_atom_site_label_2
_ccdc_geom_bond_type
C26   O27   A    
C25   O26   A    
C8    C13   S    
C21   H17   S    
C41   C42   T    
C19   C20   A    
C14   C33   S    
C7    C8    A    
Cr3   O22   S    
C7    C11   S    
C12   C23   A    
C1    O4    A    
Cr5   O27   S    
C18   C24   A    
C36   C37   A    
C37   C40   A    
C39   H5    S    
C29   O6    A    
C32   O21   A    
Cr6   O11   S    
Cr1   O4    S    
Cr4   O25   S    
Cr5   O11   S    
C12   C40   A    
Cr3   O15   S    
C1    C43   S    
C39   H6    S    
C13   H13   S    
C4    C40   S    
C19   H14   S    
C27   O24   A    
C2    C27   S    
C16   O1    A    
C11   H9    S    
C9    C10   A    
Cr6   O2    S    
C21   C22   S    
Cr5   O8    S    
C31   O10   A    
Cr3   O21   S    
C15   C20   A    
Cr4   O5    S    
Cr5   O26   S    
C4    O14   A    
C34   C39   S    
Cr5   O7    S    
C10   H8    S    
Cr4   O6    S    
C29   O7    A    
C3    C5    T    
C16   O16   A    
C17   C21   S    
Cr3   O16   S    
C35   C36   A    
C20   H15   S    
C9    C14   A    
C33   O22   A    
C30   O9    A    
C2    C43   T    
C17   C18   A    
Cr6   O9    S    
C13   H12   S    
Cr2   O12   S    
C9    H7    S    
Cr2   O23   S    
C27   O3    A    
C31   O5    A    
C23   C35   A    
Cr6   O3    S    
C28   O19   A    
Cr1   O1    S    
C11   H11   S    
Cr1   O23   S    
C5    C30   S    
C15   C17   A    
C25   O25   A    
C8    C14   A    
C21   H16   S    
C18   C22   S    
Cr4   O24   S    
Cr2   O14   S    
C24   C28   S    
Cr1   O17   S    
C25   C42   S    
C6    C10   A    
C12   H1    S    
C15   C31   S    
C6    C7    A    
Cr3   O23   S    
C23   C38   S    
C34   H3    S    
C38   O20   D    
Cr2   O19   S    
C37   C39   S    
C32   O12   A    
C30   O8    A    
C11   C13   S    
Cr6   O10   S    
C19   C24   A    
Cr2   O13   S    
C34   C36   S    
C3    C32   S    
C33   O17   A    
C22   H18   S    
C38   H10   S    
C26   C35   S    
C6    C29   S    
C4    O15   A    
C34   H4    S    
C28   O18   A    
C26   O2    A    
C1    O13   A    
Cr4   O11   S    
C16   C41   S    
Cr1   O18   S    
C22   H2    S    
