data_mof_unit_55974.cif
_audit_creation_date              2013-03-05T16:08:45-0500
_audit_creation_method            fapswitch 2.2
_symmetry_space_group_name_H-M    P1
_symmetry_Int_Tables_number       1
_space_group_crystal_system       triclinic
_cell_length_a                    27.83287
_cell_length_b                    11.698036
_cell_length_c                    10.753211
_cell_angle_alpha                 90.000782
_cell_angle_beta                  89.999801
_cell_angle_gamma                 90.994973
_cell_volume                      3500.60916519

loop_
_atom_site_label
_atom_site_type_symbol
_atom_site_description
_atom_site_fract_x
_atom_site_fract_y
_atom_site_fract_z
_atom_type_partial_charge
O1    O     O_R   0.500000 0.334450 0.602530 -0.596155
O2    O     O_R   0.500000 0.665550 0.397470 -0.597215
O3    O     O_R   0.500000 0.665550 0.602530 -0.596080
O4    O     O_R   0.500000 0.334450 0.397470 -0.597259
C1    C     C_R   0.499945 0.280949 0.500000 0.957661
C2    C     C_R   0.500053 0.719051 0.500001 0.957665
O5    O     O_R   0.428750 0.500000 0.602520 -0.573954
O6    O     O_R   0.571250 0.500000 0.397480 -0.572212
O7    O     O_R   0.571250 0.500000 0.602520 -0.573121
O8    O     O_R   0.428750 0.500000 0.397480 -0.571968
C3    C     C_R   0.405704 0.499249 0.500073 0.993127
C4    C     C_R   0.594295 0.500748 0.500072 0.993356
Zn1   Zn    Zn3+2 0.500000 0.500000 0.636920 1.128414
Zn2   Zn    Zn3+2 0.500000 0.500000 0.363080 1.131983
C5    C     C_R   0.175781 0.388213 0.514828 0.578634
C6    C     C_R   0.824219 0.611743 0.514911 0.578673
C7    C     C_R   0.178179 0.591234 0.502464 0.577577
C8    C     C_R   0.821820 0.408724 0.502510 0.577543
O9    O     O_2   0.200183 0.291491 0.533952 -0.448666
O10   O     O_2   0.799818 0.708462 0.534071 -0.448602
O11   O     O_2   0.203766 0.686601 0.474232 -0.426155
O12   O     O_2   0.796235 0.313359 0.474262 -0.426234
N1    N     N_R   0.200868 0.489171 0.506891 -0.347858
N2    N     N_R   0.799131 0.510787 0.506957 -0.347821
C9    C     C_R   0.277770 0.555028 0.593047 -0.147118
C10   C     C_R   0.722222 0.444893 0.593046 -0.147479
C11   C     C_R   0.276968 0.426353 0.417291 -0.154512
C12   C     C_R   0.723037 0.573647 0.417359 -0.154662
C13   C     C_R   0.327655 0.563239 0.588963 0.297204
C14   C     C_R   0.672337 0.436685 0.588930 0.299501
C15   C     C_R   0.327020 0.426008 0.415749 0.318672
C16   C     C_R   0.672985 0.573998 0.415798 0.318406
C17   C     C_R   0.252370 0.489179 0.506285 0.151280
C18   C     C_R   0.747629 0.510782 0.506332 0.151209
C19   C     C_R   0.101421 0.492867 0.515796 -0.128845
C20   C     C_R   0.898579 0.507091 0.515839 -0.128854
C21   C     C_R   0.125098 0.386669 0.506806 -0.134927
C22   C     C_R   0.874900 0.613288 0.506870 -0.134964
C23   C     C_R   0.128550 0.596029 0.522889 -0.156743
C24   C     C_R   0.871450 0.403930 0.522929 -0.156740
C25   C     C_R   0.097111 0.284979 0.491142 0.406157
C26   C     C_R   0.902886 0.714979 0.491201 0.406156
C27   C     C_R   0.105181 0.699145 0.550771 0.377573
C28   C     C_R   0.894819 0.300813 0.550795 0.377586
C29   C     C_R   0.353022 0.496666 0.500918 -0.298812
C30   C     C_R   0.646977 0.503310 0.500920 -0.298878
H1    H     H_    0.256641 0.376554 0.349994 0.212000
H2    H     H_    0.743369 0.623471 0.350094 0.212026
H3    H     H_    0.258024 0.602722 0.661919 0.209550
H4    H     H_    0.741961 0.397162 0.661899 0.209490
C31   C     C_R   0.972662 0.397382 0.525339 0.022942
C32   C     C_R   0.027338 0.602576 0.525337 0.022943
C33   C     C_R   0.976700 0.606243 0.514140 0.028270
C34   C     C_R   0.023299 0.393715 0.514120 0.028270
C35   C     C_R   0.949383 0.503653 0.518405 0.090096
C36   C     C_R   0.050616 0.496305 0.518382 0.090096
C37   C     C_R   0.944749 0.298263 0.548525 -0.247497
C38   C     C_R   0.055252 0.701694 0.548519 -0.247487
C39   C     C_R   0.952814 0.709574 0.495129 -0.273343
C40   C     C_R   0.047183 0.290385 0.495091 -0.273351
H5    H     H_    0.961372 0.218475 0.571745 0.182457
H6    H     H_    0.038630 0.781481 0.571751 0.182459
H7    H     H_    0.972927 0.787351 0.477897 0.180131
H8    H     H_    0.027069 0.212608 0.477863 0.180137
C41   C     C_1   0.499957 0.160763 0.499997 -0.057856
C42   C     C_1   0.500039 0.839236 0.500000 -0.057838
C43   C     C_1   0.499981 0.059169 0.499998 0.077621
C44   C     C_1   0.500015 0.940831 0.500000 0.077644
N3    N     N_1   0.500000 0.500000 0.180630 -0.044306
N4    N     N_1   0.500000 0.500000 0.819370 -0.034973
C45   C     C_1   0.500000 0.500000 0.069692 0.156424
C46   C     C_1   0.500000 0.500000 0.930307 0.169969
S1    S     S_3+6 0.354874 0.331752 0.309507 0.080098
O13   O     O_2   0.376186 0.399710 0.203858 -0.227701
O14   O     O_2   0.394082 0.267405 0.373415 -0.315990
O15   O     O_3   0.314566 0.237306 0.251095 -0.473083
H9    H     H_    0.305705 0.187062 0.321939 0.386549
S2    S     S_3+6 0.645136 0.668295 0.309593 0.080109
O16   O     O_2   0.623826 0.600374 0.203912 -0.227921
O17   O     O_2   0.605928 0.732626 0.373521 -0.315884
O18   O     O_3   0.685450 0.762754 0.251227 -0.473032
H10   H     H_    0.694310 0.812972 0.322093 0.386568
S3    S     S_3+6 0.356071 0.662504 0.691581 0.093595
O19   O     O_2   0.393468 0.731209 0.622208 -0.269011
O20   O     O_2   0.320057 0.743016 0.745524 -0.209398
O21   O     O_3   0.382636 0.591977 0.808439 -0.503418
H11   H     H_    0.356573 0.545202 0.846734 0.362249
S4    S     S_3+6 0.643911 0.337346 0.691429 0.092985
O22   O     O_2   0.606486 0.268752 0.622028 -0.269143
O23   O     O_2   0.679910 0.256715 0.745231 -0.210645
O24   O     O_3   0.617384 0.407826 0.808379 -0.504311
H12   H     H_    0.643711 0.452231 0.848732 0.363222
S5    S     S_3+6 0.121643 0.149035 0.460023 0.144877
O25   O     O_2   0.158215 0.158716 0.357522 -0.180775
O26   O     O_2   0.145640 0.107017 0.576143 -0.148428
O27   O     O_3   0.078883 0.053748 0.416008 -0.503683
H13   H     H_    0.063471 0.027302 0.494127 0.364079
S6    S     S_3+6 0.878351 0.850920 0.460091 0.144868
O28   O     O_2   0.841772 0.841233 0.357611 -0.180816
O29   O     O_2   0.854364 0.892945 0.576223 -0.148411
O30   O     O_3   0.921108 0.946204 0.416049 -0.503681
H14   H     H_    0.936527 0.972655 0.494160 0.364077
S7    S     S_3+6 0.136262 0.822918 0.605264 0.133563
O31   O     O_2   0.156732 0.886046 0.495230 -0.097809
O32   O     O_2   0.102894 0.899849 0.674776 -0.284567
O33   O     O_3   0.181383 0.786282 0.700603 -0.449549
H15   H     H_    0.166139 0.736515 0.764410 0.345220
S8    S     S_3+6 0.863740 0.177042 0.605296 0.133563
O34   O     O_2   0.843269 0.113907 0.495266 -0.097812
O35   O     O_2   0.897110 0.100117 0.674807 -0.284564
O36   O     O_3   0.818620 0.213682 0.700639 -0.449587
H16   H     H_    0.833864 0.263458 0.764438 0.345176

loop_
_geom_bond_atom_site_label_1
_geom_bond_atom_site_label_2
_geom_bond_distance
_ccdc_geom_bond_type
C38   H6    1.078227 S    
C42   C44   1.188466 T    
S5    O25   1.503256 D    
S1    O13   1.502712 D    
C33   C35   1.410221 A    
O36   H16   0.990532 S    
O3    C2    1.267761 A    
O18   H10   0.990751 S    
C33   C39   1.404558 A    
C34   C40   1.404556 A    
C11   C17   1.393598 A    
O5    C3    1.274725 A    
C7    N1    1.361152 A    
O1    C1    1.267761 A    
C19   C21   1.419646 A    
C13   S3    1.777540 S    
C26   S6    1.773368 S    
S2    O17   1.502758 D    
C15   S1    1.775280 S    
O33   H15   0.990536 S    
S8    O34   1.501786 D    
C7    C23   1.400765 A    
N3    C45   1.192939 T    
O7    Zn1   2.017296 S    
C5    C21   1.413072 A    
C20   C24   1.414432 A    
C8    C24   1.400766 A    
C27   C38   1.390727 A    
C5    O9    1.345539 S    
C10   C18   1.394532 A    
C25   S5    1.773374 S    
C41   C43   1.188465 T    
N2    C18   1.433477 S    
C31   C37   1.406738 A    
C24   C28   1.412508 A    
O3    Zn1   1.971607 S    
C6    O10   1.345539 S    
C5    N1    1.364168 A    
C12   C18   1.393618 A    
C6    N2    1.364171 A    
C21   C25   1.420585 A    
S1    O14   1.502759 D    
O2    C2    1.267770 A    
C9    H3    1.082789 S    
C28   S8    1.773302 S    
C9    C13   1.390795 A    
C34   C36   1.410222 A    
C11   C15   1.393260 A    
C43   C44   1.384345 S    
O30   H14   0.990344 S    
C12   C16   1.393258 A    
O15   H9    0.990751 S    
C1    C41   1.405940 S    
O8    Zn2   2.017296 S    
O24   H12   0.990877 S    
O21   H11   0.990650 S    
C23   C27   1.412519 A    
N1    C17   1.433464 S    
C7    O11   1.347717 S    
C13   C29   1.421421 A    
C19   C23   1.414444 A    
S3    O19   1.502275 D    
S4    O24   1.681534 S    
C2    C42   1.405940 S    
C28   C37   1.390731 A    
O6    C4    1.276064 A    
O27   H13   0.990345 S    
S7    O32   1.503373 D    
C32   C38   1.406734 A    
C4    C30   1.466103 S    
S3    O20   1.503668 D    
S4    O23   1.503700 D    
C10   C14   1.390785 A    
S5    O27   1.684296 S    
S6    O29   1.502758 D    
C15   C29   1.422999 A    
S1    O15   1.682497 S    
C8    N2    1.361158 A    
C3    C29   1.466117 S    
O1    Zn1   1.971598 S    
C14   S4    1.777442 S    
C32   C33   1.415921 A    
C11   H1    1.082440 S    
C12   H2    1.082442 S    
O6    Zn2   2.017298 S    
C19   C36   1.415581 A    
C8    O12   1.347717 S    
C16   C30   1.422975 A    
C14   C30   1.421409 A    
C25   C40   1.392827 A    
O4    C1    1.267770 A    
C26   C39   1.392825 A    
C37   H5    1.078225 S    
S6    O30   1.684294 S    
C39   H7    1.076024 S    
S8    O36   1.682444 S    
C40   H8    1.076026 S    
C31   C34   1.415921 A    
C10   H4    1.082794 S    
C45   C46   1.498836 S    
C20   C35   1.415577 A    
S2    O16   1.502713 D    
S2    O18   1.682499 S    
C20   C22   1.419636 A    
Zn2   N3    1.961923 S    
S8    O35   1.503375 D    
S7    O33   1.682443 S    
C31   C35   1.413784 A    
O4    Zn2   1.971607 S    
O2    Zn2   1.971596 S    
O7    C4    1.274720 A    
C27   S7    1.773307 S    
O8    C3    1.276071 A    
C16   S2    1.775272 S    
C22   C26   1.420578 A    
O5    Zn1   2.017298 S    
S3    O21   1.681547 S    
S4    O22   1.502267 D    
S5    O26   1.502758 D    
S6    O28   1.503256 D    
Zn1   N4    1.961922 S    
C9    C17   1.394516 A    
S7    O31   1.501786 D    
N4    C46   1.192931 T    
C32   C36   1.413784 A    
C6    C22   1.413067 A    
