data_mof_unit_31016.cif
_audit_creation_date              2013-03-05T15:40:04-0500
_audit_creation_method            fapswitch 2.2
_symmetry_space_group_name_H-M    P1
_symmetry_Int_Tables_number       1
_space_group_crystal_system       triclinic
_cell_length_a                    7.818491
_cell_length_b                    8.572099
_cell_length_c                    10.586132
_cell_angle_alpha                 91.718112
_cell_angle_beta                  83.473724
_cell_angle_gamma                 93.624892
_cell_volume                      703.298054516

loop_
_atom_site_label
_atom_site_type_symbol
_atom_site_description
_atom_site_fract_x
_atom_site_fract_y
_atom_site_fract_z
_atom_type_partial_charge
O1    O     O_R   0.389250 0.738570 0.508180 -0.634153
O2    O     O_R   0.678390 0.711630 0.486820 -0.587980
C1    C     C_R   0.545608 0.794682 0.503152 0.849987
O3    O     O_R   0.355470 0.513470 0.691600 -0.577327
O4    O     O_R   0.644610 0.486520 0.670240 -0.645103
C2    C     C_R   0.495103 0.485941 0.737656 0.844349
Zn1   Zn    Zn3+2 0.306940 0.517990 0.514260 1.091596
Zn2   Zn    Zn3+2 0.693060 0.482010 0.485740 1.114768
O5    O     O_R   0.321610 0.288370 0.513180 -0.582573
O6    O     O_R   0.610750 0.261430 0.491820 -0.565463
O7    O     O_R   0.355390 0.513480 0.329760 -0.572605
O8    O     O_R   0.644530 0.486530 0.308400 -0.573924
C3    C     C_R   0.454699 0.205866 0.509528 0.979394
C4    C     C_R   0.501645 0.496025 0.261845 0.944768
C5    C     C_2   0.606055 0.389185 0.056399 0.352878
C6    C     C_2   0.510703 0.491793 0.127394 -0.300403
H1    H     H_    0.441326 0.579120 0.085192 0.161137
C7    C     C_2   0.615742 0.399212 0.919748 -0.237795
C8    C     C_2   0.475263 0.430225 0.865814 0.074452
H2    H     H_    0.743220 0.401886 0.866613 0.216786
C9    C     C_2   0.567939 0.957056 0.528178 0.133506
C10   C     C_2   0.432538 0.042306 0.515141 -0.417031
H3    H     H_    0.309176 0.991345 0.490806 0.211124
N1    N     N_2   0.950320 0.457950 0.466680 0.035153
N2    N     N_2   0.049680 0.542050 0.533320 -0.134496
H4    H     H_    0.984848 0.603981 0.606530 0.193137
Br1   Br    Br    0.728756 0.227916 0.123009 -0.271672
N3    N     N_R   0.303345 0.396527 0.929232 0.223560
O9    O     O_R   0.181604 0.491290 0.921048 -0.330874
O10   O     O_R   0.266910 0.267870 0.991636 -0.289527
N4    N     N_R   0.722674 0.018668 0.579438 0.238591
O11   O     O_R   0.873176 0.975676 0.530511 -0.329431
O12   O     O_R   0.711133 0.101327 0.684928 -0.363883
N5    N     N_R   0.030700 0.390997 0.356859 0.339693
O13   O     O_R   0.059839 0.243251 0.354967 -0.295429
O14   O     O_R   0.028745 0.460207 0.249409 -0.295210

loop_
_geom_bond_atom_site_label_1
_geom_bond_atom_site_label_2
_geom_bond_distance
_ccdc_geom_bond_type
C5    C7    1.444827 S    
N4    O12   1.301930 A    
C2    C8    1.440297 S    
O4    Zn2   1.946507 S    
C7    H2    1.086617 S    
N4    O11   1.301360 A    
Zn1   N2    2.021539 S    
Zn2   O8    1.959091 S    
N3    O10   1.301939 A    
O2    C1    1.288319 A    
C9    C10   1.345672 D    
Zn1   O7    1.946507 S    
C8    N3    1.448539 S    
C9    N4    1.445079 S    
O3    Zn1   1.959091 S    
Zn2   O6    1.958968 S    
N3    O9    1.301579 A    
Zn2   N1    2.021539 S    
O8    C4    1.279293 A    
C3    C10   1.404016 S    
C7    C8    1.338497 D    
N5    O14   1.300627 A    
O4    C2    1.298294 A    
O7    C4    1.294279 A    
C4    C6    1.416500 S    
C1    C9    1.412690 S    
C5    C6    1.345429 D    
N1    N2    1.282243 D    
O3    C2    1.282853 A    
N5    O13   1.300095 A    
Zn1   O5    1.978508 S    
O5    C3    1.291008 A    
C10   H3    1.088080 S    
N2    H4    1.029301 S    
O1    Zn1   1.958967 S    
C5    Br1   1.925758 S    
O2    Zn2   1.978507 S    
C6    H1    1.086583 S    
O1    C1    1.281038 A    
O6    C3    1.276901 A    
N1    N5    1.383998 S    
