data_mof_unit_44907.cif
_audit_creation_date              2012-12-11T14:46:06-0500
_audit_creation_method            fapswitch 2.2
_symmetry_space_group_name_H-M    P1
_symmetry_Int_Tables_number       1
_space_group_crystal_system       triclinic
_cell_length_a                    11.096919
_cell_length_b                    11.006956
_cell_length_c                    18.801079
_cell_angle_alpha                 90.303331
_cell_angle_beta                  90.139047
_cell_angle_gamma                 120.083284
_cell_volume                      1987.02987684

loop_
_atom_site_label
_atom_site_type_symbol
_atom_type_description
_atom_site_fract_x
_atom_site_fract_y
_atom_site_fract_z
_atom_type_partial_charge
C1    C     C_R   0.869389 0.637560 0.604722 0.571350
C2    C     C_R   0.273718 0.604263 0.797820 -0.065255
C3    C     C_R   0.234028 0.580586 0.727151 -0.086779
C4    C     C_R   0.325552 0.666567 0.674490 0.041625
C5    C     C_R   0.879276 0.214129 0.838471 -0.014445
C6    C     C_R   0.092896 0.201612 0.826372 0.133719
C7    C     C_R   0.179747 0.176127 0.782607 -0.057434
C8    C     C_R   0.150951 0.149628 0.710669 -0.123249
C9    C     C_R   0.039931 0.155384 0.680640 -0.088778
C10   C     C_R   0.962291 0.201161 0.720726 -0.038264
C11   C     C_R   0.978484 0.206107 0.795853 0.028193
C12   C     C_R   0.275413 0.634932 0.602000 0.538907
C13   C     C_R   0.774833 0.258091 0.735055 0.009401
C14   C     C_R   0.803082 0.272016 0.808922 -0.077852
C15   C     C_R   0.638563 0.233672 0.716918 0.102791
C16   C     C_R   0.534929 0.175326 0.769869 0.037702
C17   C     C_R   0.575499 0.219870 0.841294 0.075871
C18   C     C_R   0.719247 0.300864 0.853753 -0.105149
C19   C     C_R   0.865460 0.234983 0.688700 -0.029830
C20   C     C_R   0.708672 0.590281 0.703673 -0.160774
C21   C     C_R   0.682700 0.578553 0.776755 0.022034
C22   C     C_R   0.799435 0.643008 0.824902 -0.018601
C23   C     C_R   0.878797 0.273006 0.611459 0.561421
C24   C     C_R   0.932916 0.700202 0.798770 -0.144914
C25   C     C_R   0.955304 0.710310 0.726839 0.062793
C26   C     C_R   0.843363 0.652273 0.678791 0.047775
C27   C     C_R   0.430512 0.676633 0.299337 0.102034
C28   C     C_R   0.459781 0.696050 0.226776 0.090649
C29   C     C_R   0.364951 0.700765 0.178747 0.065777
C30   C     C_R   0.247541 0.701895 0.203570 -0.145916
C31   C     C_R   0.220681 0.688277 0.276195 -0.157350
C32   C     C_R   0.310116 0.671234 0.323417 0.057638
C33   C     C_R   0.719184 0.090872 0.293689 0.005348
C34   C     C_R   0.867396 0.637289 0.396688 0.565720
C35   C     C_R   0.708429 0.074400 0.220927 -0.161747
C36   C     C_R   0.826827 0.135191 0.177653 -0.025787
C37   C     C_R   0.960672 0.207699 0.206513 0.026025
C38   C     C_R   0.973981 0.228330 0.280329 0.050573
C39   C     C_R   0.852182 0.174800 0.323753 0.044392
C40   C     C_R   0.901672 0.781334 0.290839 0.011359
C41   C     C_R   0.904456 0.786965 0.218026 -0.159819
C42   C     C_R   0.826324 0.665415 0.175767 -0.020893
C43   C     C_R   0.756496 0.532223 0.207666 -0.003162
C44   C     C_R   0.759686 0.526218 0.281952 -0.181949
C45   C     C_R   0.266108 0.632294 0.395760 0.604147
C46   C     C_R   0.832252 0.649759 0.323611 -0.041535
C47   C     C_R   0.814563 0.114748 0.899740 0.554866
C48   C     C_R   0.454758 0.722624 0.889239 0.536773
C49   C     C_R   0.792642 0.690212 0.896522 0.542428
C50   C     C_R   0.803205 0.100390 0.103472 0.606616
C51   C     C_R   0.395329 0.705087 0.103472 0.575224
C52   C     C_R   0.800441 0.693074 0.103125 0.592737
C53   C     C_R   0.864096 0.231366 0.395384 0.615852
C54   C     C_R   0.460233 0.773154 0.692212 -0.118327
C55   C     C_R   0.502094 0.794337 0.763503 -0.087054
C56   C     C_R   0.408461 0.709525 0.816150 0.097541
Cr1   Cr    Cr6+3 0.791660 0.390250 0.499930 1.054791
Cr2   Cr    Cr6+3 0.098520 0.708290 0.500540 1.067957
Cr3   Cr    Cr6+3 0.109770 0.401430 0.499480 1.063080
Cr4   Cr    Cr6+3 0.874790 0.925890 0.000070 1.063492
Cr5   Cr    Cr6+3 0.574120 0.948670 0.999300 1.094904
Cr6   Cr    Cr6+3 0.551420 0.625320 0.000920 1.104709
H1    H     H_    0.531985 0.838189 0.651388 0.125115
H2    H     H_    0.624183 0.549239 0.665276 0.157881
H3    H     H_    0.022673 0.749254 0.834139 0.175118
H4    H     H_    0.175475 0.708678 0.167081 0.143086
H5    H     H_    0.607067 0.875031 0.777572 0.093321
H6    H     H_    0.126058 0.682967 0.295168 0.146287
H7    H     H_    0.605752 0.009752 0.197693 0.181545
H8    H     H_    0.958027 0.891044 0.194966 0.186311
H9    H     H_    0.711128 0.424256 0.307123 0.193766
H10   H     H_    0.200371 0.538891 0.837975 0.117735
H11   H     H_    0.129795 0.498104 0.713465 0.112810
H12   H     H_    0.269342 0.175674 0.803888 0.173032
H13   H     H_    0.215025 0.124952 0.677443 0.173647
H14   H     H_    0.014288 0.118285 0.626524 0.164471
H15   H     H_    0.756840 0.338541 0.907233 0.182182
O1    O     O_R   0.766500 0.250040 0.579790 -0.482107
O2    O     O_R   0.218690 0.701900 0.425960 -0.511274
O3    O     O_R   0.249490 0.516440 0.419420 -0.477821
O4    O     O_R   0.982880 0.281910 0.424890 -0.456521
O5    O     O_3   0.999980 0.499990 0.499980 -0.301915
O6    O     O_R   0.895110 0.806860 0.920430 -0.515101
O7    O     O_R   0.872260 0.046970 0.925000 -0.460518
O8    O     O_R   0.691430 0.085060 0.918550 -0.518775
O9    O     O_R   0.451490 0.822460 0.925250 -0.466126
O10   O     O_R   0.413330 0.603360 0.920440 -0.526847
O11   O     O_R   0.676110 0.626250 0.926750 -0.450365
O12   O     O_R   0.798570 0.516780 0.574780 -0.497409
O13   O     O_R   0.895350 0.809870 0.080950 -0.528019
O14   O     O_R   0.872490 0.049760 0.073800 -0.483952
O15   O     O_R   0.691680 0.088070 0.079070 -0.484787
O16   O     O_R   0.451720 0.825250 0.074050 -0.504451
O17   O     O_R   0.413580 0.606370 0.080960 -0.481049
O18   O     O_R   0.676340 0.629040 0.075550 -0.440229
O19   O     O_3   0.666780 0.833290 0.000090 -0.311507
O20   O     O_R   0.984000 0.732950 0.581090 -0.470540
O21   O     O_R   0.218600 0.700890 0.574760 -0.497219
O22   O     O_R   0.249390 0.515350 0.579940 -0.499232
O23   O     O_R   0.982790 0.280900 0.573700 -0.514007
O24   O     O_R   0.766600 0.251130 0.419260 -0.493584
O25   O     O_R   0.798660 0.517790 0.425980 -0.514722
O26   O     O_R   0.984100 0.734040 0.420570 -0.485031
C57   C     C_2   0.408353 0.044496 0.748733 0.532832
O27   O     O_2   0.349085 0.948972 0.790902 -0.500440
O28   O     O_R   0.370839 0.022154 0.676892 -0.763245
H16   H     H_    0.330002 0.921593 0.660985 0.357564
N1    N     N_3   0.606737 0.284503 0.653600 -0.549215
H17   H     H_    0.537376 0.319110 0.666449 0.230687
H18   H     H_    0.551442 0.201604 0.618049 0.297616
C58   C     C_2   0.480399 0.175044 0.904596 0.626989
O29   O     O_2   0.527852 0.226002 0.963157 -0.472618
O30   O     O_R   0.338872 0.076314 0.899018 -0.692995
H19   H     H_    0.289874 0.052728 0.946649 0.329209
C59   C     C_2   0.533893 0.494025 0.797479 0.544739
O31   O     O_2   0.442443 0.473644 0.754621 -0.556017
O32   O     O_R   0.496194 0.427043 0.862707 -0.663003
H20   H     H_    0.392805 0.377399 0.870790 0.330147
N2    N     N_3   0.094002 0.790358 0.702994 -0.578361
H21   H     H_    0.151808 0.754430 0.729725 0.254956
H22   H     H_    0.127759 0.892646 0.720120 0.275026
N3    N     N_3   0.520958 0.661237 0.348677 -0.586001
H23   H     H_    0.527466 0.572974 0.334116 0.239439
H24   H     H_    0.620156 0.750024 0.346226 0.263076
N4    N     N_3   0.584943 0.708040 0.200685 -0.603601
H25   H     H_    0.668172 0.792924 0.226458 0.209784
H26   H     H_    0.581079 0.614777 0.214323 0.251782
C60   C     C_2   0.588962 0.022559 0.335973 0.588962
O33   O     O_2   0.587360 0.973453 0.394412 -0.490849
O34   O     O_R   0.467612 0.013815 0.308489 -0.665995
H27   H     H_    0.386920 0.969264 0.342929 0.355889
C61   C     C_2   0.084770 0.270983 0.159125 0.576539
O35   O     O_2   0.186102 0.259082 0.172848 -0.490874
O36   O     O_R   0.083717 0.341747 0.097758 -0.688886
H28   H     H_    0.170294 0.373872 0.067943 0.353233
N5    N     N_3   0.109987 0.316258 0.310124 -0.558415
H29   H     H_    0.170166 0.269018 0.302624 0.284689
H30   H     H_    0.156790 0.410610 0.282499 0.230337
C62   C     C_2   0.977557 0.915139 0.330983 0.588553
O37   O     O_2   0.920018 0.940902 0.379321 -0.510755
O38   O     O_R   0.117699 0.007290 0.316036 -0.671171
H31   H     H_    0.164397 0.082951 0.353822 0.339512
C63   C     C_2   0.679965 0.399932 0.165780 0.594285
O39   O     O_2   0.710426 0.395287 0.103748 -0.464587
O40   O     O_R   0.574098 0.279211 0.197833 -0.658444
H32   H     H_    0.529331 0.195940 0.163971 0.368788
N6    N     N_3   0.126683 0.235036 0.900380 -0.592130
H33   H     H_    0.194316 0.201496 0.918043 0.237118
H34   H     H_    0.175554 0.343857 0.906619 0.229296

loop_
_geom_bond_atom_site_label_1
_geom_bond_atom_site_label_2
_ccdc_geom_bond_type
C55   C56   A    
Cr6   O19   S    
Cr3   O22   S    
C41   C42   A    
C14   C18   A    
C52   O13   A    
C58   O29   D    
Cr2   O21   S    
Cr3   O5    S    
C48   C56   S    
C21   C59   S    
C60   O33   D    
C57   O28   S    
O40   H32   S    
Cr5   O19   S    
C7    C8    A    
C58   O30   S    
C39   C53   S    
C40   C46   A    
Cr1   O25   S    
C5    C47   S    
C34   O25   A    
N4    H25   S    
Cr1   O12   S    
C52   O18   A    
C47   O8    A    
C36   C37   A    
N6    H34   S    
C63   O39   D    
C5    C11   A    
Cr2   O5    S    
C38   C39   A    
Cr4   O6    S    
Cr5   O16   S    
O28   H16   S    
C59   O31   D    
C40   C62   S    
C25   N2    S    
N1    H17   S    
C44   H9    S    
C53   O4    A    
C32   C45   S    
C12   O22   A    
C43   C63   S    
C16   C57   S    
N6    H33   S    
C53   O24   A    
C8    C9    A    
C59   O32   S    
C34   C46   S    
C9    H14   S    
C38   N5    S    
C4    C12   S    
C29   C30   A    
C61   O35   D    
C9    C10   A    
C12   O21   A    
Cr5   O15   S    
C23   O23   A    
C13   C14   A    
Cr3   O23   S    
C49   O11   A    
Cr2   O20   S    
C2    H10   S    
C17   C58   S    
C57   O27   D    
C27   N3    S    
C44   C46   A    
C7    H12   S    
N2    H22   S    
C31   H6    S    
C13   C19   A    
C24   C25   A    
N5    H30   S    
C10   C11   A    
C1    O20   A    
C6    C11   A    
C16   C17   A    
C25   C26   A    
Cr6   O11   S    
C33   C60   S    
C35   C36   A    
C15   N1    S    
C20   H2    S    
C19   C23   S    
C43   C44   A    
C37   C38   A    
C31   C32   A    
C10   C19   A    
C62   O37   D    
C17   C18   A    
C48   O10   A    
C45   O2    A    
C33   C39   A    
C47   O7    A    
C62   O38   S    
C5    C14   A    
C30   H4    S    
Cr5   O8    S    
C24   H3    S    
C51   O16   A    
C22   C49   S    
Cr2   O2    S    
C50   O15   A    
C40   C41   A    
C13   C15   A    
C1    C26   S    
C22   C24   A    
C42   C43   A    
N3    H24   S    
C3    C4    A    
Cr4   O19   S    
C36   C50   S    
C28   N4    S    
O30   H19   S    
C29   C51   S    
Cr4   O14   S    
C63   O40   S    
C54   C55   A    
C28   C29   A    
C1    O12   A    
Cr6   O18   S    
C4    C54   A    
C27   C32   A    
Cr1   O1    S    
Cr3   O4    S    
N5    H29   S    
C60   O34   S    
Cr3   O3    S    
C55   H5    S    
N2    H21   S    
C6    C7    A    
Cr4   O13   S    
Cr1   O24   S    
Cr6   O10   S    
O36   H28   S    
O32   H20   S    
C34   O26   A    
C37   C61   S    
C49   O6    A    
Cr6   O17   S    
O34   H27   S    
C2    C56   A    
O38   H31   S    
C6    N6    S    
Cr4   O7    S    
C30   C31   A    
C20   C26   A    
C18   H15   S    
C33   C35   A    
N1    H18   S    
C2    C3    A    
C45   O3    A    
C48   O9    A    
C8    H13   S    
C23   O1    A    
C3    H11   S    
Cr5   O9    S    
C51   O17   A    
C50   O14   A    
C20   C21   A    
C35   H7    S    
C61   O36   S    
C54   H1    S    
C27   C28   A    
N4    H26   S    
Cr1   O5    S    
Cr2   O26   S    
N3    H23   S    
C21   C22   A    
C15   C16   A    
C42   C52   S    
C41   H8    S    
