data_mof_unit_25745.cif
_audit_creation_date              2012-12-11T16:23:21-0500
_audit_creation_method            fapswitch 2.2
_symmetry_space_group_name_H-M    P1
_symmetry_Int_Tables_number       1
_space_group_crystal_system       triclinic
_cell_length_a                    20.015683
_cell_length_b                    7.215315
_cell_length_c                    19.933946
_cell_angle_alpha                 90.000556
_cell_angle_beta                  99.080837
_cell_angle_gamma                 90.004957
_cell_volume                      2842.76802702

loop_
_atom_site_label
_atom_site_type_symbol
_atom_type_description
_atom_site_fract_x
_atom_site_fract_y
_atom_site_fract_z
_atom_type_partial_charge
O1    O     O_R   0.188410 0.619490 0.310050 -0.538517
O2    O     O_R   0.811590 0.380510 0.689950 -0.539720
O3    O     O_R   0.311590 0.119490 0.189950 -0.538522
O4    O     O_R   0.688410 0.880510 0.810050 -0.539721
O5    O     O_R   0.327280 0.288800 0.321740 -0.542462
O6    O     O_R   0.672720 0.711200 0.678260 -0.541147
O7    O     O_R   0.172720 0.788800 0.178260 -0.542492
O8    O     O_R   0.827280 0.211200 0.821740 -0.541181
C1    C     C_R   0.351612 0.456622 0.338855 0.678010
C2    C     C_R   0.648757 0.543272 0.660686 0.699452
C3    C     C_R   0.148394 0.956607 0.161137 0.678030
C4    C     C_R   0.851240 0.043287 0.839318 0.699462
O9    O     O_R   0.189900 0.289710 0.318190 -0.540726
O10   O     O_R   0.810100 0.710290 0.681810 -0.541886
O11   O     O_R   0.310100 0.789710 0.181810 -0.540723
O12   O     O_R   0.689900 0.210290 0.818190 -0.541882
O13   O     O_R   0.173230 0.120350 0.186370 -0.532792
O14   O     O_R   0.826770 0.879650 0.813630 -0.536103
O15   O     O_R   0.326770 0.620350 0.313630 -0.532796
O16   O     O_R   0.673230 0.379650 0.686370 -0.536097
C5    C     C_R   0.172548 0.460387 0.336724 0.686929
C6    C     C_R   0.830894 0.540087 0.666220 0.683477
C7    C     C_R   0.327453 0.960391 0.163277 0.686911
C8    C     C_R   0.669107 0.040080 0.833780 0.683489
O17   O     O_3   0.244690 0.453290 0.206760 -0.378927
O18   O     O_3   0.755310 0.546710 0.793240 -0.377589
O19   O     O_3   0.255310 0.953290 0.293240 -0.378916
O20   O     O_3   0.744690 0.046710 0.706760 -0.377579
V1    V     V_3+5 0.250980 0.178070 0.258020 1.363934
V2    V     V_3+5 0.749020 0.821930 0.741980 1.365735
V3    V     V_3+5 0.249020 0.678070 0.241980 1.363916
V4    V     V_3+5 0.750980 0.321930 0.758020 1.365715
C9    C     C_R   0.427695 0.159691 0.030203 -0.191463
C10   C     C_R   0.545524 0.854547 0.947583 -0.197818
C11   C     C_R   0.072312 0.659684 0.469797 -0.191318
C12   C     C_R   0.954472 0.354552 0.552425 -0.197803
H1    H     H_    0.432817 0.286140 0.003271 0.106112
H2    H     H_    0.527082 0.723425 0.961470 0.120935
H3    H     H_    0.067200 0.786129 0.496735 0.106089
H4    H     H_    0.972906 0.223431 0.538544 0.120947
C13   C     C_R   0.378325 0.149003 0.073499 0.083153
C14   C     C_R   0.587871 0.855843 0.898015 0.073857
C15   C     C_R   0.121680 0.649000 0.426499 0.083144
C16   C     C_R   0.912127 0.355857 0.601995 0.073870
C17   C     C_R   0.369641 0.978376 0.107437 -0.085247
C18   C     C_R   0.620894 0.024276 0.884552 -0.089194
C19   C     C_R   0.130362 0.478367 0.392566 -0.085239
C20   C     C_R   0.879108 0.524287 0.615451 -0.089193
C21   C     C_R   0.396028 0.819383 0.080832 -0.241805
C22   C     C_R   0.611121 0.178878 0.924991 -0.228002
C23   C     C_R   0.103973 0.319372 0.419175 -0.241796
C24   C     C_R   0.888886 0.678878 0.575006 -0.228012
H5    H     H_    0.381316 0.685409 0.097259 0.127289
H6    H     H_    0.641404 0.301421 0.920923 0.124859
H7    H     H_    0.118681 0.185400 0.402749 0.127268
H8    H     H_    0.858606 0.801416 0.579070 0.124849
C25   C     C_R   0.429450 0.832151 0.023802 0.098478
C26   C     C_R   0.565305 0.176884 0.972539 0.107629
C27   C     C_R   0.070548 0.332145 0.476204 0.098513
C28   C     C_R   0.934702 0.676876 0.527459 0.107665
C29   C     C_R   0.462709 0.002369 0.013731 0.055164
C30   C     C_R   0.524182 0.015797 0.976923 0.041200
C31   C     C_R   0.037293 0.502359 0.486273 0.055133
C32   C     C_R   0.975820 0.515793 0.523080 0.041131
C33   C     C_R   0.088088 0.952022 0.106295 -0.062385
C34   C     C_R   0.911488 0.047616 0.894278 -0.063845
C35   C     C_R   0.411941 0.452081 0.393670 -0.062344
C36   C     C_R   0.588498 0.547558 0.605739 -0.063816
C37   C     C_R   0.001585 0.231275 0.960941 -0.204987
C38   C     C_R   0.998306 0.767824 0.039417 -0.203729
C39   C     C_R   0.498316 0.731136 0.539174 -0.204890
C40   C     C_R   0.501817 0.267966 0.460438 -0.203637
C41   C     C_R   0.949180 0.213469 0.906065 -0.161296
C42   C     C_R   0.050649 0.785825 0.094372 -0.158907
C43   C     C_R   0.550725 0.713311 0.594045 -0.161268
C44   C     C_R   0.449470 0.285986 0.405487 -0.158854
C45   C     C_R   0.929077 0.897373 0.938426 -0.243311
C46   C     C_R   0.070384 0.102192 0.062208 -0.248458
C47   C     C_R   0.570987 0.397411 0.561503 -0.243278
C48   C     C_R   0.429569 0.602157 0.437844 -0.248478
C49   C     C_R   0.981744 0.915238 0.994367 0.160522
C50   C     C_R   0.018018 0.083967 0.006040 0.161782
C51   C     C_R   0.518307 0.415281 0.505574 0.160449
C52   C     C_R   0.481950 0.583925 0.493996 0.161723
H9    H     H_    0.098282 0.230872 0.070532 0.130955
H10   H     H_    0.900654 0.769215 0.930606 0.125813
H11   H     H_    0.401593 0.730755 0.429600 0.130955
H12   H     H_    0.599485 0.269341 0.569242 0.125788
H13   H     H_    0.062227 0.667122 0.127410 0.133843
H14   H     H_    0.937722 0.332218 0.873048 0.127774
H15   H     H_    0.437954 0.167380 0.372368 0.133762
H16   H     H_    0.562128 0.831969 0.627133 0.127695
H17   H     H_    0.028852 0.361302 0.968386 0.116646
H18   H     H_    0.971131 0.637672 0.031919 0.120247
H19   H     H_    0.471003 0.861111 0.531788 0.116677
H20   H     H_    0.529047 0.137868 0.467870 0.120277
C53   C     C_3   0.331535 0.313829 0.074033 -0.339711
C54   C     C_3   0.259225 0.268406 0.039481 -0.284930
C55   C     C_3   0.215950 0.443273 0.027153 -0.759155
H21   H     H_    0.211067 0.511655 0.075967 0.251295
H22   H     H_    0.238731 0.542322 0.994623 0.214572
H23   H     H_    0.164708 0.406349 0.000642 0.204400
H24   H     H_    0.260994 0.200987 0.989609 0.185355
H25   H     H_    0.234777 0.170789 0.071088 0.192387
H26   H     H_    0.333045 0.372558 0.125491 0.203260
H27   H     H_    0.349842 0.425987 0.044597 0.144108
C56   C     C_3   0.589845 0.674898 0.859038 -0.334544
C57   C     C_3   0.544513 0.685353 0.789400 -0.295413
C58   C     C_3   0.525476 0.492108 0.761369 -0.777822
H28   H     H_    0.571502 0.407979 0.759492 0.239389
H29   H     H_    0.493604 0.420076 0.794109 0.221632
H30   H     H_    0.496231 0.503588 0.709376 0.221685
H31   H     H_    0.496931 0.760630 0.793852 0.195049
H32   H     H_    0.570717 0.762514 0.753105 0.194518
H33   H     H_    0.641879 0.628939 0.855437 0.196352
H34   H     H_    0.570248 0.560387 0.887697 0.158228
C59   C     C_3   0.168472 0.813843 0.425960 -0.339691
C60   C     C_3   0.240780 0.768466 0.460517 -0.285012
C61   C     C_3   0.284042 0.943372 0.472868 -0.759013
H35   H     H_    0.288950 0.011752 0.424050 0.251289
H36   H     H_    0.261229 0.042418 0.505384 0.214551
H37   H     H_    0.335280 0.906486 0.499419 0.204333
H38   H     H_    0.239011 0.701011 0.510382 0.185348
H39   H     H_    0.265238 0.670898 0.428904 0.192385
H40   H     H_    0.166963 0.872558 0.374502 0.203267
H41   H     H_    0.150162 0.926001 0.455391 0.144095
C62   C     C_3   0.910155 0.174926 0.640982 -0.334533
C63   C     C_3   0.955484 0.185437 0.710620 -0.295406
C64   C     C_3   0.974527 0.992214 0.738658 -0.777858
H42   H     H_    0.928505 0.908045 0.740530 0.239390
H43   H     H_    0.006408 0.920201 0.705926 0.221608
H44   H     H_    0.003764 0.003729 0.790654 0.221700
H45   H     H_    0.003063 0.260749 0.706167 0.195072
H46   H     H_    0.929275 0.262589 0.746912 0.194556
H47   H     H_    0.858123 0.128935 0.644582 0.196357
H48   H     H_    0.929755 0.060415 0.612329 0.158224
C65   C     C_3   0.399698 0.710105 0.963450 -0.372974
C66   C     C_3   0.378883 0.817484 0.896588 -0.287038
C67   C     C_3   0.346306 0.688900 0.839896 -0.786667
H49   H     H_    0.382458 0.578586 0.830588 0.234024
H50   H     H_    0.299981 0.624024 0.853641 0.229167
H51   H     H_    0.332069 0.769601 0.792359 0.218842
H52   H     H_    0.342059 0.927673 0.904473 0.194807
H53   H     H_    0.422947 0.884638 0.879476 0.201427
H54   H     H_    0.432881 0.591715 0.956313 0.150466
H55   H     H_    0.351917 0.647592 0.973966 0.176226
C68   C     C_3   0.570327 0.338346 0.022355 -0.377168
C69   C     C_3   0.590454 0.274927 0.096298 -0.280165
C70   C     C_3   0.592719 0.438651 0.145105 -0.770836
H56   H     H_    0.630182 0.543072 0.133784 0.228632
H57   H     H_    0.542044 0.504694 0.140653 0.230739
H58   H     H_    0.607731 0.389402 0.198111 0.217458
H59   H     H_    0.553992 0.171713 0.110303 0.203764
H60   H     H_    0.641208 0.208683 0.102506 0.192652
H61   H     H_    0.609786 0.437867 0.011682 0.166158
H62   H     H_    0.524031 0.422496 0.016113 0.156307
C71   C     C_3   0.100280 0.210084 0.536554 -0.372999
C72   C     C_3   0.121114 0.317451 0.603418 -0.286939
C73   C     C_3   0.153570 0.188776 0.660139 -0.786666
H63   H     H_    0.117328 0.078677 0.669437 0.234023
H64   H     H_    0.199857 0.123633 0.646427 0.229167
H65   H     H_    0.167846 0.269458 0.707674 0.218842
H66   H     H_    0.158021 0.427467 0.595552 0.194745
H67   H     H_    0.077074 0.384837 0.620493 0.201424
H68   H     H_    0.067078 0.091715 0.543687 0.150489
H69   H     H_    0.148050 0.147528 0.526042 0.176165
C74   C     C_3   0.929689 0.838326 0.477639 -0.377181
C75   C     C_3   0.909544 0.774895 0.403700 -0.280154
C76   C     C_3   0.907473 0.938535 0.354880 -0.770828
H70   H     H_    0.870178 0.043389 0.366226 0.228650
H71   H     H_    0.958238 0.004035 0.359289 0.230721
H72   H     H_    0.892350 0.889338 0.301882 0.217465
H73   H     H_    0.945908 0.671371 0.389726 0.203765
H74   H     H_    0.858724 0.709022 0.397473 0.192614
H75   H     H_    0.890245 0.937870 0.488313 0.166078
H76   H     H_    0.975991 0.922464 0.483874 0.156380

loop_
_geom_bond_atom_site_label_1
_geom_bond_atom_site_label_2
_ccdc_geom_bond_type
O17   V3    S    
C6    C20   S    
C16   C62   S    
C26   C30   A    
C71   C72   S    
C7    C17   S    
O19   V1    S    
O13   V1    S    
C76   H70   S    
O3    C7    A    
C68   C69   S    
C10   C14   A    
O1    V3    S    
C40   C44   A    
O15   V3    S    
C63   C64   S    
C49   C50   A    
C75   H74   S    
C70   H58   S    
C36   C43   A    
O1    C5    A    
C22   H6    S    
C42   H13   S    
C65   H54   S    
C38   H18   S    
C62   H47   S    
C41   H14   S    
C39   C52   A    
C48   H11   S    
C37   H17   S    
C66   H52   S    
C58   H29   S    
O16   V4    S    
C11   H3    S    
O4    C8    A    
C67   H51   S    
C54   H25   S    
C39   H19   S    
C54   H24   S    
C10   C30   A    
C21   C25   A    
C57   C58   S    
O2    V4    S    
C14   C18   A    
C57   H32   S    
O3    V1    S    
C38   C49   A    
C60   C61   S    
C37   C50   A    
C24   C28   A    
C1    O15   A    
C51   C52   A    
C2    O16   A    
C38   C42   A    
C56   C57   S    
C73   H64   S    
C37   C41   A    
O14   V2    S    
C45   C49   A    
C68   H61   S    
C59   H41   S    
C72   H67   S    
C64   H44   S    
C53   H26   S    
C67   H50   S    
C36   C47   A    
O11   C7    A    
O12   C8    A    
C76   H71   S    
C69   H60   S    
O10   V2    S    
C47   H12   S    
C53   C54   S    
O5    V1    S    
C61   H36   S    
C75   H73   S    
C67   H49   S    
C39   C43   A    
C28   C74   S    
O7    V3    S    
O9    C5    A    
C48   C52   A    
O8    V4    S    
C65   H55   S    
C12   H4    S    
C62   H48   S    
C58   H30   S    
C71   H68   S    
C74   C75   S    
C26   C68   S    
C19   C23   A    
C34   C41   A    
C4    C34   S    
C9    H1    S    
C33   C42   A    
C22   C26   A    
C57   H31   S    
O7    C3    A    
C1    C35   S    
O5    C1    A    
C63   H46   S    
C63   H45   S    
C46   C50   A    
C73   H63   S    
C17   C21   A    
O8    C4    A    
C73   H65   S    
C25   C65   S    
C60   H39   S    
C69   C70   S    
C25   C29   A    
C68   H62   S    
C56   H33   S    
C72   H66   S    
C15   C59   S    
C53   H27   S    
C43   H16   S    
C46   H9    S    
C75   C76   S    
C55   H22   S    
C45   H10   S    
C72   C73   S    
C76   H72   S    
C13   C53   S    
C12   C16   A    
C23   C27   A    
C69   H59   S    
C4    O14   A    
C62   C63   S    
C12   C32   A    
C11   C15   A    
C74   H75   S    
C64   H42   S    
C14   C56   S    
C61   H37   S    
O9    V1    S    
C34   C45   A    
C3    O13   A    
C33   C46   A    
O6    V2    S    
C10   H2    S    
C3    C33   S    
C35   C48   A    
C71   H69   S    
O6    C2    A    
C61   H35   S    
O11   V3    S    
O18   V4    S    
C2    C36   S    
O12   V4    S    
C65   C66   S    
C18   C22   A    
C27   C31   A    
C55   H21   S    
C28   C32   A    
C9    C13   A    
O10   C6    A    
C70   H57   S    
C8    C18   S    
C66   H53   S    
C70   H56   S    
C47   C51   A    
C27   C71   S    
C15   C19   A    
C21   H5    S    
O20   V2    S    
O2    C6    A    
C23   H7    S    
C60   H38   S    
C29   C30   S    
C56   H34   S    
C40   C51   A    
C66   C67   S    
C44   H15   S    
C31   C32   S    
C40   H20   S    
C16   C20   A    
C20   C24   A    
C55   H23   S    
C9    C29   A    
C54   C55   S    
C58   H28   S    
C13   C17   A    
C11   C31   A    
C35   C44   A    
C64   H43   S    
C59   C60   S    
C59   H40   S    
O4    V2    S    
C24   H8    S    
C74   H76   S    
C5    C19   S    
