data_mof_unit_62240.cif
_audit_creation_date              2012-10-26T18:06:51-0400
_audit_creation_method            fapswitch 2.2
_symmetry_space_group_name_H-M    P1
_symmetry_Int_Tables_number       1
_space_group_crystal_system       triclinic
_cell_length_a                    21.756103
_cell_length_b                    21.755744
_cell_length_c                    24.770243
_cell_angle_alpha                 116.094727
_cell_angle_beta                  116.211172
_cell_angle_gamma                 89.595954
_cell_volume                      9187.91773823

loop_
_atom_site_label
_atom_site_type_symbol
_atom_type_description
_atom_site_fract_x
_atom_site_fract_y
_atom_site_fract_z
_atom_type_partial_charge
C1    C     C_R   0.068279 0.566026 0.632455 0.603143
C2    C     C_R   0.415048 0.223327 0.592725 -0.082490
C3    C     C_R   0.442752 0.696572 0.452490 -0.021214
C4    C     C_R   0.684068 0.879838 0.607751 -0.116747
C5    C     C_R   0.037513 0.307042 0.285348 -0.049803
C6    C     C_R   0.741547 0.936593 0.662155 0.048758
C7    C     C_R   0.737451 0.983221 0.721955 0.051494
C8    C     C_R   0.673997 0.974593 0.722719 -0.160354
C9    C     C_R   0.616387 0.919757 0.666969 -0.119519
C10   C     C_R   0.621632 0.871158 0.609938 0.004908
C11   C     C_R   0.503539 0.231180 0.285580 -0.128388
C12   C     C_R   0.482868 0.233946 0.332412 -0.077412
C13   C     C_R   0.405000 0.219235 0.643024 -0.098771
C14   C     C_R   0.532299 0.265074 0.402822 0.027268
C15   C     C_R   0.601868 0.295577 0.426205 -0.100253
C16   C     C_R   0.622429 0.292305 0.379148 -0.072067
C17   C     C_2   0.961898 0.197848 0.254511 0.233799
C18   C     C_2   0.459305 0.791143 0.641464 0.219180
C19   C     C_2   0.181351 0.510074 0.713532 0.271988
C20   C     C_2   0.305690 0.977711 0.285918 0.253719
C21   C     C_2   0.027676 0.445178 0.756338 0.174759
C22   C     C_2   0.946774 0.331038 0.613382 0.226787
C23   C     C_2   0.877130 0.604221 0.686099 0.291823
C24   C     C_R   0.462916 0.231749 0.704903 -0.098964
C25   C     C_2   0.991751 0.581954 0.795005 0.328776
C26   C     C_2   0.763966 0.519995 0.394227 0.291542
C27   C     C_2   0.583647 0.412805 0.309965 0.238830
C28   C     C_2   0.172079 0.329041 0.485392 0.275339
C29   C     C_2   0.580336 0.706954 0.403215 0.211187
C30   C     C_2   0.703467 0.669385 0.488454 0.224770
C31   C     C_2   0.968577 0.490958 0.292521 0.345730
C32   C     C_2   0.895159 0.409625 0.139473 0.331825
C33   C     C_2   0.777568 0.236575 0.847041 0.244942
C34   C     C_2   0.109485 0.414156 0.310117 0.186980
C35   C     C_R   0.258652 0.444876 0.451682 -0.120291
C36   C     C_2   0.172666 0.503128 0.244952 0.250991
C37   C     C_2   0.193697 0.614531 0.384539 0.246139
C38   C     C_2   0.628200 0.736026 0.602564 0.242897
C39   C     C_2   0.802586 0.945615 0.652261 0.284793
C40   C     C_2   0.797931 0.038702 0.786067 0.278404
C41   C     C_2   0.519433 0.130343 0.395002 0.249230
C42   C     C_2   0.616766 0.270147 0.683162 0.220429
C43   C     C_2   0.237460 0.621314 0.609270 0.273560
C44   C     C_2   0.401122 0.568160 0.691812 0.258488
C45   C     C_R   0.531107 0.248558 0.716805 -0.128986
C46   C     C_R   0.542544 0.252288 0.666619 0.033455
C47   C     C_R   0.483287 0.239292 0.603491 0.041649
C48   C     C_R   0.314701 0.503532 0.501467 0.016757
C49   C     C_R   0.308096 0.561058 0.553809 -0.011300
C50   C     C_R   0.243404 0.560240 0.553668 0.037919
C51   C     C_R   0.023228 0.258707 0.303671 0.010346
C52   C     C_R   0.186858 0.500398 0.502441 0.055516
C53   C     C_R   0.195442 0.441820 0.452646 -0.021677
C54   C     C_R   0.412757 0.623663 0.675440 0.047644
C55   C     C_R   0.470328 0.681320 0.726669 -0.147644
C56   C     C_R   0.485361 0.735060 0.714962 -0.134351
C57   C     C_R   0.118658 0.499663 0.499850 0.586990
C58   C     C_R   0.442820 0.732809 0.651881 0.041904
C59   C     C_R   0.385093 0.675460 0.600097 -0.091147
C60   C     C_R   0.369683 0.620746 0.610979 0.007957
C61   C     C_R   0.099127 0.669620 0.744606 -0.117680
C62   C     C_R   0.573537 0.259066 0.308766 -0.076064
C63   C     C_R   0.134596 0.706131 0.816380 -0.066581
C64   C     C_R   0.181355 0.677189 0.853908 0.034547
C65   C     C_R   0.193461 0.611821 0.818176 -0.098541
C66   C     C_R   0.159795 0.575331 0.745993 0.028786
C67   C     C_R   0.110132 0.603710 0.708429 0.047814
C68   C     C_R   0.286015 0.785790 0.070092 0.350783
C69   C     C_R   0.935918 0.433886 0.367439 0.546777
C70   C     C_R   0.218066 0.715319 0.930089 0.357517
C71   C     C_R   0.298325 0.879180 0.181693 -0.136943
C72   C     C_R   0.333997 0.918070 0.253872 0.015430
C73   C     C_R   0.510313 0.191000 0.448553 0.001349
C74   C     C_R   0.395647 0.900471 0.291706 0.051622
C75   C     C_R   0.420697 0.846270 0.255964 -0.140124
C76   C     C_R   0.385017 0.808738 0.184188 -0.112667
C77   C     C_R   0.323431 0.824731 0.146303 0.023601
C78   C     C_R   0.930561 0.401871 0.635200 -0.004695
C79   C     C_R   0.876757 0.413953 0.585547 -0.053019
C80   C     C_R   0.862258 0.480397 0.601573 -0.054947
C81   C     C_R   0.881174 0.500084 0.499859 0.579537
C82   C     C_R   0.898922 0.536174 0.670066 0.003125
C83   C     C_R   0.953170 0.524979 0.721817 0.029744
C84   C     C_R   0.498536 0.184398 0.497792 0.058038
C85   C     C_R   0.969674 0.457699 0.703841 -0.044138
C86   C     C_R   0.740019 0.490721 0.545473 -0.139524
C87   C     C_R   0.685202 0.504648 0.498686 0.043837
C88   C     C_R   0.694114 0.518283 0.451338 0.052149
C89   C     C_R   0.757619 0.513084 0.448987 0.044789
C90   C     C_R   0.812985 0.499373 0.497417 0.016065
C91   C     C_R   0.804104 0.489084 0.546208 -0.077263
C92   C     C_R   0.584370 0.488713 0.339883 0.044489
C93   C     C_R   0.068160 0.267691 0.369246 -0.166123
C94   C     C_R   0.530187 0.509135 0.299023 -0.165654
C95   C     C_R   0.490486 0.242680 0.548078 -0.006005
C96   C     C_R   0.530223 0.579667 0.320273 -0.096377
C97   C     C_R   0.584568 0.632439 0.383224 0.000293
C98   C     C_R   0.640582 0.613367 0.426274 -0.018758
C99   C     C_R   0.638295 0.540460 0.405745 0.027660
C100  C     C_R   0.915823 0.423382 0.254146 0.006588
C101  C     C_R   0.879490 0.385486 0.180749 0.012901
C102  C     C_R   0.826944 0.323233 0.145809 -0.009296
C103  C     C_R   0.812629 0.298285 0.183255 -0.081034
C104  C     C_R   0.850122 0.333582 0.254891 -0.092211
C105  C     C_R   0.126383 0.325216 0.417617 0.044426
C106  C     C_R   0.492299 0.306501 0.548036 -0.106531
C107  C     C_R   0.901060 0.396352 0.291141 -0.024109
C108  C     C_R   0.716739 0.217831 0.930226 0.368693
C109  C     C_R   0.787511 0.282532 0.069952 0.312816
C110  C     C_R   0.709356 0.188144 0.815536 -0.022982
C111  C     C_R   0.672925 0.147545 0.743485 -0.182062
C112  C     C_R   0.604374 0.106695 0.708473 0.004719
C113  C     C_R   0.572329 0.105770 0.746358 -0.150038
C114  C     C_R   0.609120 0.143232 0.818225 -0.157216
C115  C     C_R   0.678231 0.183743 0.853931 0.034564
C116  C     C_R   0.500520 0.619126 0.499939 0.583365
C117  C     C_R   0.503403 0.313772 0.499580 0.002540
C118  C     C_R   0.138570 0.376489 0.400243 -0.003896
C119  C     C_R   0.381081 0.501638 0.500247 0.553541
C120  C     C_R   0.501744 0.380994 0.499976 0.553913
C121  C     C_R   0.618783 0.503014 0.499718 0.581696
C122  C     C_R   0.499722 0.118474 0.499886 0.618495
C123  C     C_R   0.433724 0.935575 0.367609 0.614943
C124  C     C_R   0.501199 0.882285 0.501915 0.552578
C125  C     C_R   0.566245 0.066556 0.632539 0.544479
C126  C     C_R   0.299893 0.541674 0.291588 -0.142133
C127  C     C_R   0.365569 0.587988 0.340673 -0.065676
C128  C     C_R   0.514087 0.256618 0.450521 -0.052521
C129  C     C_R   0.375073 0.643237 0.402804 0.006223
C130  C     C_R   0.095075 0.365523 0.332571 -0.037690
C131  C     C_R   0.317705 0.652225 0.414906 -0.093937
C132  C     C_R   0.251079 0.605662 0.366386 0.032365
C133  C     C_R   0.241737 0.550600 0.302722 -0.012888
C134  C     C_R   0.444030 0.761426 0.454833 -0.078807
C135  C     C_R   0.502848 0.816855 0.504035 0.038713
C136  C     C_R   0.562166 0.809342 0.553661 -0.052819
C137  C     C_R   0.563341 0.743375 0.551118 -0.034187
C138  C     C_R   0.502841 0.686525 0.500183 0.018551
Cu1   Cu    Cu3+1 0.000000 0.438230 0.500020 1.028996
Cu2   Cu    Cu3+1 0.000000 0.561770 0.499980 1.053030
Cu3   Cu    Cu3+1 0.465780 0.465820 0.431560 0.940736
Cu4   Cu    Cu3+1 0.534220 0.534230 0.568440 1.032764
Cu5   Cu    Cu3+1 0.561810 0.999860 0.500000 1.040417
Cu6   Cu    Cu3+1 0.438190 0.999810 0.500000 1.023086
H1    H     H_    0.124500 0.756706 0.842419 0.165184
H2    H     H_    0.505833 0.833378 0.681417 0.089668
H3    H     H_    0.351639 0.673076 0.551183 0.146403
H4    H     H_    0.061838 0.692576 0.717226 0.139620
H5    H     H_    0.230536 0.589551 0.846634 0.140725
H6    H     H_    0.199731 0.479044 0.739452 0.113967
H7    H     H_    0.250845 0.977784 0.257443 0.099868
H8    H     H_    0.057748 0.229266 0.382710 0.082683
H9    H     H_    0.405878 0.767207 0.158425 0.153348
H10   H     H_    0.020923 0.396728 0.757857 0.119668
H11   H     H_    0.993145 0.321675 0.647667 0.110287
H12   H     H_    0.251208 0.892499 0.152915 0.131785
H13   H     H_    0.846291 0.371513 0.532980 0.175883
H14   H     H_    0.863634 0.624591 0.650397 0.138328
H15   H     H_    0.008655 0.569124 0.836297 0.148978
H16   H     H_    0.733023 0.481295 0.582161 0.146139
H17   H     H_    0.738348 0.555459 0.376437 0.104119
H18   H     H_    0.534238 0.374224 0.270456 0.096889
H19   H     H_    0.488105 0.470070 0.249160 0.100527
H20   H     H_    0.155908 0.291921 0.497562 0.094482
H21   H     H_    0.487336 0.592981 0.286536 0.163878
H22   H     H_    0.613768 0.748711 0.455134 0.095670
H23   H     H_    0.467580 0.832017 0.283805 0.155455
H24   H     H_    0.715021 0.719985 0.492396 0.084054
H25   H     H_    0.017062 0.502425 0.338942 0.096172
H26   H     H_    0.853140 0.401693 0.090441 0.131374
H27   H     H_    0.837883 0.312583 0.282280 0.152452
H28   H     H_    0.808903 0.223665 0.821183 0.128643
H29   H     H_    0.697090 0.150226 0.714300 0.138782
H30   H     H_    0.519347 0.074737 0.720454 0.142495
H31   H     H_    0.151033 0.461697 0.346236 0.086230
H32   H     H_    0.583819 0.139339 0.846065 0.142610
H33   H     H_    0.170672 0.450840 0.208245 0.139107
H34   H     H_    0.772905 0.250362 0.156726 0.150549
H35   H     H_    0.293877 0.499955 0.243455 0.102280
H36   H     H_    0.408797 0.581354 0.329809 0.130869
H37   H     H_    0.325110 0.696465 0.462217 0.196514
H38   H     H_    0.144530 0.575336 0.352733 0.172472
H39   H     H_    0.398328 0.768920 0.417860 0.137132
H40   H     H_    0.659062 0.779923 0.654281 0.121233
H41   H     H_    0.687510 0.842919 0.562953 0.085103
H42   H     H_    0.813260 0.900083 0.618309 0.098717
H43   H     H_    0.003282 0.299263 0.234056 0.207445
H44   H     H_    0.788395 0.082441 0.822745 0.099678
H45   H     H_    0.568241 0.914112 0.669080 0.125736
H46   H     H_    0.669504 0.009632 0.767541 0.114627
H47   H     H_    0.589773 0.255181 0.272126 0.156107
H48   H     H_    0.465703 0.206020 0.231163 0.120038
H49   H     H_    0.429200 0.209634 0.313719 0.132293
H50   H     H_    0.640640 0.319220 0.480316 0.118125
H51   H     H_    0.676519 0.314476 0.397117 0.152455
H52   H     H_    0.556320 0.138743 0.379101 0.117084
H53   H     H_    0.484973 0.350841 0.586157 0.148034
H54   H     H_    0.369491 0.213572 0.544942 0.131213
H55   H     H_    0.455016 0.228604 0.743885 0.128401
H56   H     H_    0.264779 0.400086 0.412938 0.138600
H57   H     H_    0.575239 0.258448 0.765478 0.123958
H58   H     H_    0.659329 0.280705 0.733019 0.119675
H59   H     H_    0.265577 0.674125 0.629555 0.107898
H60   H     H_    0.434545 0.575345 0.743114 0.098692
H61   H     H_    0.504223 0.684729 0.776151 0.108045
H62   H     H_    0.352184 0.206447 0.634038 0.124192
H63   H     H_    0.951681 0.160976 0.269749 0.115294
H64   H     H_    0.530222 0.778804 0.755554 0.108935
N1    N     N_R   0.271017 0.692977 0.966777 -0.217886
N2    N     N_R   0.304385 0.727551 0.035347 -0.219265
N3    N     N_R   0.232910 0.807976 0.033386 -0.214400
N4    N     N_R   0.199682 0.773526 0.964836 -0.202211
N5    N     N_R   0.716703 0.274132 0.035323 -0.215608
N6    N     N_R   0.681952 0.242274 0.966707 -0.226982
N7    N     N_R   0.787200 0.224024 0.965061 -0.162768
N8    N     N_R   0.822040 0.256269 0.033607 -0.179624
O1    O     O_R   0.049920 0.497760 0.599870 -0.479610
O2    O     O_R   0.447770 0.089950 0.499980 -0.491108
O3    O     O_R   0.502270 0.949920 0.400150 -0.488975
O4    O     O_R   0.049920 0.602100 0.599840 -0.500187
O5    O     O_R   0.397880 0.949890 0.400140 -0.479557
O6    O     O_R   0.552230 0.909720 0.500030 -0.504871
O7    O     O_R   0.447840 0.909680 0.500020 -0.510163
O8    O     O_R   0.602120 0.049780 0.599860 -0.508213
O9    O     O_R   0.497730 0.049740 0.599850 -0.517496
O10   O     O_R   0.090180 0.447830 0.500020 -0.475535
O11   O     O_R   0.090180 0.552170 0.499990 -0.509420
O12   O     O_R   0.528910 0.619050 0.557800 -0.475604
O13   O     O_R   0.950080 0.397900 0.400160 -0.518640
O14   O     O_R   0.950080 0.502240 0.400130 -0.490644
O15   O     O_R   0.909820 0.447830 0.500010 -0.514081
O16   O     O_R   0.909820 0.552170 0.499980 -0.491721
O17   O     O_R   0.471120 0.561280 0.442210 -0.522745
O18   O     O_2   0.922045 0.188065 0.196571 -0.494305
O19   O     O_2   0.421123 0.793245 0.588784 -0.525219
O20   O     O_2   0.183149 0.492517 0.660276 -0.413550
O21   O     O_2   0.343174 0.028749 0.342202 -0.453267
O22   O     O_2   0.084110 0.488082 0.797268 -0.519987
O23   O     O_R   0.380930 0.471140 0.442200 -0.525242
O24   O     O_2   0.908491 0.281764 0.555912 -0.499061
O25   O     O_2   0.869942 0.635843 0.736867 -0.429520
O26   O     O_2   0.006781 0.643329 0.810128 -0.465688
O27   O     O_2   0.794973 0.483635 0.366080 -0.475067
O28   O     O_2   0.638109 0.392538 0.325926 -0.527646
O29   O     O_2   0.228252 0.372009 0.527822 -0.433226
O30   O     O_2   0.537959 0.722695 0.361709 -0.515979
O31   O     O_2   0.744064 0.660036 0.535798 -0.478012
O32   O     O_2   0.957128 0.535568 0.274294 -0.427492
O33   O     O_2   0.955229 0.435666 0.158097 -0.361502
O34   O     O_R   0.438710 0.528900 0.557790 -0.495492
O35   O     O_2   0.797461 0.293030 0.899465 -0.455439
O36   O     O_2   0.075362 0.401158 0.250285 -0.451242
O37   O     O_2   0.117918 0.522817 0.234983 -0.415381
O38   O     O_2   0.201191 0.665846 0.436757 -0.505288
O39   O     O_2   0.649502 0.682199 0.587244 -0.442261
O40   O     O_2   0.838793 0.003807 0.678041 -0.435779
O41   O     O_2   0.858661 0.034355 0.800975 -0.420951
O42   O     O_2   0.483963 0.071026 0.366187 -0.467239
O43   O     O_2   0.631846 0.273370 0.642374 -0.499759
O44   O     O_2   0.204020 0.613100 0.635151 -0.460527
O45   O     O_R   0.471090 0.380990 0.442200 -0.504062
O46   O     O_2   0.355356 0.513975 0.649166 -0.429537
O47   O     O_R   0.528880 0.438760 0.557790 -0.509471
O48   O     O_R   0.561290 0.471140 0.442210 -0.519654
O49   O     O_R   0.619070 0.528910 0.557800 -0.471950
O50   O     O_R   0.552160 0.089990 0.499980 -0.479956

loop_
_geom_bond_atom_site_label_1
_geom_bond_atom_site_label_2
_ccdc_geom_bond_type
C4    H41   S    
C87   C88   A    
Cu2   O14   S    
C101  C102  A    
Cu4   O34   S    
C23   C82   S    
C35   C53   A    
C70   N4    A    
C12   H49   S    
C111  C112  A    
C32   C101  S    
Cu4   O49   S    
C134  H39   S    
C75   C76   A    
C109  N8    A    
C68   N2    A    
C27   O28   D    
C17   C51   S    
Cu5   O6    S    
C97   C98   A    
C69   C107  S    
C14   C128  S    
C7    C8    A    
C54   C60   A    
C45   C46   A    
C26   C89   S    
C123  O5    A    
C122  O50   A    
C126  C127  A    
C49   C60   S    
C68   N3    A    
C116  O12   A    
Cu1   O10   S    
C24   C45   A    
C108  C115  S    
C61   H4    S    
C10   C136  S    
C102  C109  S    
C41   H52   S    
C109  N5    A    
C86   C91   A    
C121  O48   A    
C44   O46   D    
C125  O9    A    
C26   O27   D    
C71   H12   S    
C84   C122  S    
Cu5   Cu6   S    
C98   C99   A    
C23   H14   S    
C76   H9    S    
C19   H6    S    
C38   H40   S    
C19   C66   S    
C33   O35   D    
C11   H48   S    
C42   C46   S    
C61   C63   A    
C2    C13   A    
C61   C67   A    
C110  C111  A    
C43   O44   D    
Cu6   O7    S    
C32   H26   S    
C34   H31   S    
C93   C105  A    
C46   C47   A    
C39   H42   S    
Cu3   Cu4   S    
C18   C58   S    
C38   C137  S    
C27   C92   S    
C126  C133  A    
C8    H46   S    
C132  C133  A    
C100  C107  A    
C81   O16   A    
C116  O17   A    
C25   H15   S    
C50   C52   A    
C7    C40   S    
C94   H19   S    
C64   C70   S    
C23   O25   D    
C9    C10   A    
C73   C84   A    
C22   O24   D    
C120  O45   A    
C134  C135  A    
C18   O19   D    
C114  H32   S    
C38   O39   D    
C59   C60   A    
Cu3   O23   S    
C45   H57   S    
C2    H54   S    
C36   C133  S    
C15   H50   S    
C102  C103  A    
C16   C62   A    
C9    H45   S    
C35   C48   A    
C112  C113  A    
Cu2   O4    S    
C35   H56   S    
C114  C115  A    
C48   C119  S    
C116  C138  S    
C22   H11   S    
C55   H61   S    
C21   C85   S    
C53   C118  S    
C30   O31   D    
C92   C99   A    
C88   C99   S    
C74   C123  S    
C135  C136  A    
C76   C77   A    
C24   H55   S    
C72   C74   A    
C74   C75   A    
C119  O34   A    
C121  O49   A    
Cu5   O8    S    
C87   C121  S    
C78   C79   A    
C8    C9    A    
C39   O40   D    
C31   H25   S    
C58   C59   A    
C17   O18   D    
Cu5   O3    S    
C32   O33   D    
C82   C83   A    
C15   C16   A    
C79   C80   A    
C13   C24   A    
C84   C95   A    
C29   H22   S    
N7    N8    A    
C127  C129  A    
Cu6   O2    S    
C42   O43   D    
C118  C130  A    
C95   C106  A    
C69   O13   A    
C75   H23   S    
Cu1   O1    S    
N3    N4    A    
C56   H64   S    
C124  O7    A    
N5    N6    A    
C28   C105  S    
C21   H10   S    
C120  O47   A    
C96   C97   A    
C55   C56   A    
C92   C94   A    
N1    N2    A    
Cu6   O5    S    
C126  H35   S    
Cu1   O13   S    
C3    C138  A    
C31   C100  S    
C94   C96   A    
C22   C78   S    
C112  C125  S    
C6    C7    A    
C86   C87   A    
C17   H63   S    
C51   C93   A    
C104  H27   S    
C25   O26   D    
C57   O10   A    
C78   C85   A    
C4    C6    A    
C5    C130  A    
C83   C85   A    
C12   C14   A    
C37   O38   D    
C13   H62   S    
C106  C117  A    
C43   H59   S    
Cu3   O48   S    
C31   O32   D    
C117  C120  S    
C111  H29   S    
Cu4   O47   S    
C127  H36   S    
C4    C10   A    
C106  H53   S    
C71   C77   A    
C105  C118  A    
C52   C53   A    
C28   H20   S    
C44   H60   S    
C113  C114  A    
C125  O8    A    
C68   C77   S    
C6    C39   S    
C123  O3    A    
C54   C55   A    
C48   C49   A    
Cu2   O11   S    
C47   C95   S    
C122  O2    A    
C26   H17   S    
C3    C129  S    
Cu1   O15   S    
Cu3   O45   S    
C124  C135  S    
C20   C72   S    
C36   H33   S    
C124  O6    A    
C136  C137  A    
C18   H2    S    
C79   H13   S    
C1    O1    A    
Cu1   Cu2   S    
C20   H7    S    
C43   C50   S    
Cu2   O16   S    
C62   H47   S    
C40   H44   S    
C2    C47   A    
C73   C128  A    
C137  C138  A    
C30   C98   S    
C11   C62   A    
C36   O37   D    
C96   H21   S    
C37   C132  S    
C29   C97   S    
C3    C134  A    
C64   C65   A    
Cu5   O50   S    
C80   C91   S    
C30   H24   S    
C71   C72   A    
C27   H18   S    
C16   H51   S    
C131  C132  A    
C131  H37   S    
C119  O23   A    
C90   C91   A    
C29   O30   D    
C37   H38   S    
C110  C115  A    
C100  C101  A    
C1    C67   S    
C80   C82   A    
C56   C58   A    
C93   H8    S    
C66   C67   A    
C1    O4    A    
C28   O29   D    
C65   C66   A    
C65   H5    S    
C41   O42   D    
Cu6   O9    S    
C117  C128  A    
C108  N7    A    
C42   H58   S    
C52   C57   S    
C41   C73   S    
C63   C64   A    
C57   O11   A    
C81   C90   S    
C44   C54   S    
C88   C89   A    
C34   C130  S    
C19   O20   D    
Cu3   O17   S    
C49   C50   A    
C81   O15   A    
C103  C104  A    
C25   C83   S    
C70   N1    A    
C5    H43   S    
C14   C15   A    
C5    C51   A    
C40   O41   D    
C34   O36   D    
C33   C110  S    
C103  H34   S    
C89   C90   A    
C69   O14   A    
C33   H28   S    
C86   H16   S    
Cu4   O12   S    
C63   H1    S    
C104  C107  A    
C108  N6    A    
C20   O21   D    
C11   C12   A    
C21   O22   D    
C113  H30   S    
C129  C131  A    
C59   H3    S    
