data_mof_unit_48387.cif
_audit_creation_date              2012-10-26T17:11:03-0400
_audit_creation_method            fapswitch 2.2
_symmetry_space_group_name_H-M    P1
_symmetry_Int_Tables_number       1
_space_group_crystal_system       triclinic
_cell_length_a                    28.027717
_cell_length_b                    18.730981
_cell_length_c                    16.844574
_cell_angle_alpha                 90.222101
_cell_angle_beta                  63.201044
_cell_angle_gamma                 90.124
_cell_volume                      7893.3061665

loop_
_atom_site_label
_atom_site_type_symbol
_atom_type_description
_atom_site_fract_x
_atom_site_fract_y
_atom_site_fract_z
_atom_type_partial_charge
C1    C     C_R   0.295711 0.730056 0.329095 0.583608
C2    C     C_R   0.461995 0.129207 0.460935 -0.148331
C3    C     C_R   0.927405 0.098567 0.065561 0.570972
C4    C     C_R   0.427742 0.401091 0.065259 0.569784
C5    C     C_R   0.573703 0.597034 0.933772 0.569609
C6    C     C_R   0.572000 0.400792 0.934804 0.569663
C7    C     C_R   0.427902 0.599067 0.065259 0.569866
C8    C     C_R   0.035354 0.499653 0.550088 0.032728
C9    C     C_R   0.942349 0.499418 0.523930 0.032709
C10   C     C_R   0.548524 0.002588 0.505941 0.032674
C11   C     C_R   0.452890 0.002522 0.489901 0.032851
C12   C     C_R   0.006480 0.563745 0.560899 0.010126
C13   C     C_R   0.443686 0.876478 0.522764 -0.152123
C14   C     C_R   0.971840 0.435972 0.512502 0.009734
C15   C     C_R   0.957445 0.562306 0.554270 0.011401
C16   C     C_R   0.014626 0.434932 0.535312 0.009474
C17   C     C_R   0.522423 0.067554 0.508715 0.008159
C18   C     C_R   0.475046 0.938055 0.500419 0.009146
C19   C     C_R   0.478940 0.067521 0.487572 0.008581
C20   C     C_R   0.526688 0.938126 0.494179 0.009626
C21   C     C_R   0.110707 0.434213 0.552843 0.006015
C22   C     C_R   0.866472 0.562309 0.520082 0.005847
C23   C     C_R   0.881866 0.436672 0.476409 0.008642
C24   C     C_R   0.538928 0.129173 0.536732 -0.148274
C25   C     C_R   0.109267 0.564967 0.559086 0.005372
C26   C     C_R   0.625866 0.937628 0.500315 0.005374
C27   C     C_R   0.385157 0.065490 0.462754 0.006714
C28   C     C_R   0.374941 0.937608 0.497593 0.006829
C29   C     C_R   0.615223 0.065469 0.536189 0.006941
C30   C     C_R   0.164110 0.434503 0.543454 -0.027080
C31   C     C_R   0.825093 0.563981 0.492711 -0.025198
C32   C     C_R   0.832729 0.435530 0.469782 -0.029167
C33   C     C_R   0.163569 0.565325 0.545641 -0.028274
C34   C     C_R   0.671761 0.936194 0.516308 -0.024921
C35   C     C_R   0.035711 0.370929 0.548497 -0.150157
C36   C     C_R   0.333817 0.065333 0.464140 -0.027761
C37   C     C_R   0.328355 0.936164 0.483615 -0.026091
C38   C     C_R   0.666066 0.065399 0.536376 -0.032711
C39   C     C_R   0.189290 0.500004 0.539421 -0.169605
C40   C     C_R   0.807558 0.500087 0.471814 -0.170084
C41   C     C_R   0.691417 0.000365 0.532465 -0.176804
C42   C     C_R   0.308060 0.000298 0.469368 -0.171918
C43   C     C_R   0.085303 0.499701 0.553831 0.033168
C44   C     C_R   0.897047 0.499580 0.506303 0.033640
C45   C     C_R   0.596492 0.001824 0.514807 0.030292
C46   C     C_R   0.922447 0.620963 0.577876 -0.146858
C47   C     C_R   0.404403 0.001795 0.482631 0.030912
C48   C     C_R   0.608301 0.877957 0.468690 -0.118971
C49   C     C_R   0.417986 0.126949 0.443407 -0.117017
C50   C     C_R   0.393027 0.877975 0.527932 -0.117244
C51   C     C_R   0.582413 0.126856 0.555546 -0.115591
C52   C     C_R   0.080694 0.371159 0.562848 -0.119762
C53   C     C_R   0.877372 0.620116 0.563371 -0.122258
C54   C     C_R   0.916396 0.377435 0.454418 -0.116728
C55   C     C_R   0.077345 0.626951 0.578933 -0.120591
C56   C     C_R   0.090749 0.810750 0.778791 0.071461
C57   C     C_R   0.959472 0.376343 0.474220 -0.146610
C58   C     C_R   0.085696 0.862400 0.722480 -0.004597
C59   C     C_R   0.046600 0.854825 0.693061 -0.106456
C60   C     C_R   0.012321 0.795899 0.719463 -0.110222
C61   C     C_R   0.017199 0.744300 0.775056 -0.118621
C62   C     C_R   0.056231 0.751632 0.804665 -0.093573
C63   C     C_R   0.911155 0.204108 0.211398 0.059745
C64   C     C_R   0.936332 0.270726 0.184339 -0.101416
C65   C     C_R   0.975863 0.292149 0.208444 -0.117486
C66   C     C_R   0.990535 0.247298 0.259820 -0.114184
C67   C     C_R   0.965624 0.181029 0.287248 -0.112433
C68   C     C_R   0.027686 0.626640 0.578611 -0.145029
C69   C     C_R   0.926077 0.159550 0.263256 -0.018725
C70   C     C_R   0.851522 0.905132 0.256981 0.068197
C71   C     C_R   0.812318 0.958183 0.278061 -0.104190
C72   C     C_R   0.806868 0.011527 0.339731 -0.103926
C73   C     C_R   0.839900 0.011591 0.381838 -0.112253
C74   C     C_R   0.880025 0.960236 0.359446 -0.122059
C75   C     C_R   0.886154 0.907357 0.296821 -0.002544
C76   C     C_R   0.091027 0.187356 0.777006 0.072790
C77   C     C_R   0.056914 0.246776 0.799627 -0.095537
C78   C     C_R   0.019415 0.253184 0.766639 -0.117986
C79   C     C_R   0.223471 0.772189 0.951741 0.026903
C80   C     C_R   0.015703 0.200372 0.710849 -0.113817
C81   C     C_R   0.049451 0.140976 0.687974 -0.109412
C82   C     C_R   0.087016 0.134320 0.720778 -0.003929
C83   C     C_R   0.590783 0.313199 0.775762 0.073663
C84   C     C_R   0.587762 0.366867 0.719822 -0.003122
C85   C     C_R   0.550552 0.361494 0.686066 -0.108199
C86   C     C_R   0.516138 0.302795 0.707756 -0.112448
C87   C     C_R   0.518820 0.249410 0.763329 -0.119384
C88   C     C_R   0.555988 0.254507 0.797214 -0.095291
C89   C     C_R   0.408681 0.685648 0.224908 0.074424
C90   C     C_R   0.774251 0.223002 0.049992 0.027091
C91   C     C_R   0.443460 0.744265 0.204605 -0.089348
C92   C     C_R   0.480219 0.748771 0.239395 -0.103699
C93   C     C_R   0.482567 0.694802 0.294590 -0.102254
C94   C     C_R   0.448177 0.636150 0.315107 -0.107345
C95   C     C_R   0.411304 0.631437 0.280602 -0.003022
C96   C     C_R   0.408887 0.313367 0.223439 0.073614
C97   C     C_R   0.412428 0.366721 0.279745 -0.003280
C98   C     C_R   0.449978 0.360857 0.312680 -0.107681
C99   C     C_R   0.484201 0.301962 0.289826 -0.111797
C100  C     C_R   0.480991 0.248876 0.233900 -0.118773
C101  C     C_R   0.791684 0.745319 0.037099 0.025449
C102  C     C_R   0.443496 0.254480 0.200802 -0.095129
C103  C     C_R   0.591848 0.692002 0.783186 0.068523
C104  C     C_R   0.559329 0.752856 0.813325 -0.093070
C105  C     C_R   0.519396 0.765266 0.786909 -0.103912
C106  C     C_R   0.511630 0.717047 0.730267 -0.096970
C107  C     C_R   0.543739 0.656241 0.700001 -0.103418
C108  C     C_R   0.583685 0.643571 0.726288 -0.004576
C109  C     C_R   0.704217 0.269829 0.670941 0.578046
C110  C     C_R   0.221396 0.231267 0.953547 0.026734
C111  C     C_R   0.717577 0.262302 0.956799 0.026415
C112  C     C_R   0.280947 0.734896 0.044361 0.026313
C113  C     C_R   0.278957 0.268036 0.046186 0.026852
C114  C     C_R   0.733101 0.710725 0.943994 0.025632
C115  C     C_R   0.212134 0.708125 0.999412 -0.125729
C116  C     C_R   0.785378 0.288004 0.004288 -0.126258
C117  C     C_R   0.804155 0.683397 0.984459 -0.125607
C118  C     C_R   0.210592 0.295679 0.000920 -0.126977
C119  C     C_R   0.706346 0.197287 0.002590 -0.126294
C120  C     C_R   0.705428 0.728012 0.670498 0.575164
C121  C     C_R   0.292370 0.798946 0.996594 -0.127114
C122  C     C_R   0.289761 0.203619 0.998818 -0.127198
C123  C     C_R   0.720948 0.772496 0.996509 -0.127540
C124  C     C_R   0.240824 0.689499 0.045614 -0.126449
C125  C     C_R   0.757121 0.307611 0.957762 -0.127508
C126  C     C_R   0.774860 0.666103 0.937992 -0.125728
C127  C     C_R   0.239355 0.314059 0.047209 -0.127169
C128  C     C_R   0.734677 0.177626 0.049155 -0.126843
C129  C     C_R   0.263675 0.817568 0.950298 -0.127524
C130  C     C_R   0.260993 0.185235 0.952529 -0.127147
C131  C     C_R   0.295560 0.270222 0.329093 0.576619
C132  C     C_R   0.750011 0.789639 0.042719 -0.124534
C133  C     C_R   0.146986 0.832818 0.943560 0.067221
C134  C     C_R   0.851878 0.164704 0.056921 0.065367
C135  C     C_R   0.864903 0.813005 0.049161 0.065544
C136  C     C_R   0.144554 0.171518 0.945644 0.067707
C137  C     C_R   0.642302 0.325079 0.947290 0.066708
C138  C     C_R   0.356983 0.673690 0.053227 0.067602
C139  C     C_R   0.355646 0.328114 0.054232 0.066624
C140  C     C_R   0.653353 0.655909 0.938376 0.067348
C141  C     C_R   0.116759 0.848929 0.897273 0.006033
C142  C     C_R   0.795069 0.228780 0.329322 0.575450
C143  C     C_R   0.882890 0.150760 0.102427 0.008603
C144  C     C_R   0.881433 0.852255 0.104617 0.008984
C145  C     C_R   0.115562 0.152819 0.898120 0.007110
C146  C     C_R   0.614531 0.345804 0.898574 0.006189
C147  C     C_R   0.385123 0.653665 0.101626 0.005517
C148  C     C_R   0.384519 0.347075 0.101866 0.006079
C149  C     C_R   0.620093 0.646223 0.895616 0.005579
C150  C     C_R   0.131300 0.817964 0.812849 -0.100162
C151  C     C_R   0.868622 0.183608 0.185706 -0.092157
C152  C     C_R   0.852994 0.844949 0.197642 -0.099274
C153  C     C_R   0.204510 0.770291 0.670797 0.569509
C154  C     C_R   0.130854 0.182080 0.812741 -0.099895
C155  C     C_R   0.630149 0.317129 0.812647 -0.100005
C156  C     C_R   0.369547 0.682430 0.187486 -0.101601
C157  C     C_R   0.369200 0.317948 0.187327 -0.100132
C158  C     C_R   0.633740 0.679638 0.813189 -0.101246
C159  C     C_R   0.181734 0.784643 0.767471 0.003986
C160  C     C_R   0.816829 0.212734 0.233082 0.001394
C161  C     C_R   0.816973 0.787680 0.233573 0.006233
C162  C     C_R   0.181278 0.215753 0.767757 0.003181
C163  C     C_R   0.680185 0.282475 0.768272 0.002988
C164  C     C_R   0.204485 0.229690 0.670891 0.577360
C165  C     C_R   0.319513 0.717051 0.231883 0.002821
C166  C     C_R   0.318879 0.283984 0.232175 0.002995
C167  C     C_R   0.685156 0.709722 0.765761 0.004697
C168  C     C_R   0.211988 0.769367 0.813929 0.067782
C169  C     C_R   0.784774 0.223337 0.188691 0.064676
C170  C     C_R   0.800285 0.748768 0.178121 0.065199
C171  C     C_R   0.210956 0.232110 0.814938 0.067484
C172  C     C_R   0.708579 0.263709 0.816718 0.067694
C173  C     C_R   0.290806 0.735205 0.183729 0.066958
C174  C     C_R   0.289391 0.267194 0.184802 0.067538
C175  C     C_R   0.794303 0.772605 0.329831 0.582800
C176  C     C_R   0.718691 0.717936 0.808292 0.067898
C177  C     C_R   0.193310 0.791249 0.902492 -0.004392
C178  C     C_R   0.804166 0.203302 0.099368 -0.006781
C179  C     C_R   0.821262 0.766016 0.087457 -0.006275
C180  C     C_R   0.191321 0.212171 0.904221 -0.005075
C181  C     C_R   0.688343 0.282860 0.906580 -0.005278
C182  C     C_R   0.310704 0.715420 0.094131 -0.005089
C183  C     C_R   0.309010 0.287185 0.095534 -0.004971
C184  C     C_R   0.701456 0.693920 0.895713 -0.004188
C185  C     C_R   0.196422 0.631800 0.528355 0.545324
C186  C     C_R   0.558065 0.876557 0.471978 -0.151269
C187  C     C_R   0.802942 0.368487 0.474406 0.548784
C188  C     C_R   0.799184 0.631021 0.486650 0.551631
C189  C     C_R   0.196762 0.368328 0.527177 0.547178
C190  C     C_R   0.696851 0.131872 0.527082 0.541004
C191  C     C_R   0.300294 0.869056 0.483477 0.549345
C192  C     C_R   0.303091 0.131770 0.473169 0.547218
C193  C     C_R   0.699740 0.869106 0.516507 0.552134
C194  C     C_R   0.925727 0.904127 0.066896 0.575236
C195  C     C_R   0.072263 0.098907 0.934743 0.570993
C196  C     C_R   0.072721 0.901708 0.934290 0.573033
Cu1   Cu    Cu3+1 0.209920 0.785290 0.495070 0.930080
Cu2   Cu    Cu3+1 0.504760 0.500000 0.075850 0.960399
Cu3   Cu    Cu3+1 0.995240 0.000000 0.924150 0.959713
Cu4   Cu    Cu3+1 0.004760 0.000000 0.075850 0.953140
Cu5   Cu    Cu3+1 0.790080 0.214710 0.504930 0.908073
Cu6   Cu    Cu3+1 0.790080 0.785290 0.504930 0.929248
Cu7   Cu    Cu3+1 0.209920 0.214710 0.495070 0.927696
Cu8   Cu    Cu3+1 0.709920 0.285290 0.495070 0.929309
Cu9   Cu    Cu3+1 0.290080 0.714710 0.504930 0.924352
Cu10  Cu    Cu3+1 0.290080 0.285290 0.504930 0.929869
Cu11  Cu    Cu3+1 0.709920 0.714710 0.495070 0.920415
Cu12  Cu    Cu3+1 0.495240 0.500000 0.924150 0.957763
H1    H     H_    0.230519 0.500143 0.528142 0.157863
H2    H     H_    0.850527 0.664783 0.589919 0.160395
H3    H     H_    0.257957 0.317336 0.807313 0.229595
H4    H     H_    0.753375 0.176291 0.809232 0.229089
H5    H     H_    0.788203 0.254237 0.778867 0.232523
H6    H     H_    0.211054 0.744371 0.222532 0.233766
H7    H     H_    0.245828 0.822275 0.190642 0.229795
H8    H     H_    0.242900 0.181463 0.192101 0.229396
H9    H     H_    0.209382 0.260242 0.224733 0.231871
H10   H     H_    0.799458 0.715117 0.760247 0.219712
H11   H     H_    0.771331 0.796344 0.798772 0.233598
H12   H     H_    0.912094 0.331949 0.418674 0.157536
H13   H     H_    0.088847 0.676530 0.598034 0.162403
H14   H     H_    0.545535 0.828282 0.451049 0.103615
H15   H     H_    0.484354 0.178555 0.448473 0.104027
H16   H     H_    0.456446 0.828257 0.542970 0.104267
H17   H     H_    0.516501 0.178429 0.549554 0.104330
H18   H     H_    0.016123 0.320293 0.552476 0.102879
H19   H     H_    0.927965 0.667648 0.610517 0.098050
H20   H     H_    0.984336 0.329123 0.455396 0.103007
H21   H     H_    0.772764 0.500279 0.459605 0.157590
H22   H     H_    0.007458 0.677305 0.590067 0.102018
H23   H     H_    0.272676 0.867105 0.913381 0.105440
H24   H     H_    0.725877 0.127349 0.084497 0.104145
H25   H     H_    0.740058 0.837634 0.083106 0.106844
H26   H     H_    0.269483 0.135389 0.915886 0.107016
H27   H     H_    0.766018 0.357876 0.922366 0.107357
H28   H     H_    0.231814 0.639930 0.082478 0.108439
H29   H     H_    0.230859 0.363903 0.083856 0.107704
H30   H     H_    0.784605 0.618216 0.897498 0.105172
H31   H     H_    0.181172 0.672787 0.000616 0.107237
H32   H     H_    0.728272 0.000054 0.538563 0.160286
H33   H     H_    0.815898 0.323311 0.004809 0.105488
H34   H     H_    0.836291 0.648821 0.979542 0.101881
H35   H     H_    0.180020 0.331422 0.001819 0.105587
H36   H     H_    0.675838 0.162032 0.001959 0.104240
H37   H     H_    0.323337 0.834248 0.995432 0.103903
H38   H     H_    0.320330 0.167877 0.997927 0.104439
H39   H     H_    0.688877 0.807343 0.001633 0.105777
H40   H     H_    0.123992 0.814114 0.074679 0.229993
H41   H     H_    0.160871 0.889543 0.034229 0.231365
H42   H     H_    0.839603 0.107949 0.964624 0.230563
H43   H     H_    0.270558 0.999906 0.465339 0.158088
H44   H     H_    0.874511 0.185119 0.926264 0.229864
H45   H     H_    0.904229 0.772787 0.924276 0.224493
H46   H     H_    0.863686 0.842974 0.934249 0.234209
H47   H     H_    0.155778 0.119169 0.041485 0.231992
H48   H     H_    0.119371 0.195626 0.076286 0.230067
H49   H     H_    0.615352 0.299990 0.077838 0.228220
H50   H     H_    0.653031 0.375517 0.045196 0.232656
H51   H     H_    0.346021 0.622516 0.955969 0.232352
H52   H     H_    0.383434 0.698236 0.922633 0.227089
H53   H     H_    0.380966 0.304015 0.923555 0.228523
H54   H     H_    0.632727 0.832079 0.437833 0.155315
H55   H     H_    0.344360 0.380307 0.958352 0.232528
H56   H     H_    0.668562 0.592980 0.022357 0.230145
H57   H     H_    0.634265 0.669128 0.069215 0.228874
H58   H     H_    0.111862 0.908497 0.702064 0.107864
H59   H     H_    0.042789 0.894751 0.649997 0.083070
H60   H     H_    0.981997 0.790178 0.696801 0.097913
H61   H     H_    0.990702 0.698603 0.795220 0.102772
H62   H     H_    0.059488 0.711416 0.847996 0.098693
H63   H     H_    0.925226 0.306072 0.144675 0.099030
H64   H     H_    0.995054 0.343576 0.187421 0.107855
H65   H     H_    0.411320 0.173862 0.412903 0.158477
H66   H     H_    0.021081 0.263967 0.278545 0.103841
H67   H     H_    0.976954 0.146268 0.327078 0.088060
H68   H     H_    0.907429 0.108197 0.284307 0.128977
H69   H     H_    0.785447 0.957424 0.247804 0.094954
H70   H     H_    0.776568 0.052247 0.355688 0.129689
H71   H     H_    0.835229 0.052361 0.430458 0.132852
H72   H     H_    0.906098 0.961086 0.391140 0.081662
H73   H     H_    0.916573 0.866795 0.281371 0.114540
H74   H     H_    0.059474 0.288120 0.842686 0.097196
H75   H     H_    0.993317 0.299210 0.784125 0.107820
H76   H     H_    0.368658 0.832308 0.559632 0.159200
H77   H     H_    0.986727 0.205548 0.685245 0.101948
H78   H     H_    0.046545 0.100111 0.644757 0.082702
H79   H     H_    0.113046 0.088129 0.702557 0.108012
H80   H     H_    0.614286 0.412553 0.702570 0.108601
H81   H     H_    0.548422 0.402825 0.643056 0.082226
H82   H     H_    0.487419 0.298629 0.681448 0.101591
H83   H     H_    0.492171 0.203961 0.779968 0.105322
H84   H     H_    0.557742 0.212728 0.840099 0.096089
H85   H     H_    0.441984 0.786458 0.161975 0.094891
H86   H     H_    0.506882 0.794151 0.223600 0.104412
H87   H     H_    0.588666 0.173604 0.587232 0.158901
H88   H     H_    0.511035 0.698451 0.321469 0.098928
H89   H     H_    0.450041 0.594366 0.357822 0.080282
H90   H     H_    0.384734 0.585839 0.297055 0.106397
H91   H     H_    0.386072 0.412571 0.297864 0.106686
H92   H     H_    0.452525 0.401968 0.355940 0.081785
H93   H     H_    0.513189 0.297417 0.315490 0.101595
H94   H     H_    0.507506 0.203288 0.216337 0.104791
H95   H     H_    0.441351 0.212954 0.157592 0.095766
H96   H     H_    0.564897 0.790544 0.857380 0.095480
H97   H     H_    0.494424 0.812256 0.810422 0.102890
H98   H     H_    0.089857 0.320988 0.583595 0.164023
H99   H     H_    0.480694 0.726770 0.709920 0.100421
H100  H     H_    0.537629 0.618858 0.656276 0.081341
H101  H     H_    0.608220 0.596131 0.702731 0.108040
H102  H     H_    0.258646 0.684148 0.807012 0.230844
H103  H     H_    0.292171 0.762744 0.772331 0.226117
H104  H     H_    0.704385 0.220266 0.231753 0.228925
H105  H     H_    0.732338 0.302567 0.200696 0.231729
H106  H     H_    0.776496 0.646491 0.178132 0.227641
H107  H     H_    0.727032 0.708030 0.207003 0.231266
H108  H     H_    0.291023 0.238233 0.774764 0.231898
N1    N     N_3   0.130428 0.857991 0.032877 -0.591882
N2    N     N_3   0.732781 0.255590 0.233672 -0.591883
N3    N     N_3   0.760803 0.693410 0.214329 -0.597228
N4    N     N_3   0.260921 0.269821 0.772617 -0.592397
N5    N     N_3   0.757774 0.224268 0.775096 -0.592829
N6    N     N_3   0.241620 0.774662 0.225385 -0.591592
N7    N     N_3   0.239630 0.229000 0.226920 -0.592672
N8    N     N_3   0.770309 0.751138 0.762968 -0.603390
N9    N     N_3   0.869181 0.140766 0.966922 -0.588989
N10   N     N_3   0.891174 0.822611 0.954418 -0.590193
N11   N     N_3   0.126177 0.150036 0.036622 -0.588893
N12   N     N_3   0.623289 0.345903 0.038789 -0.588495
N13   N     N_3   0.375770 0.652488 0.961896 -0.589915
N14   N     N_3   0.374019 0.349605 0.963259 -0.589183
N15   N     N_3   0.638339 0.627204 0.025462 -0.588923
N16   N     N_3   0.261655 0.731008 0.771532 -0.597549
O1    O     O_R   0.255040 0.869590 0.478480 -0.515452
O2    O     O_R   0.817950 0.203450 0.375560 -0.528996
O3    O     O_R   0.817950 0.796550 0.375560 -0.516013
O4    O     O_R   0.182050 0.203450 0.624440 -0.523930
O5    O     O_R   0.682050 0.296550 0.624440 -0.522707
O6    O     O_R   0.317950 0.703450 0.375560 -0.516200
O7    O     O_R   0.317950 0.296550 0.375560 -0.524003
O8    O     O_R   0.682050 0.703450 0.624440 -0.520124
O9    O     O_R   0.250530 0.763330 0.367210 -0.456409
O10   O     O_R   0.749470 0.236670 0.632790 -0.458365
O11   O     O_R   0.749470 0.763330 0.632790 -0.471149
O12   O     O_R   0.744960 0.130410 0.521520 -0.529074
O13   O     O_R   0.250530 0.236670 0.367210 -0.459377
O14   O     O_R   0.750530 0.263330 0.367210 -0.458570
O15   O     O_R   0.249470 0.736670 0.632790 -0.468967
O16   O     O_R   0.249470 0.263330 0.632790 -0.459059
O17   O     O_R   0.750530 0.736670 0.367210 -0.472321
O18   O     O_R   0.177260 0.690030 0.513710 -0.516971
O19   O     O_R   0.822740 0.309970 0.486290 -0.515089
O20   O     O_R   0.822740 0.690030 0.486290 -0.519311
O21   O     O_R   0.177260 0.309970 0.513710 -0.520322
O22   O     O_R   0.677260 0.190030 0.513710 -0.514702
O23   O     O_R   0.744960 0.869590 0.521520 -0.506405
O24   O     O_R   0.322740 0.809970 0.486290 -0.520775
O25   O     O_R   0.322740 0.190030 0.486290 -0.517729
O26   O     O_R   0.677260 0.809970 0.513710 -0.523869
O27   O     O_R   0.051640 0.926880 0.885090 -0.522080
O28   O     O_R   0.948360 0.073120 0.114910 -0.523679
O29   O     O_R   0.948360 0.926880 0.114910 -0.528457
O30   O     O_R   0.051640 0.073120 0.885090 -0.526564
O31   O     O_R   0.551640 0.426880 0.885090 -0.526411
O32   O     O_R   0.448360 0.573120 0.114910 -0.527405
O33   O     O_R   0.448360 0.426880 0.114910 -0.525612
O34   O     O_R   0.255040 0.130410 0.478480 -0.515282
O35   O     O_R   0.551640 0.573120 0.885090 -0.526008
O36   O     O_R   0.940620 0.926560 0.986760 -0.465655
O37   O     O_R   0.059380 0.073440 0.013240 -0.463224
O38   O     O_R   0.059380 0.926560 0.013240 -0.466612
O39   O     O_R   0.940620 0.073440 0.986760 -0.465818
O40   O     O_R   0.440620 0.426560 0.986760 -0.463106
O41   O     O_R   0.559380 0.573440 0.013240 -0.463462
O42   O     O_R   0.559380 0.426560 0.013240 -0.461695
O43   O     O_R   0.440620 0.573440 0.986760 -0.462664
O44   O     O_R   0.755040 0.369590 0.478480 -0.513442
O45   O     O_R   0.244960 0.630410 0.521520 -0.514589
O46   O     O_R   0.244960 0.369590 0.521520 -0.515124
O47   O     O_R   0.755040 0.630410 0.478480 -0.512306
O48   O     O_R   0.182050 0.796550 0.624440 -0.527760

loop_
_geom_bond_atom_site_label_1
_geom_bond_atom_site_label_2
_ccdc_geom_bond_type
Cu8   O5    S    
C28   C47   A    
C86   H82   S    
C96   C102  A    
C36   C42   A    
C110  C118  A    
C195  O37   A    
H105  N2    S    
Cu9   O6    S    
C112  C124  A    
C142  O2    A    
C16   C35   A    
C6    C146  S    
C153  O48   A    
Cu5   O10   S    
C106  C107  A    
C185  O45   A    
C4    C148  S    
C5    C149  S    
C39   H1    S    
Cu3   O30   S    
C37   C42   A    
C194  O36   A    
C134  C143  A    
C57   H20   S    
Cu1   Cu9   S    
C113  C122  A    
C131  C166  S    
C10   C20   A    
C38   C190  S    
H47   N11   S    
C111  C125  A    
C90   C116  A    
C77   H74   S    
C22   C53   A    
C117  C126  A    
Cu1   O1    S    
C99   H93   S    
C122  H38   S    
C119  C128  A    
C24   C51   A    
C143  C151  A    
C83   C88   A    
C84   H80   S    
C49   H65   S    
C59   C60   A    
C8    C16   A    
C3    O39   A    
H6    N6    S    
H50   N12   S    
C104  C105  A    
C158  C167  A    
C162  C164  S    
Cu11  O8    S    
C166  C174  A    
C150  C159  A    
Cu8   O22   S    
C17   C24   A    
C168  N16   S    
C137  C146  A    
C3    C143  S    
C109  C163  S    
C142  O14   A    
C93   H88   S    
C29   C45   A    
C141  C196  S    
C3    O28   A    
C125  H27   S    
H4    N5    S    
C22   C31   A    
Cu12  O43   S    
C71   H69   S    
C82   H79   S    
C172  N5    S    
C62   H62   S    
H102  N16   S    
H103  N16   S    
C13   C18   A    
C42   H43   S    
C56   C62   A    
C13   H16   S    
C126  H30   S    
C193  O23   A    
C21   C30   A    
C176  C184  A    
C14   C57   A    
Cu10  O16   S    
C2    C19   A    
C88   H84   S    
C133  C141  A    
C25   C55   A    
C72   C73   A    
C188  O47   A    
C6    O31   A    
Cu5   O12   S    
C107  H100  S    
C59   H59   S    
Cu3   O36   S    
C175  O17   A    
C133  N1    S    
C64   C65   A    
C115  H31   S    
Cu4   O29   S    
C46   C53   A    
C72   H70   S    
Cu6   O3    S    
C1    O9    A    
C138  C182  A    
C78   H75   S    
Cu5   O19   S    
C20   C186  A    
C124  H28   S    
C101  C132  A    
Cu12  O40   S    
Cu1   O9    S    
C98   C99   A    
Cu3   O27   S    
C136  N11   S    
C41   H32   S    
C11   C18   A    
C79   C115  A    
C123  C132  A    
C4    O33   A    
C25   C43   A    
C97   C98   A    
Cu2   O32   S    
C85   C86   A    
C73   H71   S    
C12   C68   A    
C74   H72   S    
Cu2   O42   S    
C101  C179  S    
C2    C49   A    
H41   N1    S    
C114  C126  A    
C78   C80   A    
C30   C189  S    
C137  C181  A    
H9    N7    S    
C111  C119  A    
H53   N14   S    
C26   C45   A    
C172  C181  A    
C4    O40   A    
C63   C69   A    
C53   H2    S    
C29   C38   A    
C134  N9    S    
C46   H19   S    
C79   C177  S    
C187  O44   A    
C110  C180  S    
C89   C91   A    
C149  C158  A    
C152  C161  A    
C196  O27   A    
C66   C67   A    
Cu8   O44   S    
C68   H22   S    
C141  C150  A    
C7    C147  S    
C138  N13   S    
C139  C148  A    
C162  C171  A    
Cu4   O38   S    
H10   N8    S    
C38   C41   A    
C76   C82   A    
C91   C92   A    
C155  C163  A    
Cu10  O7    S    
H56   N15   S    
C50   H76   S    
Cu6   O11   S    
C83   C84   A    
C8    C12   A    
C164  O16   A    
C10   C45   A    
C114  C123  A    
Cu6   Cu11  S    
H104  N2    S    
C118  C127  A    
C145  C154  A    
C56   C150  S    
C24   H17   S    
Cu6   O20   S    
C35   C52   A    
Cu1   O18   S    
C29   C51   A    
C27   C47   A    
H106  N3    S    
Cu4   O28   S    
C32   C187  S    
C36   C192  S    
C154  C162  A    
C120  O8    A    
C170  C179  A    
C116  C125  A    
C112  C121  A    
C144  C152  A    
C113  C183  S    
C28   C37   A    
C114  C184  S    
C188  O20   A    
C76   C154  S    
C56   C58   A    
C30   C39   A    
C14   C16   A    
C148  C157  A    
C61   C62   A    
C194  O29   A    
C13   C50   A    
Cu3   Cu4   S    
C120  C167  S    
C104  H96   S    
C128  H24   S    
C70   C75   A    
Cu7   O34   S    
C5    O35   A    
C15   C46   A    
C1    O6    A    
C196  O38   A    
C140  C149  A    
C189  O21   A    
C27   C49   A    
C5    O41   A    
C54   C57   A    
C87   C88   A    
C90   C178  S    
C73   C74   A    
C11   C47   A    
C8    C43   A    
C131  O13   A    
C55   C68   A    
C77   C78   A    
C11   C19   A    
C140  C184  A    
Cu12  O35   S    
Cu7   O13   S    
C168  C177  A    
C79   C129  A    
C92   H86   S    
C111  C181  S    
C31   C40   A    
C65   H64   S    
C102  H95   S    
C146  C155  A    
C87   H83   S    
C160  C169  A    
C70   C71   A    
C132  H25   S    
Cu1   O48   S    
C26   C48   A    
C117  H34   S    
H46   N10   S    
C135  N10   S    
C121  H37   S    
C186  H14   S    
H11   N8    S    
H8    N7    S    
H5    N5    S    
C34   C41   A    
C60   H60   S    
C61   H61   S    
Cu11  O17   S    
Cu7   Cu10  S    
Cu7   O21   S    
C84   C85   A    
C7    O32   A    
C89   C156  S    
C58   C59   A    
C190  O22   A    
C6    O42   A    
C23   C44   A    
C60   C61   A    
C89   C95   A    
C9    C14   A    
C12   C15   A    
C134  C178  A    
C147  C156  A    
C63   C151  S    
H52   N13   S    
C169  N2    S    
C109  O5    A    
C34   C193  S    
H45   N10   S    
C127  H29   S    
C95   H90   S    
C66   H66   S    
Cu9   O45   S    
C75   H73   S    
C116  H33   S    
C115  C124  A    
C86   C87   A    
Cu11  O47   S    
C121  C129  A    
C189  O46   A    
C174  C183  A    
C103  C158  S    
C191  O24   A    
Cu2   O33   S    
C27   C36   A    
C85   H81   S    
C105  C106  A    
H107  N3    S    
H108  N4    S    
C101  C117  A    
C23   C32   A    
Cu3   O39   S    
C176  N8    S    
C120  O11   A    
C133  C177  A    
C156  C165  A    
C161  C175  S    
C48   H54   S    
C92   C93   A    
C130  H26   S    
C110  C130  A    
C67   H67   S    
C94   C95   A    
C145  C195  S    
C7    O43   A    
C106  H99   S    
C71   C72   A    
C144  C194  S    
C191  O1    A    
C103  C104  A    
C33   C185  S    
C9    C15   A    
C195  O30   A    
Cu6   O23   S    
C35   H18   S    
C97   H91   S    
C98   H92   S    
C81   C82   A    
C174  N7    S    
C80   H77   S    
C33   C39   A    
C140  N15   S    
Cu10  O46   S    
C173  C182  A    
C10   C17   A    
C165  C173  A    
C159  C168  A    
C173  N6    S    
C21   C43   A    
C28   C50   A    
C170  N3    S    
C26   C34   A    
C22   C44   A    
Cu8   O14   S    
C31   C188  S    
C103  C108  A    
C51   H87   S    
C136  C145  A    
C175  O3    A    
C185  O18   A    
C83   C155  S    
H48   N11   S    
H42   N9    S    
H40   N1    S    
C100  H94   S    
Cu12  O31   S    
C136  C180  A    
H55   N14   S    
H49   N12   S    
C74   C75   A    
Cu2   O41   S    
Cu2   Cu12  S    
C70   C152  S    
C76   C77   A    
Cu9   O24   S    
C112  C182  S    
C91   H85   S    
C63   C64   A    
C67   C69   A    
C153  C159  S    
Cu5   O2    S    
Cu11  O26   S    
C48   C186  A    
C163  C172  A    
C64   H63   S    
Cu7   O4    S    
C99   C100  A    
C1    C165  S    
C138  C147  A    
C107  C108  A    
C96   C97   A    
C58   H58   S    
C100  C102  A    
C93   C94   A    
Cu10  O25   S    
C187  O19   A    
C193  O26   A    
C161  C170  A    
C135  C144  A    
C37   C191  S    
C192  O25   A    
Cu5   Cu8   S    
C52   H98   S    
C171  C180  A    
C153  O15   A    
C169  C178  A    
C139  C183  A    
C118  H35   S    
C23   C54   A    
C109  O10   A    
C164  O4    A    
C69   H68   S    
C9    C44   A    
C190  O12   A    
Cu4   O37   S    
H7    N6    S    
C142  C160  S    
C80   C81   A    
C157  C166  A    
C171  N4    S    
C137  N12   S    
C54   H12   S    
C113  C127  A    
C119  H36   S    
H57   N15   S    
C129  H23   S    
C192  O34   A    
C55   H13   S    
C151  C160  A    
C40   H21   S    
C135  C179  A    
C123  H39   S    
C108  H101  S    
C2    H15   S    
C17   C19   A    
C96   C157  S    
C18   C20   A    
C32   C40   A    
C94   H89   S    
C131  O7    A    
H51   N13   S    
H3    N4    S    
C65   C66   A    
C25   C33   A    
C90   C128  A    
Cu9   O15   S    
C81   H78   S    
H44   N9    S    
C122  C130  A    
C21   C52   A    
C105  H97   S    
C167  C176  A    
C139  N14   S    
