data_mof_unit_36889.cif
_audit_creation_date              2013-03-05T16:15:03-0500
_audit_creation_method            fapswitch 2.2
_symmetry_space_group_name_H-M    P1
_symmetry_Int_Tables_number       1
_space_group_crystal_system       triclinic
_cell_length_a                    8.375275
_cell_length_b                    17.534999
_cell_length_c                    18.881038
_cell_angle_alpha                 103.550499
_cell_angle_beta                  91.866618
_cell_angle_gamma                 98.011783
_cell_volume                      2663.24478286

loop_
_atom_site_label
_atom_site_type_symbol
_atom_site_description
_atom_site_fract_x
_atom_site_fract_y
_atom_site_fract_z
_atom_type_partial_charge
P1    P     P_3+3 0.038810 0.422920 0.331160 0.455233
O1    O     O_2   0.871520 0.445720 0.321500 -0.371672
O2    O     O_3   0.121030 0.451930 0.411150 -0.425703
O3    O     O_3   0.662190 0.593100 0.375060 -0.348078
O4    O     O_2   0.767867 0.528396 0.247254 -0.355017
O5    O     O_3   0.986507 0.319805 0.316911 -0.582055
O6    O     O_3   0.702677 0.668785 0.259508 -0.539353
H1    H     H_    0.547195 0.728932 0.326625 0.087071
C1    C     C_3   0.633019 0.791650 0.245851 -0.067212
H2    H     H_    0.732967 0.828178 0.284533 0.145545
H3    H     H_    0.679485 0.776942 0.190523 0.125637
P2    P     P_3+3 0.678260 0.686080 0.568600 0.458350
P3    P     P_3+3 0.139048 0.738984 0.428885 0.492584
O7    O     O_2   0.853880 0.696450 0.547730 -0.304817
O8    O     O_3   0.085100 0.636210 0.413950 -0.426740
O9    O     O_2   0.049357 0.780647 0.493603 -0.332386
O10   O     O_3   0.701593 0.712669 0.664192 -0.573688
O11   O     O_3   0.062727 0.766124 0.352499 -0.492023
C2    C     C_3   0.114381 0.716792 0.290135 0.483696
H4    H     H_    0.048490 0.655300 0.280946 0.117621
H5    H     H_    0.246212 0.715655 0.295603 -0.004216
C3    C     C_3   0.081263 0.748060 0.223345 -0.859234
H6    H     H_    0.949615 0.743984 0.211678 0.250179
H7    H     H_    0.137909 0.810989 0.232671 0.298771
C4    C     C_3   0.305692 0.727503 0.690498 1.192968
H8    H     H_    0.387953 0.692495 0.656381 -0.033269
C5    C     C_3   0.383551 0.761564 0.768834 -1.119463
H9    H     H_    0.401912 0.713695 0.795279 0.220903
H10   H     H_    0.504883 0.796374 0.769314 0.242999
H11   H     H_    0.304679 0.799762 0.802160 0.268215
Ba1   Ba    Ba6+2 0.853800 0.535410 0.467450 1.603654
C6    C     C_3   0.110622 0.280055 0.284954 0.290324
H12   H     H_    0.125096 0.232317 0.313211 0.099477
H13   H     H_    0.229799 0.318426 0.291600 0.012646
C7    C     C_3   0.064534 0.241562 0.204153 0.166881
H14   H     H_    0.147378 0.198032 0.184239 0.036132
H15   H     H_    0.080839 0.288633 0.173470 0.042912
C8    C     C_3   0.734217 0.647556 0.690161 0.458494
H16   H     H_    0.834776 0.621576 0.661929 0.116702
H17   H     H_    0.625001 0.601836 0.681887 0.108859
C9    C     C_3   0.782838 0.675568 0.771600 -1.029964
H18   H     H_    0.898321 0.717272 0.780821 0.288693
H19   H     H_    0.798168 0.624504 0.794967 0.218756
H20   H     H_    0.688267 0.706173 0.800788 0.261350
P4    P     P_3+3 0.150900 0.577150 0.668860 0.442699
O12   O     O_2   0.318180 0.554310 0.678550 -0.419952
O13   O     O_3   0.068680 0.548140 0.588860 -0.410398
O14   O     O_3   0.527520 0.406960 0.624950 -0.354814
O15   O     O_3   0.157853 0.680987 0.695760 -0.605193
P5    P     P_3+3 0.067663 0.261559 0.581877 0.493301
O16   O     O_3   0.608500 0.402060 0.457050 -0.361187
O17   O     O_3   0.104610 0.363860 0.586060 -0.353088
O18   O     O_2   0.191783 0.223227 0.531684 -0.385879
O19   O     O_3   0.124551 0.248494 0.667621 -0.495956
Ba2   Ba    Ba6+2 0.336030 0.464660 0.532560 1.589746
P6    P     P_3+3 0.637509 0.577580 0.279707 0.504668
C10   C     C_3   0.577161 0.714698 0.268549 0.152167
H21   H     H_    0.468716 0.683152 0.232766 0.052943
O20   O     O_3   0.581210 0.598010 0.542960 -0.449027
C11   C     C_3   0.563601 0.319411 0.300318 0.233401
H22   H     H_    0.518331 0.376850 0.318930 0.154828
H23   H     H_    0.694825 0.326686 0.311909 0.137353
C12   C     C_3   0.527865 0.289051 0.217902 0.064847
H24   H     H_    0.406619 0.252474 0.207500 0.076285
H25   H     H_    0.617344 0.250218 0.195748 0.149822
P7    P     P_3+3 0.515093 0.300282 0.430065 0.482238
O21   O     O_2   0.335820 0.303580 0.452320 -0.338844
O22   O     O_3   0.489459 0.263044 0.335172 -0.622104
H26   H     H_    0.132041 0.712233 0.175193 0.213961
C13   C     C_3   0.004674 0.270441 0.715219 0.367117
H27   H     H_    0.975762 0.330199 0.714022 0.063088
H28   H     H_    0.894119 0.225466 0.700080 -0.072744
C14   C     C_3   0.063849 0.272438 0.792867 0.208040
H29   H     H_    0.963247 0.284538 0.828708 -0.009074
H30   H     H_    0.096114 0.213047 0.793703 0.056900
P8    P     P_3+3 0.556374 0.413188 0.717258 0.489392
C15   C     C_3   0.539209 0.261998 0.675023 0.551330
H31   H     H_    0.670460 0.277644 0.669250 -0.035513
O23   O     O_2   0.438265 0.467090 0.755527 -0.351934
O24   O     O_3   0.482627 0.319139 0.729671 -0.481454
H32   H     H_    0.471449 0.256127 0.621982 0.132419
H33   H     H_    0.554710 0.136476 0.651524 0.228825
C16   C     C_3   0.511909 0.182244 0.694838 -1.033153
H34   H     H_    0.381203 0.164312 0.700177 0.288604
H35   H     H_    0.579970 0.186284 0.747388 0.238808
C17   C     C_R   0.997162 0.450843 0.041821 0.035089
C18   C     C_R   0.897316 0.422547 0.091970 -0.161533
C19   C     C_R   0.789314 0.403813 0.934889 0.605916
C20   C     C_R   0.940818 0.447275 0.967982 -0.146498
C21   C     C_R   0.731452 0.411276 0.867312 -0.332254
C22   C     C_R   0.826128 0.451682 0.824158 -0.094999
C23   C     C_R   0.983760 0.488847 0.851469 0.051912
C24   C     C_R   0.041079 0.487438 0.924010 0.010905
C25   C     C_R   0.769037 0.452512 0.753034 0.151901
C26   C     C_R   0.873596 0.485098 0.707417 -0.468232
C27   C     C_R   0.029182 0.525313 0.732798 0.253809
C28   C     C_R   0.083419 0.528005 0.806680 -0.001961
C29   C     C_R   0.158387 0.485475 0.067607 0.053389
C30   C     C_R   0.216386 0.486992 0.140711 0.016753
C31   C     C_R   0.112484 0.455137 0.188365 -0.125308
C32   C     C_R   0.955605 0.420523 0.161113 -0.073578
H36   H     H_    0.829708 0.482636 0.652300 0.188104
H37   H     H_    0.612425 0.380303 0.848015 0.211708
H38   H     H_    0.873032 0.392530 0.193296 0.203859
C33   C     C_R   0.234465 0.568273 0.837539 -0.057996
C34   C     C_R   0.291477 0.566966 0.907322 -0.177231
C35   C     C_R   0.199703 0.524859 0.951287 0.074553
C36   C     C_R   0.261470 0.519884 0.021454 0.029969
C37   C     C_R   0.424613 0.547612 0.046985 -0.204166
C38   C     C_R   0.378073 0.520589 0.165975 -0.077856
C39   C     C_R   0.481003 0.547935 0.117222 -0.132818
C40   C     C_R   0.432708 0.525690 0.239111 0.087071
C41   C     C_R   0.327168 0.494993 0.285643 0.243469
C42   C     C_R   0.167410 0.460244 0.261990 0.061331
H39   H     H_    0.314116 0.599503 0.807395 0.143359
H40   H     H_    0.607377 0.569996 0.132580 0.173528
H41   H     H_    0.769887 0.404541 0.081538 0.210970
H42   H     H_    0.409011 0.600872 0.925643 0.121075
H43   H     H_    0.513837 0.568379 0.013247 0.131960
C43   C     C_2   0.426951 0.733761 0.506837 -0.414242
C44   C     C_3   0.362128 0.766927 0.447072 0.133705
C45   C     C_2   0.420276 0.854397 0.462829 -0.129637
C46   C     C_2   0.568518 0.882800 0.497574 0.089275
C47   C     C_2   0.656873 0.827067 0.527833 -0.244045
C48   C     C_1   0.580450 0.755949 0.530073 0.262084
C49   C     C_R   0.804303 0.136444 0.529126 -0.329640
C50   C     C_R   0.858801 0.217720 0.542410 0.085323
C51   C     C_R   0.614503 0.234899 0.476664 0.167062
C52   C     C_R   0.560592 0.153498 0.463488 -0.324083
C53   C     C_R   0.653069 0.103888 0.490827 0.126512
C54   C     C_2   0.638489 0.968095 0.512691 -0.195255
C55   C     C_2   0.591654 0.017831 0.474158 -0.101537
C56   C     C_R   0.760325 0.266319 0.518009 0.217479
H44   H     H_    0.501174 0.995596 0.428972 0.168446
H45   H     H_    0.776538 0.848313 0.554980 0.166934
H46   H     H_    0.882907 0.099191 0.546169 0.164498
H47   H     H_    0.729828 0.989841 0.557614 0.131901
H48   H     H_    0.344841 0.891970 0.443854 0.157236
H49   H     H_    0.448536 0.128649 0.430803 0.177845
H50   H     H_    0.346797 0.696137 0.532845 0.143400
O25   O     O_3   0.903690 0.202052 0.194956 -0.554921
C57   C     C_3   0.857814 0.174747 0.119672 -0.223607
H51   H     H_    0.940496 0.135062 0.091004 0.137443
H52   H     H_    0.852412 0.225415 0.093950 0.124426
H53   H     H_    0.734969 0.139718 0.112908 0.162949
N1    N     N_R   0.500126 0.836907 0.244329 0.243522
O26   O     O_R   0.447893 0.849414 0.183020 -0.391040
O27   O     O_R   0.441112 0.869872 0.304792 -0.442863
O28   O     O_3   0.536591 0.353533 0.184546 -0.610931
C58   C     C_3   0.468046 0.326288 0.112185 -0.226350
H54   H     H_    0.335850 0.306429 0.111225 0.112332
H55   H     H_    0.528303 0.277797 0.080456 0.143302
H56   H     H_    0.484366 0.375945 0.084788 0.199700
O29   O     O_3   0.197377 0.333133 0.816044 -0.528895
C59   C     C_3   0.264402 0.328034 0.883983 -0.063861
H57   H     H_    0.357695 0.380669 0.905259 0.165761
H58   H     H_    0.324456 0.274342 0.877640 0.126140
H59   H     H_    0.172152 0.328323 0.925139 0.072242
O30   O     O_3   0.381951 0.499289 0.356332 -0.634107
C60   C     C_3   0.356511 0.572902 0.400205 0.318085
H60   H     H_    0.270285 0.567419 0.441385 0.141653
H61   H     H_    0.342579 0.619148 0.369810 -0.119888
H62   H     H_    0.456964 0.596635 0.438579 0.128583
O31   O     O_3   0.694542 0.351102 0.965856 -0.655110
C61   C     C_3   0.739477 0.275247 0.941306 -0.355904
H63   H     H_    0.869743 0.275607 0.955491 0.145524
H64   H     H_    0.710374 0.252057 0.881543 0.156074
H65   H     H_    0.668762 0.233760 0.968888 0.168139
O32   O     O_3   0.811510 0.345788 0.531450 -0.662694
C62   C     C_3   0.909722 0.358772 0.475418 0.180610
H66   H     H_    0.839930 0.356265 0.424761 0.109009
H67   H     H_    0.998069 0.316694 0.460359 0.092411
H68   H     H_    0.976612 0.418137 0.497587 0.217729
O33   O     O_3   0.265946 0.787851 0.656978 -0.605728
C63   C     C_3   0.390334 0.853286 0.665628 -0.304750
H69   H     H_    0.512466 0.835583 0.661727 0.137434
H70   H     H_    0.383852 0.896168 0.718663 0.171973
H71   H     H_    0.370938 0.884418 0.622042 0.193918

loop_
_geom_bond_atom_site_label_1
_geom_bond_atom_site_label_2
_geom_bond_distance
_ccdc_geom_bond_type
O14   Ba2   2.781351 S    
P7    O22   1.752198 S    
C12   H25   1.108810 S    
C9    H18   1.110309 S    
C61   H63   1.113703 S    
Ba2   O20   2.853584 S    
C5    H10   1.108694 S    
C14   H30   1.115221 S    
C14   H29   1.110213 S    
O14   P8    1.727404 S    
O4    P6    1.539371 D    
O5    C6    1.405777 S    
C26   C27   1.403471 A    
P8    O23   1.543086 D    
O7    Ba1   2.874936 S    
C51   C52   1.396353 A    
C21   C22   1.396653 A    
O3    P6    1.757438 S    
C46   C47   1.504918 S    
C63   H70   1.110481 S    
C15   H31   1.110535 S    
P5    O19   1.747684 S    
P3    O11   1.749713 S    
C11   C12   1.526916 S    
C23   C24   1.443363 A    
O31   C61   1.409858 S    
C7    H15   1.110554 S    
C18   H41   1.068056 S    
C37   C39   1.391637 A    
C8    H16   1.106072 S    
C59   H58   1.112125 S    
C62   H66   1.093212 S    
C49   C53   1.413679 A    
C1    N1    1.457478 S    
P1    Ba1   3.412744 S    
C29   C36   1.420902 A    
C36   C37   1.413447 A    
C11   H23   1.097374 S    
P1    O1    1.526386 D    
O32   C62   1.401793 S    
Ba1   O20   2.937172 S    
C56   O32   1.360398 S    
O33   C63   1.412938 S    
C12   O28   1.412139 S    
P8    C25   1.861482 S    
C18   C32   1.388851 A    
P2    O20   1.598138 S    
O2    Ba2   2.815388 S    
C4    O33   1.424603 S    
O30   C60   1.408861 S    
C58   H56   1.107670 S    
C52   H49   1.083397 S    
O12   Ba2   2.855410 S    
P5    O17   1.759869 S    
C35   C36   1.432645 A    
C13   H27   1.112940 S    
C43   H50   1.084848 S    
C15   H32   1.110860 S    
C1    H2    1.111703 S    
C3    H26   1.110908 S    
O16   Ba2   2.936324 S    
O17   Ba2   2.812547 S    
C28   C33   1.395934 A    
C4    O15   1.404552 S    
P7    O21   1.577412 D    
C49   H46   1.080846 S    
C61   H64   1.112412 S    
Ba1   O13   2.814783 S    
C34   H42   1.077238 S    
C5    H11   1.110785 S    
C9    H19   1.107412 S    
C57   H53   1.109356 S    
O25   C57   1.411220 S    
O6    P6    1.748449 S    
C40   C41   1.408009 A    
C23   C28   1.428856 A    
C63   H71   1.108223 S    
N1    O27   1.299569 A    
P4    O13   1.577672 S    
P5    O18   1.546287 D    
P1    O5    1.754183 S    
C6    C7    1.529230 S    
P8    O24   1.750071 S    
C2    C3    1.520349 S    
C31   C42   1.428484 A    
C45   H48   1.083265 S    
C8    C9    1.523479 S    
C41   C42   1.402607 A    
Ba1   O16   2.854192 S    
C22   C23   1.411344 A    
C17   C18   1.413551 A    
O11   C2    1.407879 S    
P2    C48   1.832975 S    
C4    H8    1.108125 S    
P4    O12   1.526685 D    
C30   C38   1.418528 A    
C46   C54   1.485449 S    
C38   C39   1.401340 A    
C11   H22   1.109472 S    
P1    O2    1.577510 S    
C7    H14   1.111549 S    
C6    H13   1.108970 S    
P2    O10   1.752267 S    
C53   C55   1.480284 S    
C60   H62   1.061778 S    
C54   H47   1.083928 S    
C58   H55   1.112283 S    
H1    C10   1.111220 S    
P3    C44   1.863580 S    
C16   H34   1.110623 S    
O19   C13   1.402925 S    
P4    O15   1.764016 S    
C27   C28   1.440961 A    
C13   C14   1.523159 S    
C44   C45   1.498902 S    
C41   O30   1.378742 S    
O2    Ba1   2.936159 S    
C1    H3    1.112405 S    
P4    Ba2   3.413423 S    
O29   C59   1.410462 S    
C39   H40   1.080418 S    
C7    O25   1.411761 S    
C61   H65   1.108477 S    
C16   H35   1.110577 S    
P2    O7    1.532503 D    
H33   C16   1.110463 S    
C32   H38   1.077481 S    
P3    O8    1.748711 S    
P2    Ba1   3.419099 S    
C9    H20   1.107888 S    
C3    H7    1.109635 S    
P1    C42   1.894654 S    
O16   P7    1.793162 S    
C54   C55   1.348296 D    
C5    H9    1.097664 S    
C57   H52   1.113207 S    
C43   C44   1.503965 S    
C37   H43   1.077342 S    
O13   Ba2   2.937006 S    
N1    O26   1.300838 A    
C15   O24   1.404592 S    
C47   H45   1.085796 S    
C2    H5    1.108969 S    
C43   C48   1.319266 D    
C33   H39   1.066669 S    
C50   C56   1.404944 A    
C19   C21   1.391263 A    
C17   C20   1.441633 A    
Ba2   O21   2.875147 S    
C26   H36   1.081447 S    
O8    Ba1   2.811931 S    
C4    C5    1.544098 S    
C33   C34   1.393096 A    
C58   H54   1.111612 S    
C30   C31   1.424731 A    
C6    H12   1.110589 S    
C2    H4    1.112439 S    
C52   C53   1.412535 A    
C63   H69   1.109411 S    
C19   O31   1.380284 S    
O28   C58   1.411040 S    
C60   H60   1.089766 S    
C22   C25   1.414740 A    
C8    H17   1.109692 S    
C10   H21   1.110065 S    
C62   H67   1.113700 S    
C49   C50   1.395013 A    
P6    C40   1.873513 S    
C31   C32   1.395284 A    
P7    C51   1.863539 S    
C1    C10   1.526876 S    
O10   C8    1.399723 S    
C20   C24   1.430025 A    
C25   C26   1.405523 A    
C17   C29   1.420979 A    
C38   C40   1.419069 A    
C21   H37   1.074327 S    
O3    Ba1   2.781857 S    
C12   H24   1.107942 S    
C19   C20   1.427215 A    
C11   O22   1.398535 S    
C55   H44   1.083412 S    
C29   C30   1.441315 A    
C34   C35   1.412665 A    
P3    O9    1.544530 D    
C59   H57   1.108388 S    
C57   H51   1.113117 S    
C15   C16   1.519748 S    
C3    H6    1.106419 S    
O1    Ba1   2.854834 S    
C14   O29   1.411721 S    
C13   H28   1.111109 S    
P5    C50   1.864941 S    
Ba1   Ba2   4.598946 S    
C45   C46   1.356967 D    
C51   C56   1.397597 A    
P4    C27   1.912828 S    
O6    C10   1.402004 S    
C24   C35   1.419450 A    
C60   H61   1.113831 S    
C47   C48   1.330633 D    
C59   H59   1.113174 S    
C62   H68   1.091165 S    
