data_mof_unit_54024.cif
_audit_creation_date              2012-12-10T17:17:27-0500
_audit_creation_method            fapswitch 2.2
_symmetry_space_group_name_H-M    P1
_symmetry_Int_Tables_number       1
_space_group_crystal_system       triclinic
_cell_length_a                    10.200761
_cell_length_b                    10.564539
_cell_length_c                    12.95569
_cell_angle_alpha                 91.613767
_cell_angle_beta                  110.486777
_cell_angle_gamma                 95.409598
_cell_volume                      1299.25472668

loop_
_atom_site_label
_atom_site_type_symbol
_atom_type_description
_atom_site_fract_x
_atom_site_fract_y
_atom_site_fract_z
_atom_type_partial_charge
C1    C     C_R   0.046977 0.732973 0.487117 0.961532
C2    C     C_R   0.428368 0.527594 0.988979 -0.008778
C3    C     C_R   0.362995 0.541741 0.875691 0.021399
C4    C     C_R   0.568726 0.497407 0.026225 0.047398
C5    C     C_R   0.631301 0.460651 0.949341 0.106683
C6    C     C_R   0.566117 0.484077 0.838451 0.126461
C7    C     C_R   0.447940 0.551451 0.810341 0.169068
C8    C     C_R   0.649629 0.506275 0.137086 -0.156394
C9    C     C_R   0.838087 0.414645 0.099122 -0.118495
C10   C     C_R   0.215938 0.545290 0.831125 -0.170838
C11   C     C_2   0.062143 0.866285 0.465789 -0.423757
C12   C     C_R   0.137680 0.520183 0.711804 0.887859
C13   C     C_2   0.947223 0.924820 0.415530 0.509528
C14   C     C_2   0.905286 0.128812 0.484317 0.264489
C15   C     C_2   0.961715 0.062352 0.423327 -0.316293
C16   C     C_2   0.424438 0.533181 0.482583 -0.185305
C17   C     C_2   0.563559 0.497120 0.480067 0.510976
C18   C     C_R   0.946017 0.265601 0.502254 0.841679
C19   C     C_R   0.863527 0.484167 0.289286 0.914367
C20   C     C_R   0.763170 0.412865 0.987015 -0.141986
C21   C     C_R   0.784051 0.468257 0.173113 -0.048833
C22   C     C_R   0.141969 0.563996 0.902716 -0.227660
C23   C     C_R   0.211053 0.568032 0.016457 0.441284
C24   C     C_R   0.350814 0.543062 0.059434 -0.175034
H1    H     H_    0.940287 0.379431 0.127563 0.195601
H2    H     H_    0.165845 0.919935 0.500643 0.147286
H3    H     H_    0.314132 0.514457 0.430477 0.289509
H4    H     H_    0.337968 0.351688 0.477936 0.224391
H5    H     H_    0.812657 0.380037 0.931318 0.163434
H6    H     H_    0.612277 0.549927 0.196140 0.196077
H7    H     H_    0.030314 0.573742 0.870739 0.198734
H8    H     H_    0.394311 0.534244 0.147350 0.186330
H9    H     H_    0.034356 0.109271 0.388135 0.156047
N1    N     N_2   0.313640 0.446500 0.454900 -0.358189
N2    N     N_2   0.686360 0.553430 0.545150 0.020376
O1    O     O_R   0.936910 0.692950 0.509080 -0.517690
O2    O     O_R   0.138320 0.658600 0.480130 -0.609083
O3    O     O_R   0.002900 0.525670 0.675280 -0.603711
O4    O     O_R   0.204310 0.491320 0.646330 -0.611212
O5    O     O_R   0.861680 0.341400 0.519870 -0.541011
O6    O     O_R   0.063090 0.307050 0.490920 -0.643305
O7    O     O_R   0.795690 0.508680 0.353670 -0.578733
O8    O     O_R   0.997100 0.474330 0.324720 -0.597203
Zn1   Zn    Zn3+2 0.865520 0.522940 0.519330 1.112856
Zn2   Zn    Zn3+2 0.134480 0.477060 0.480670 0.970202
Cl1   Cl    Cl    0.778520 0.843310 0.341276 -0.481496
Cl2   Cl    Cl    0.789289 0.056702 0.545167 -0.447096
Cl3   Cl    Cl    0.557162 0.366526 0.390269 -0.583152
Cl4   Cl    Cl    0.689144 0.699081 0.611313 -0.478267
C25   C     C_3   0.623265 0.442427 0.752639 -0.820369
H10   H     H_    0.545320 0.449757 0.670334 0.245818
H11   H     H_    0.724267 0.500299 0.763410 0.266106
H12   H     H_    0.639532 0.340044 0.758334 0.239210
Cl5   Cl    Cl    0.121541 0.600320 0.105973 -0.607596
C26   C     C_3   0.442599 0.665256 0.741546 -0.714775
H13   H     H_    0.546179 0.724399 0.772252 0.268895
H14   H     H_    0.416851 0.635839 0.654339 0.274600
H15   H     H_    0.362629 0.726936 0.747167 0.208064

loop_
_geom_bond_atom_site_label_1
_geom_bond_atom_site_label_2
_ccdc_geom_bond_type
N2    Cl4   S    
C25   H11   S    
C23   C24   A    
C24   H8    S    
O3    Zn1   S    
C14   Cl2   S    
C7    C26   S    
C11   C13   D    
C14   C18   S    
C9    C20   A    
C2    C4    A    
C1    C11   S    
C19   O7    A    
C1    O2    A    
C4    C8    A    
C17   Cl3   S    
C8    H6    S    
C16   H3    S    
C26   H14   S    
C2    C3    A    
H4    N1    S    
N1    Zn2   S    
C10   C22   A    
C12   O3    A    
N2    Zn1   S    
O8    Zn2   S    
C9    C21   A    
C6    C7    A    
O7    Zn1   S    
C12   O4    A    
C5    C6    A    
C10   C12   S    
C19   C21   S    
C19   O8    A    
C25   H10   S    
C3    C7    A    
C20   H5    S    
C13   C15   S    
C2    C24   A    
C13   Cl1   S    
C5    C20   A    
C26   H13   S    
O1    Zn1   S    
C25   H12   S    
C16   C17   S    
C22   H7    S    
C9    H1    S    
O5    Zn1   S    
C23   Cl5   S    
C26   H15   S    
C3    C10   A    
C18   O5    A    
C14   C15   D    
O4    Zn2   S    
O6    Zn2   S    
C17   N2    D    
C11   H2    S    
C16   N1    D    
C22   C23   A    
O2    Zn2   S    
C15   H9    S    
C6    C25   S    
C18   O6    A    
C1    O1    A    
C4    C5    A    
C8    C21   A    
