data_mof_unit_25404.cif
_audit_creation_date              2012-12-10T18:44:27-0500
_audit_creation_method            fapswitch 2.2
_symmetry_space_group_name_H-M    P1
_symmetry_Int_Tables_number       1
_space_group_crystal_system       triclinic
_cell_length_a                    12.822051
_cell_length_b                    10.626802
_cell_length_c                    9.940652
_cell_angle_alpha                 89.777613
_cell_angle_beta                  98.088565
_cell_angle_gamma                 92.968797
_cell_volume                      1339.20486673

loop_
_atom_site_label
_atom_site_type_symbol
_atom_type_description
_atom_site_fract_x
_atom_site_fract_y
_atom_site_fract_z
_atom_type_partial_charge
C1    C     C_R   0.501413 0.260672 0.500592 0.873721
C2    C     C_R   0.701792 0.490995 0.528396 0.917336
C3    C     C_R   0.814969 0.473536 0.549133 -0.228656
C4    C     C_R   0.185031 0.526465 0.450867 -0.228657
C5    C     C_R   0.012955 0.505872 0.314424 0.074143
C6    C     C_R   0.987045 0.494131 0.685576 0.074143
C7    C     C_R   0.122801 0.514959 0.321880 0.371922
C8    C     C_R   0.877199 0.485042 0.678120 0.371924
C9    C     C_R   0.136994 0.552993 0.565029 0.087869
C10   C     C_R   0.863006 0.447009 0.434970 0.087868
C11   C     C_R   0.031357 0.512833 0.563729 0.009794
C12   C     C_R   0.498587 0.739328 0.499408 0.873719
C13   C     C_R   0.968643 0.487171 0.436271 0.009794
C14   C     C_R   0.421863 0.062649 0.417386 -0.185679
C15   C     C_R   0.578137 0.937351 0.582615 -0.185677
C16   C     C_R   0.418261 0.932801 0.414537 0.141493
C17   C     C_R   0.581739 0.067199 0.585463 0.141495
C18   C     C_3   0.808920 0.353186 0.329088 -0.785186
C19   C     C_3   0.191081 0.646818 0.670910 -0.785187
C20   C     C_3   0.945757 0.526666 0.178963 -0.710395
C21   C     C_3   0.054243 0.473339 0.821037 -0.710396
C22   C     C_3   0.329028 0.861860 0.326174 -0.798778
C23   C     C_R   0.497561 0.871796 0.498248 -0.071028
C24   C     C_3   0.670974 0.138140 0.673822 -0.798782
C25   C     C_3   0.634220 0.685017 0.161354 -0.713246
C26   C     C_3   0.365779 0.314984 0.838646 -0.713244
C27   C     C_R   0.502439 0.128204 0.501752 -0.071027
C28   C     C_R   0.563005 0.586099 0.081363 0.054064
C29   C     C_R   0.436994 0.413901 0.918637 0.054064
C30   C     C_R   0.562211 0.585540 0.937853 0.456008
C31   C     C_R   0.437789 0.414460 0.062147 0.456008
C32   C     C_R   0.298208 0.509005 0.471604 0.917336
Cl1   Cl    Cl    0.821630 0.478418 0.831848 -0.609224
Cl2   Cl    Cl    0.178370 0.521579 0.168151 -0.609222
Cl3   Cl    Cl    0.643017 0.696164 0.862210 -0.572457
Cl4   Cl    Cl    0.356983 0.303835 0.137790 -0.572455
H1    H     H_    0.361199 0.113170 0.355707 0.197314
H2    H     H_    0.939257 0.439657 0.116340 0.273609
H3    H     H_    0.866629 0.557280 0.191797 0.232426
H4    H     H_    0.019326 0.394951 0.877046 0.266967
H5    H     H_    0.133371 0.442725 0.808203 0.232427
H6    H     H_    0.060743 0.560348 0.883660 0.273607
H7    H     H_    0.360097 0.809679 0.245157 0.272627
H8    H     H_    0.287687 0.794446 0.388827 0.218393
H9    H     H_    0.270117 0.926389 0.276071 0.243026
H10   H     H_    0.639907 0.190325 0.754837 0.272629
H11   H     H_    0.729884 0.073611 0.723927 0.243027
H12   H     H_    0.638800 0.886830 0.644293 0.197313
H13   H     H_    0.712315 0.205551 0.611166 0.218392
H14   H     H_    0.715588 0.680911 0.136339 0.237443
H15   H     H_    0.605048 0.779813 0.134911 0.237951
H16   H     H_    0.641516 0.674948 0.271111 0.270032
H17   H     H_    0.284411 0.319090 0.863661 0.237443
H18   H     H_    0.358484 0.325052 0.728889 0.270032
H19   H     H_    0.394951 0.220187 0.865089 0.237951
H20   H     H_    0.759392 0.282205 0.377245 0.224126
H21   H     H_    0.757682 0.400119 0.246784 0.263410
H22   H     H_    0.867734 0.299791 0.284021 0.241636
H23   H     H_    0.240609 0.717797 0.622753 0.224126
H24   H     H_    0.132267 0.700214 0.715976 0.241635
H25   H     H_    0.242318 0.599885 0.753215 0.263410
H26   H     H_    0.980675 0.605054 0.122955 0.266965
N1    N     N_R   0.499970 0.499970 0.857200 -0.141622
N2    N     N_R   0.500030 0.500030 0.142800 -0.141622
O1    O     O_R   0.499990 0.316750 0.614620 -0.633929
O2    O     O_R   0.500010 0.683250 0.385380 -0.633929
O3    O     O_R   0.499990 0.316780 0.385290 -0.567969
O4    O     O_R   0.500010 0.683220 0.614710 -0.567969
O5    O     O_R   0.346360 0.499970 0.595710 -0.641532
O6    O     O_R   0.653640 0.500030 0.404290 -0.641533
O7    O     O_R   0.346360 0.499990 0.366380 -0.515605
O8    O     O_R   0.653640 0.500010 0.633620 -0.515605
Zn1   Zn    Zn3+2 0.500000 0.499980 0.653120 1.009998
Zn2   Zn    Zn3+2 0.500000 0.500020 0.346880 1.009998

loop_
_geom_bond_atom_site_label_1
_geom_bond_atom_site_label_2
_ccdc_geom_bond_type
O6    Zn2   S    
O7    Zn2   S    
C1    O1    A    
C29   N1    A    
O5    Zn1   S    
C32   O5    A    
C5    C7    A    
C19   H24   S    
C16   C23   A    
C20   H2    S    
C24   H13   S    
C18   H21   S    
C5    C13   A    
C25   H15   S    
C18   H20   S    
C24   H10   S    
C26   H19   S    
C12   O4    A    
C28   C30   A    
C2    C3    S    
C4    C9    A    
C25   H16   S    
O1    Zn1   S    
C29   C31   A    
C3    C10   A    
C2    O6    A    
C30   N1    A    
C25   C28   S    
C9    C11   A    
C12   C23   S    
C1    C27   S    
C4    C32   S    
C21   H4    S    
C30   Cl3   S    
C19   H25   S    
C4    C7    A    
C21   H5    S    
C15   H12   S    
C15   C23   A    
C1    O3    A    
C10   C18   S    
C32   O7    A    
O3    Zn2   S    
C8    Cl1   S    
C20   H26   S    
C14   C27   A    
C7    Cl2   S    
C14   C16   A    
C17   C24   S    
C24   H11   S    
C21   H6    S    
C17   C27   A    
C26   H17   S    
C26   H18   S    
C11   C13   A    
C22   H9    S    
C2    O8    A    
C6    C8    A    
C28   N2    A    
C26   C29   S    
C15   C17   A    
C3    C8    A    
C6    C11   A    
C5    C20   S    
C20   H3    S    
N2    Zn2   S    
C31   Cl4   S    
O8    Zn1   S    
C16   C22   S    
N1    Zn1   S    
C19   H23   S    
O4    Zn1   S    
C25   H14   S    
C6    C21   S    
C12   O2    A    
C31   N2    A    
C9    C19   S    
C22   H8    S    
C22   H7    S    
C18   H22   S    
C14   H1    S    
C10   C13   A    
O2    Zn2   S    
