data_mof_unit_67766.cif
_audit_creation_date              2013-03-05T15:40:26-0500
_audit_creation_method            fapswitch 2.2
_symmetry_space_group_name_H-M    P1
_symmetry_Int_Tables_number       1
_space_group_crystal_system       triclinic
_cell_length_a                    7.958104
_cell_length_b                    8.684937
_cell_length_c                    10.654261
_cell_angle_alpha                 92.459588
_cell_angle_beta                  82.633041
_cell_angle_gamma                 92.071718
_cell_volume                      729.275485509

loop_
_atom_site_label
_atom_site_type_symbol
_atom_site_description
_atom_site_fract_x
_atom_site_fract_y
_atom_site_fract_z
_atom_type_partial_charge
O1    O     O_R   0.389250 0.738570 0.508280 -0.571114
O2    O     O_R   0.678390 0.711630 0.486650 -0.602769
C1    C     C_R   0.543841 0.793101 0.509208 0.918720
O3    O     O_R   0.355400 0.513470 0.694050 -0.609411
O4    O     O_R   0.644540 0.486530 0.672420 -0.607519
C2    C     C_R   0.492301 0.481651 0.738993 0.888587
Zn1   Zn    Zn3+2 0.306930 0.517990 0.514440 1.097627
Zn2   Zn    Zn3+2 0.693070 0.482010 0.485560 1.099191
O5    O     O_R   0.321610 0.288370 0.513350 -0.573150
O6    O     O_R   0.610750 0.261430 0.491720 -0.611246
O7    O     O_R   0.355460 0.513470 0.327580 -0.621562
O8    O     O_R   0.644600 0.486530 0.305950 -0.572504
C3    C     C_R   0.457403 0.206926 0.509452 0.901165
C4    C     C_R   0.503790 0.502215 0.259515 0.938040
C5    C     C_R   0.184029 0.562934 0.935869 0.154838
C6    C     C_R   0.096682 0.684393 0.004720 0.094258
C7    C     C_R   0.181769 0.779269 0.087161 0.341699
C8    C     C_R   0.334202 0.730281 0.122795 0.110024
C9    C     C_R   0.403805 0.592012 0.068161 -0.104491
C10   C     C_R   0.353040 0.538927 0.954737 -0.056982
C11   C     C_R   0.468407 0.450889 0.873115 -0.161397
C12   C     C_R   0.573815 0.352411 0.924247 0.138202
C13   C     C_R   0.590670 0.371558 0.052851 0.350166
C14   C     C_R   0.510933 0.496872 0.123868 -0.165527
C15   C     C_2   0.572478 0.955413 0.513344 -0.067220
C16   C     C_2   0.439614 0.049125 0.539089 0.141790
N1    N     N_2   0.950330 0.457950 0.466250 0.021210
N2    N     N_2   0.049670 0.542050 0.533750 0.022217
I1    I     I_    0.657713 0.150074 0.817349 -0.113544
I2    I     I_    0.947657 0.708400 0.660150 -0.016816
I3    I     I_    0.050442 0.376434 0.853577 -0.099475
I4    I     I_    0.839040 0.725211 0.994131 -0.144013
Cl1   Cl    Cl    0.094661 0.954852 0.148750 -0.435903
I5    I     I_    0.482155 0.889393 0.218701 -0.135176
Cl2   Cl    Cl    0.706250 0.236316 0.122858 -0.460051
I6    I     I_    0.835713 0.016460 0.452048 -0.012126
Cl3   Cl    Cl    0.246751 0.996399 0.630284 -0.498308
I7    I     I_    0.048741 0.342998 0.300354 0.022571

loop_
_geom_bond_atom_site_label_1
_geom_bond_atom_site_label_2
_geom_bond_distance
_ccdc_geom_bond_type
C7    C8    1.402136 A    
O4    Zn2   1.977729 S    
C13   C14   1.419777 A    
C16   Cl3   1.764755 S    
C5    I3    2.124870 S    
C12   I1    2.132846 S    
C6    I4    2.111309 S    
C9    C10   1.378416 A    
Zn2   O8    2.002267 S    
N2    I2    2.048748 S    
C9    C14   1.408761 A    
C11   C12   1.393195 A    
Zn1   O7    1.977729 S    
C8    I5    2.099929 S    
O4    C2    1.323330 A    
C7    Cl1   1.763647 S    
O3    Zn1   2.002267 S    
O3    C2    1.288219 A    
O8    C4    1.295382 A    
O2    C1    1.295812 A    
C13   Cl2   1.763854 S    
C5    C10   1.409309 A    
O7    C4    1.308274 A    
C3    C16   1.417616 S    
C15   I6    2.166695 S    
C5    C6    1.410623 A    
C1    C15   1.419527 S    
C10   C11   1.404529 A    
Zn2   O6    2.003123 S    
C8    C9    1.411775 A    
C4    C14   1.437848 S    
N1    N2    1.317055 D    
Zn1   O5    2.001317 S    
Zn2   N1    2.048574 S    
O5    C3    1.308091 A    
C12   C13   1.396066 A    
N1    I7    2.069830 S    
C15   C16   1.350667 D    
O1    Zn1   2.003123 S    
C2    C11   1.452206 S    
O2    Zn2   2.001317 S    
Zn1   N2    2.048574 S    
C6    C7    1.399648 A    
O1    C1    1.303266 A    
O6    C3    1.286782 A    
