data_mof_unit_46907.cif
_audit_creation_date              2013-03-05T16:30:42-0500
_audit_creation_method            fapswitch 2.2
_symmetry_space_group_name_H-M    P1
_symmetry_Int_Tables_number       1
_space_group_crystal_system       triclinic
_cell_length_a                    10.894393
_cell_length_b                    10.804854
_cell_length_c                    9.567181
_cell_angle_alpha                 89.671792
_cell_angle_beta                  89.412415
_cell_angle_gamma                 90.384225
_cell_volume                      1126.07166135

loop_
_atom_site_label
_atom_site_type_symbol
_atom_site_description
_atom_site_fract_x
_atom_site_fract_y
_atom_site_fract_z
_atom_type_partial_charge
O1    O     O_R   0.500000 0.319640 0.618810 -0.582793
O2    O     O_R   0.500010 0.319680 0.381230 -0.573459
C1    C     C_R   0.497529 0.262418 0.500345 0.852420
O3    O     O_R   0.321940 0.499980 0.618760 -0.586101
O4    O     O_R   0.321950 0.500020 0.381180 -0.570220
C2    C     C_R   0.265218 0.496372 0.500870 0.884330
Cu1   Cu    Cu3+1 0.499990 0.499980 0.640670 1.011223
Cu2   Cu    Cu3+1 0.500010 0.500020 0.359330 1.032507
O5    O     O_R   0.499990 0.680320 0.618770 -0.594578
O6    O     O_R   0.500000 0.680360 0.381190 -0.544193
O7    O     O_R   0.678050 0.499980 0.618820 -0.550606
O8    O     O_R   0.678060 0.500020 0.381240 -0.564807
C3    C     C_R   0.493464 0.737466 0.499596 0.826704
C4    C     C_R   0.734681 0.496872 0.499035 0.893401
C5    C     C_2   0.934622 0.442233 0.395406 0.335191
C6    C     C_2   0.867390 0.498488 0.495846 -0.375651
H1    H     H_    0.910010 0.556647 0.573655 0.164855
C7    C     C_2   0.068278 0.462148 0.389732 -0.191388
C8    C     C_2   0.133090 0.482518 0.505570 -0.344126
H2    H     H_    0.114774 0.453487 0.289261 0.210988
H3    H     H_    0.090094 0.480947 0.608418 0.194671
C9    C     C_R   0.499113 0.062518 0.624431 0.121817
C10   C     C_R   0.483191 0.129447 0.501386 -0.146707
C11   C     C_R   0.443359 0.066986 0.381543 -0.236891
H4    H     H_    0.418915 0.118483 0.288488 0.195985
C12   C     C_R   0.436367 0.937357 0.380360 0.325804
C13   C     C_R   0.475344 0.870489 0.500078 -0.215700
C14   C     C_R   0.496314 0.935515 0.623428 0.110693
C15   C     C_3   0.597952 0.926114 0.726622 -0.451347
C16   C     C_3   0.600967 0.066720 0.727594 -0.370071
H5    H     H_    0.566332 0.885050 0.827666 0.226093
H6    H     H_    0.682395 0.884410 0.681289 0.193461
H7    H     H_    0.571003 0.106666 0.829107 0.228092
H8    H     H_    0.687101 0.106930 0.682790 0.219055
C17   C     C_R   0.562658 0.589354 0.072628 0.256852
N1    N     N_R   0.500780 0.500930 0.147930 -0.175171
C18   C     C_R   0.427110 0.421127 0.076594 -0.032496
H9    H     H_    0.370257 0.355846 0.134717 0.132791
C19   C     C_R   0.425948 0.421512 0.928010 0.059050
N2    N     N_R   0.500780 0.500890 0.852020 -0.196686
C20   C     C_R   0.566060 0.586568 0.925670 0.140407
C21   C     C_3   0.702540 0.609390 0.924578 0.104882
C22   C     C_3   0.695739 0.619494 0.082808 -0.494595
H10   H     H_    0.730266 0.696833 0.870728 0.103641
H11   H     H_    0.748935 0.547567 0.138476 0.264944
H12   H     H_    0.711147 0.715326 0.120773 0.180637
N3    N     N_R   0.879783 0.362176 0.292933 0.139602
O9    O     O_R   0.928786 0.353665 0.168775 -0.305057
O10   O     O_R   0.795835 0.282004 0.330441 -0.340446
C23   C     C_1   0.346116 0.335125 0.859266 0.320946
N4    N     N_1   0.281464 0.265347 0.804897 -0.249482
N5    N     N_R   0.775877 0.502333 0.882572 0.186702
O11   O     O_R   0.889621 0.519798 0.844473 -0.351269
O12   O     O_R   0.737609 0.389950 0.908357 -0.303654
N6    N     N_R   0.390788 0.876633 0.258012 0.137391
O13   O     O_R   0.304676 0.793084 0.270186 -0.335728
O14   O     O_R   0.419010 0.919400 0.134276 -0.371916

loop_
_geom_bond_atom_site_label_1
_geom_bond_atom_site_label_2
_geom_bond_distance
_ccdc_geom_bond_type
C18   C19   1.421700 A    
C5    C7    1.470882 S    
C10   C11   1.404822 A    
N2    C20   1.366822 A    
C15   C16   1.519444 S    
O4    Cu2   1.948954 S    
C17   C22   1.488118 S    
C20   C21   1.505465 S    
C1    C10   1.444118 S    
C17   N1    1.363737 A    
C5    N3    1.442600 S    
Cu2   O8    1.953176 S    
C12   N6    1.436499 S    
N6    O13   1.301467 A    
C23   N4    1.157574 T    
O8    C4    1.290668 A    
Cu1   Cu2   2.691626 S    
C15   H5    1.111872 S    
O7    C4    1.296653 A    
C9    C14   1.372471 A    
C11   H4    1.083641 S    
Cu1   O7    1.948953 S    
C2    C8    1.446436 S    
C22   H11   1.109558 S    
C12   C13   1.420839 A    
C18   H9    1.083022 S    
C21   H10   1.112077 S    
O3    Cu1   1.953176 S    
Cu2   O6    1.960930 S    
C14   C15   1.494619 S    
C8    H3    1.085420 S    
N5    O12   1.302625 A    
O2    C1    1.293556 A    
C15   H6    1.112241 S    
C7    H2    1.086729 S    
N6    O14   1.301459 A    
O4    C2    1.295927 A    
C17   C20   1.406579 A    
C22   H12   1.111528 S    
C4    C6    1.445773 S    
O3    C2    1.292273 A    
C21   C22   1.519456 S    
C16   H8    1.112300 S    
C5    C6    1.351875 D    
C19   N2    1.378435 A    
C19   C23   1.438081 S    
N5    O11   1.300318 A    
N3    O10   1.301791 A    
C7    C8    1.338643 D    
Cu2   N1    2.022402 S    
C21   N5    1.465951 S    
C13   C14   1.396919 A    
Cu1   O5    1.958585 S    
O5    C3    1.296325 A    
C9    C10   1.391022 A    
N1    C18   1.364597 A    
C9    C16   1.493247 S    
C16   H7    1.111866 S    
O2    Cu2   1.958585 S    
O1    Cu1   1.960931 S    
Cu1   N2    2.022210 S    
C3    C13   1.452115 S    
N3    O9    1.301283 A    
C11   C12   1.402299 A    
C6    H1    1.083130 S    
O1    C1    1.294588 A    
O6    C3    1.294604 A    
