data_mof_unit_12904.cif
_audit_creation_date              2012-12-10T17:35:44-0500
_audit_creation_method            fapswitch 2.2
_symmetry_space_group_name_H-M    P1
_symmetry_Int_Tables_number       1
_space_group_crystal_system       triclinic
_cell_length_a                    10.523438
_cell_length_b                    11.987275
_cell_length_c                    12.884458
_cell_angle_alpha                 93.064316
_cell_angle_beta                  89.788926
_cell_angle_gamma                 86.121083
_cell_volume                      1619.25477638

loop_
_atom_site_label
_atom_site_type_symbol
_atom_type_description
_atom_site_fract_x
_atom_site_fract_y
_atom_site_fract_z
_atom_type_partial_charge
C1    C     C_R   0.498905 0.521819 0.700442 0.966862
C2    C     C_R   0.501054 0.478184 0.299561 0.934430
C3    C     C_R   0.505510 0.437748 0.867632 -0.250123
C4    C     C_R   0.493737 0.562271 0.132379 -0.272857
C5    C     C_R   0.503777 0.446396 0.974287 0.184336
C6    C     C_R   0.495340 0.553628 0.025722 0.190912
C7    C     C_R   0.396391 0.953030 0.390708 -0.088894
C8    C     C_R   0.603485 0.046969 0.609337 -0.091973
C9    C     C_R   0.403770 0.837146 0.404529 -0.031627
C10   C     C_R   0.596196 0.162842 0.595488 -0.031596
C11   C     C_R   0.543482 0.858057 0.546796 -0.044622
C12   C     C_R   0.456450 0.141956 0.453240 -0.045696
C13   C     C_R   0.536990 0.975929 0.539996 0.021442
C14   C     C_R   0.462931 0.024078 0.460023 0.020660
C15   C     C_R   0.742409 0.499860 0.498579 0.982292
C16   C     C_R   0.257595 0.500127 0.501318 0.940603
C17   C     C_3   0.965925 0.394693 0.513309 -0.202997
C18   C     C_3   0.034053 0.605330 0.485993 -0.235144
C19   C     C_3   0.041427 0.465970 0.591508 -0.046384
C20   C     C_3   0.958488 0.534020 0.407782 -0.070279
C21   C     C_3   0.123168 0.500219 0.501664 -0.138238
C22   C     C_3   0.876860 0.499727 0.497706 -0.120848
C23   C     C_3   0.048959 0.430412 0.423233 -0.167533
C24   C     C_3   0.951092 0.569566 0.576006 -0.060144
C25   C     C_R   0.501141 0.465429 0.188301 -0.021716
C26   C     C_R   0.498396 0.534586 0.811706 -0.013164
C27   C     C_R   0.488869 0.650620 0.969858 -0.213431
C28   C     C_R   0.510287 0.349403 0.030149 -0.211452
C29   C     C_R   0.490397 0.641103 0.862424 -0.202195
C30   C     C_R   0.508971 0.358916 0.137584 -0.146214
H1    H     H_    0.935426 0.309168 0.524312 0.181321
H2    H     H_    0.064555 0.690865 0.475058 0.186005
H3    H     H_    0.487373 0.644930 0.171470 0.163648
H4    H     H_    0.511902 0.355087 0.828544 0.161182
H5    H     H_    0.514367 0.283591 0.180647 0.156873
H6    H     H_    0.485177 0.716427 0.819360 0.156785
H7    H     H_    0.482487 0.733125 0.009075 0.136006
H8    H     H_    0.516662 0.266899 0.990930 0.134356
H9    H     H_    0.397218 0.182601 0.396147 0.164381
H10   H     H_    0.602668 0.817438 0.603940 0.157056
H11   H     H_    0.646272 0.218197 0.647687 0.143432
H12   H     H_    0.353686 0.781775 0.352350 0.137928
N1    N     N_R   0.523490 0.207800 0.519350 -0.110752
N2    N     N_R   0.476510 0.792200 0.480650 -0.109146
O1    O     O_R   0.506270 0.421700 0.658830 -0.616972
O2    O     O_R   0.493730 0.578300 0.341170 -0.622012
O3    O     O_R   0.491200 0.609310 0.646410 -0.637714
O4    O     O_R   0.508800 0.390690 0.353590 -0.632004
O5    O     O_R   0.693580 0.406210 0.506230 -0.631237
O6    O     O_R   0.306420 0.593790 0.493770 -0.634400
O7    O     O_R   0.678510 0.593830 0.493810 -0.602279
O8    O     O_R   0.321490 0.406170 0.506190 -0.597819
Zn1   Zn    Zn3+2 0.510060 0.374730 0.508290 0.981670
Zn2   Zn    Zn3+2 0.489940 0.625270 0.491710 0.973160
C31   C     C_2   0.085700 0.427600 0.695077 0.914975
O9    O     O_2   0.007989 0.398380 0.757069 -0.594141
O10   O     O_R   0.214667 0.425486 0.720483 -0.814961
H13   H     H_    0.232118 0.398081 0.792475 0.341903
C32   C     C_2   0.913211 0.572678 0.304544 0.911074
O11   O     O_2   0.989816 0.604463 0.243002 -0.631406
O12   O     O_R   0.784419 0.572347 0.279015 -0.809230
H14   H     H_    0.766170 0.600337 0.207351 0.343111
C33   C     C_2   0.107507 0.351734 0.338549 0.962259
O13   O     O_2   0.083825 0.253410 0.335011 -0.594782
O14   O     O_R   0.189293 0.389058 0.264169 -0.767518
H15   H     H_    0.204278 0.471378 0.275549 0.307767
C34   C     C_2   0.891850 0.647030 0.660669 0.918560
O15   O     O_2   0.911708 0.746379 0.663822 -0.637418
O16   O     O_R   0.813302 0.605134 0.734877 -0.791871
H16   H     H_    0.777772 0.665431 0.787294 0.343063
C35   C     C_R   0.321701 0.995349 0.301905 0.096166
C36   C     C_R   0.192101 0.975273 0.292646 -0.107551
C37   C     C_R   0.122366 0.012364 0.207419 -0.061820
C38   C     C_R   0.181468 0.069314 0.130754 -0.052025
C39   C     C_R   0.310631 0.088616 0.138806 -0.096881
C40   C     C_R   0.380867 0.051203 0.223623 -0.177438
H17   H     H_    0.145112 0.931302 0.351545 0.128796
H18   H     H_    0.022431 0.997111 0.200896 0.130473
H19   H     H_    0.127285 0.098141 0.064953 0.127208
H20   H     H_    0.356478 0.132051 0.079035 0.127433
H21   H     H_    0.481293 0.065435 0.228216 0.126400
C41   C     C_R   0.677887 0.004647 0.698279 0.100856
C42   C     C_R   0.618321 0.949216 0.776638 -0.173922
C43   C     C_R   0.688239 0.911880 0.861644 -0.156969
C44   C     C_R   0.817524 0.930696 0.869729 -0.082289
C45   C     C_R   0.877044 0.987166 0.792947 -0.048144
C46   C     C_R   0.807593 0.024285 0.707584 -0.099084
H22   H     H_    0.517827 0.935276 0.771965 0.128831
H23   H     H_    0.642089 0.868762 0.921474 0.130963
H24   H     H_    0.871485 0.901838 0.935632 0.129020
H25   H     H_    0.977076 0.002044 0.799496 0.128260
H26   H     H_    0.854882 0.067916 0.648609 0.126451

loop_
_geom_bond_atom_site_label_1
_geom_bond_atom_site_label_2
_ccdc_geom_bond_type
C31   O9    D    
C33   O14   S    
C16   C21   S    
C27   C29   A    
C18   C21   S    
C37   C38   A    
C4    C25   A    
C44   C45   A    
C2    O2    A    
C29   H6    S    
C9    H12   S    
O6    Zn2   S    
C30   H5    S    
C18   C24   S    
C19   C21   S    
C16   O6    A    
C12   N1    A    
C45   H25   S    
C7    C35   S    
C5    C6    A    
C41   C46   A    
C24   C34   S    
N1    Zn1   S    
C15   C22   S    
C42   C43   A    
C37   H18   S    
C15   O7    A    
C39   H20   S    
O12   H14   S    
C23   C33   S    
C42   H22   S    
O1    Zn1   S    
C32   O11   D    
C13   C14   A    
C10   H11   S    
O16   H16   S    
C7    C14   A    
O4    Zn1   S    
C32   O12   S    
C38   C39   A    
C34   O15   D    
C43   C44   A    
C4    C6    A    
C45   C46   A    
C1    O3    A    
C3    H4    S    
C2    O4    A    
C34   O16   S    
C39   C40   A    
C36   H17   S    
C5    C28   A    
C6    C27   A    
C20   C23   S    
C28   H8    S    
O2    Zn2   S    
C11   N2    A    
C17   C23   S    
C20   C32   S    
O3    Zn2   S    
C12   C14   A    
C41   C42   A    
C38   H19   S    
C31   O10   S    
C1    C26   S    
C17   H1    S    
C22   C24   S    
C18   H2    S    
C43   H23   S    
O8    Zn1   S    
C19   C31   S    
C25   C30   A    
C7    C9    A    
C4    H3    S    
C9    N2    A    
C10   N1    A    
C3    C26   A    
C16   O8    A    
C20   C22   S    
C36   C37   A    
C3    C5    A    
C40   H21   S    
C44   H24   S    
C17   C22   S    
O7    Zn2   S    
C12   H9    S    
C21   C23   S    
C19   C24   S    
C35   C36   A    
C11   C13   A    
C1    O1    A    
O10   H13   S    
C35   C40   A    
C27   H7    S    
O5    Zn1   S    
C28   C30   A    
C17   C19   S    
C2    C25   S    
C18   C20   S    
C15   O5    A    
C11   H10   S    
C33   O13   D    
C8    C13   A    
N2    Zn2   S    
C8    C41   S    
C26   C29   A    
C8    C10   A    
O14   H15   S    
C46   H26   S    
