data_mof_unit_50708.cif
_audit_creation_date              2012-12-11T15:43:17-0500
_audit_creation_method            fapswitch 2.2
_symmetry_space_group_name_H-M    P1
_symmetry_Int_Tables_number       1
_space_group_crystal_system       triclinic
_cell_length_a                    19.096646
_cell_length_b                    10.942637
_cell_length_c                    18.792605
_cell_angle_alpha                 89.750332
_cell_angle_beta                  89.850104
_cell_angle_gamma                 90.088624
_cell_volume                      3926.99129814

loop_
_atom_site_label
_atom_site_type_symbol
_atom_type_description
_atom_site_fract_x
_atom_site_fract_y
_atom_site_fract_z
_atom_type_partial_charge
C1    C     C_R   0.725631 0.366470 0.141987 0.546520
C2    C     C_R   0.269559 0.376831 0.853789 0.550198
C3    C     C_R   0.228365 0.874328 0.144776 0.545064
C4    C     C_R   0.769708 0.876819 0.853849 0.549236
C5    C     C_R   0.485375 0.398512 0.932046 -0.084832
C6    C     C_R   0.467563 0.372450 0.078388 -0.097864
C7    C     C_R   0.990023 0.897787 0.930824 -0.084419
C8    C     C_R   0.971249 0.875906 0.077287 -0.096026
C9    C     C_R   0.973876 0.000470 0.971320 -0.131831
C10   C     C_R   0.962406 0.988831 0.044055 -0.125556
C11   C     C_R   0.466886 0.499096 0.973280 -0.133858
C12   C     C_R   0.455787 0.485187 0.045939 -0.125461
C13   C     C_R   0.746041 0.924019 0.921631 0.018796
C14   C     C_R   0.238497 0.902377 0.070624 0.020103
C15   C     C_R   0.244831 0.424297 0.921157 0.021046
C16   C     C_R   0.733466 0.379128 0.065733 0.017051
C17   C     C_R   0.698505 0.857625 0.963817 0.004342
C18   C     C_R   0.303683 0.925475 0.040607 -0.009125
C19   C     C_R   0.198398 0.356151 0.963728 0.003445
C20   C     C_R   0.795921 0.348868 0.032058 0.000788
C21   C     C_R   0.696203 0.873792 0.036733 0.005734
C22   C     C_R   0.310202 0.931171 0.967646 0.031393
C23   C     C_R   0.195971 0.373215 0.036581 0.005578
C24   C     C_R   0.802471 0.362316 0.959286 0.004785
C25   C     C_R   0.782761 0.033207 0.026269 -0.137396
C26   C     C_R   0.185630 0.907728 0.952898 -0.167596
C27   C     C_R   0.277665 0.539382 0.024826 -0.138320
C28   C     C_R   0.679554 0.408868 0.949938 -0.160438
C29   C     C_R   0.783185 0.020346 0.952799 -0.142336
C30   C     C_R   0.178871 0.898790 0.026184 -0.141699
C31   C     C_R   0.279129 0.524308 0.951437 -0.144344
C32   C     C_R   0.673441 0.398045 0.023507 -0.146423
C33   C     C_3   0.687729 0.722701 0.971099 -0.244984
C34   C     C_3   0.372470 0.863753 0.050175 -0.283245
C35   C     C_3   0.190146 0.220919 0.971819 -0.241337
C36   C     C_3   0.867912 0.394958 0.046149 -0.283483
C37   C     C_3   0.684385 0.741154 0.050913 -0.279570
C38   C     C_3   0.377626 0.862081 0.969487 -0.263832
C39   C     C_3   0.186686 0.240308 0.051557 -0.277303
C40   C     C_3   0.875123 0.411803 0.966389 -0.248120
C41   C     C_R   0.743308 0.952916 0.069432 0.023509
C42   C     C_R   0.252052 0.919332 0.922700 0.009608
C43   C     C_R   0.241422 0.455903 0.068667 0.026648
C44   C     C_R   0.745956 0.403559 0.918211 0.010670
C45   C     C_R   0.533490 0.154820 0.145491 0.540350
C46   C     C_R   0.469595 0.156891 0.852443 0.541342
C47   C     C_R   0.033062 0.654879 0.145707 0.540521
C48   C     C_R   0.969673 0.656663 0.852381 0.534137
C49   C     C_R   0.507036 0.159976 0.580052 0.019312
C50   C     C_R   0.549266 0.159008 0.436448 -0.000981
C51   C     C_R   0.007036 0.659976 0.580053 0.019107
C52   C     C_R   0.049265 0.659008 0.436448 -0.000905
C53   C     C_R   0.495788 0.060407 0.536101 0.060526
C54   C     C_R   0.516123 0.059720 0.467085 0.002730
C55   C     C_R   0.995784 0.560410 0.536100 0.060506
C56   C     C_R   0.016118 0.559723 0.467084 0.002749
C57   C     C_R   0.571581 0.254069 0.481868 -0.165899
C58   C     C_R   0.550008 0.255190 0.554210 -0.176389
C59   C     C_R   0.071583 0.754066 0.481869 -0.165843
C60   C     C_R   0.050010 0.755186 0.554211 -0.176514
C61   C     C_3   0.431074 0.989937 0.521143 -0.250391
C62   C     C_3   0.453619 0.989484 0.443891 -0.259580
C63   C     C_3   0.931068 0.489947 0.521142 -0.250387
C64   C     C_3   0.953611 0.489495 0.443890 -0.259554
C65   C     C_R   0.760232 0.898230 0.571740 0.016369
C66   C     C_R   0.251867 0.917972 0.422673 -0.004484
C67   C     C_R   0.260232 0.398230 0.571739 0.016443
C68   C     C_R   0.751865 0.417967 0.422675 -0.004834
C69   C     C_R   0.815243 0.872505 0.525069 0.011653
C70   C     C_R   0.219153 0.016996 0.455033 -0.008883
C71   C     C_R   0.315243 0.372506 0.525069 0.011735
C72   C     C_R   0.719152 0.516992 0.455035 -0.008861
C73   C     C_R   0.807879 0.873695 0.452845 -0.003850
C74   C     C_R   0.217931 0.026151 0.527462 0.025078
C75   C     C_R   0.307879 0.373696 0.452845 -0.003853
C76   C     C_R   0.717930 0.526146 0.527464 0.024970
C77   C     C_R   0.685827 0.919317 0.468753 -0.169970
C78   C     C_R   0.291093 0.849761 0.540388 -0.181760
C79   C     C_R   0.185827 0.419317 0.468753 -0.170014
C80   C     C_R   0.791090 0.349755 0.540390 -0.181685
C81   C     C_R   0.692886 0.909233 0.542830 -0.062349
C82   C     C_R   0.294873 0.841745 0.466077 -0.040294
C83   C     C_R   0.192886 0.409233 0.542830 -0.062362
C84   C     C_R   0.794869 0.341738 0.466080 -0.040473
C85   C     C_3   0.890275 0.908133 0.521342 -0.252863
C86   C     C_3   0.149375 0.078178 0.447456 -0.267098
C87   C     C_3   0.390275 0.408138 0.521341 -0.252899
C88   C     C_3   0.649375 0.578179 0.447458 -0.267044
C89   C     C_R   0.739794 0.975953 0.145161 0.543004
C90   C     C_R   0.258610 0.967222 0.851511 0.534852
C91   C     C_R   0.239274 0.477343 0.144681 0.544697
C92   C     C_R   0.758229 0.467049 0.851469 0.533309
C93   C     C_3   0.883594 0.899616 0.440733 -0.273170
C94   C     C_3   0.147109 0.083346 0.528204 -0.253033
C95   C     C_3   0.383594 0.399620 0.440733 -0.273124
C96   C     C_3   0.647109 0.583346 0.528206 -0.253071
C97   C     C_R   0.745710 0.915503 0.423941 0.013150
C98   C     C_R   0.249472 0.939396 0.571775 0.001285
C99   C     C_R   0.245711 0.415503 0.423941 0.013054
C100  C     C_R   0.749470 0.439391 0.571777 0.001099
C101  C     C_R   0.729996 0.377932 0.352442 0.538221
C102  C     C_R   0.271846 0.375736 0.646455 0.550833
C103  C     C_R   0.229997 0.877933 0.352441 0.537053
C104  C     C_R   0.771846 0.875736 0.646455 0.551322
C105  C     C_R   0.565089 0.152822 0.360673 0.557079
C106  C     C_R   0.470291 0.157099 0.648124 0.544065
C107  C     C_R   0.065089 0.652822 0.360673 0.556975
C108  C     C_R   0.970291 0.657099 0.648124 0.544363
C109  C     C_R   0.740985 0.969177 0.353701 0.543156
C110  C     C_R   0.258161 0.972037 0.645575 0.540638
C111  C     C_R   0.240986 0.469177 0.353700 0.543695
C112  C     C_R   0.758160 0.472035 0.645576 0.541649
C113  C     C_R   0.503442 0.172721 0.922003 -0.001919
C114  C     C_R   0.512982 0.161292 0.070611 -0.002868
C115  C     C_R   0.002875 0.670947 0.922315 -0.009801
C116  C     C_R   0.011310 0.661155 0.071120 -0.007661
C117  C     C_R   0.493221 0.281031 0.963036 0.029400
C118  C     C_R   0.490892 0.271343 0.038170 0.012080
C119  C     C_R   0.995047 0.780500 0.962654 0.023396
C120  C     C_R   0.992148 0.772302 0.037853 0.006235
C121  C     C_R   0.533269 0.062009 0.027958 -0.156094
C122  C     C_R   0.528640 0.067749 0.954977 -0.167660
C123  C     C_R   0.027912 0.558960 0.029205 -0.150028
C124  C     C_R   0.023933 0.563909 0.956257 -0.165655
Cr1   Cr    Cr6+3 0.772010 0.169670 0.250090 1.030314
Cr2   Cr    Cr6+3 0.227990 0.169670 0.749910 1.026770
Cr3   Cr    Cr6+3 0.272010 0.669670 0.250090 1.026838
Cr4   Cr    Cr6+3 0.727990 0.669670 0.749910 1.025124
Cr5   Cr    Cr6+3 0.615000 0.323260 0.249260 1.004589
Cr6   Cr    Cr6+3 0.385000 0.323260 0.750740 1.004726
Cr7   Cr    Cr6+3 0.115000 0.823260 0.249260 1.004215
Cr8   Cr    Cr6+3 0.885000 0.823260 0.750740 1.004627
Cr9   Cr    Cr6+3 0.616710 0.010760 0.250840 1.008911
Cr10  Cr    Cr6+3 0.383290 0.010760 0.749160 1.025878
Cr11  Cr    Cr6+3 0.116710 0.510760 0.250840 1.009632
Cr12  Cr    Cr6+3 0.883290 0.510760 0.749160 1.023677
H1    H     H_    0.553311 0.978147 0.050913 0.150011
H2    H     H_    0.540608 0.986501 0.924494 0.133825
H3    H     H_    0.044976 0.473435 0.052614 0.151257
H4    H     H_    0.033090 0.480699 0.926584 0.139113
H5    H     H_    0.603446 0.327244 0.461235 0.134037
H6    H     H_    0.563322 0.331292 0.588098 0.120053
H7    H     H_    0.103451 0.827237 0.461237 0.134127
H8    H     H_    0.063327 0.831287 0.588100 0.119968
H9    H     H_    0.883142 0.544982 0.530964 0.143523
H10   H     H_    0.969110 0.398136 0.424023 0.174837
H11   H     H_    0.383147 0.044970 0.530963 0.143555
H12   H     H_    0.469121 0.898125 0.424027 0.174822
H13   H     H_    0.432926 0.898135 0.546524 0.163104
H14   H     H_    0.418344 0.042996 0.408549 0.149968
H15   H     H_    0.932918 0.398143 0.546522 0.163169
H16   H     H_    0.918338 0.543014 0.408549 0.149947
H17   H     H_    0.634719 0.937708 0.446796 0.143058
H18   H     H_    0.322991 0.790438 0.573394 0.125514
H19   H     H_    0.134719 0.437709 0.446796 0.143046
H20   H     H_    0.822987 0.290432 0.573396 0.125724
H21   H     H_    0.923645 0.837145 0.544564 0.159801
H22   H     H_    0.107200 0.020777 0.424789 0.161002
H23   H     H_    0.423646 0.337151 0.544564 0.159812
H24   H     H_    0.607199 0.520782 0.424790 0.160944
H25   H     H_    0.899726 0.002707 0.540550 0.154733
H26   H     H_    0.154238 0.169934 0.422350 0.147938
H27   H     H_    0.399724 0.502712 0.540549 0.154656
H28   H     H_    0.654241 0.669935 0.422353 0.147996
H29   H     H_    0.894124 0.984919 0.411622 0.200334
H30   H     H_    0.148182 0.177072 0.549494 0.168418
H31   H     H_    0.394122 0.484925 0.411623 0.200362
H32   H     H_    0.648184 0.677071 0.549497 0.168401
H33   H     H_    0.911195 0.818845 0.418486 0.143730
H34   H     H_    0.106486 0.023134 0.552065 0.132043
H35   H     H_    0.411196 0.318851 0.418485 0.143783
H36   H     H_    0.606484 0.523137 0.552067 0.132048
H37   H     H_    0.496519 0.415783 0.876545 0.134027
H38   H     H_    0.457917 0.365427 0.134966 0.135235
H39   H     H_    0.001450 0.912896 0.875162 0.133629
H40   H     H_    0.961053 0.870667 0.133825 0.135525
H41   H     H_    0.969620 0.089230 0.946033 0.100914
H42   H     H_    0.947860 0.068012 0.075070 0.109805
H43   H     H_    0.460650 0.587965 0.948615 0.101131
H44   H     H_    0.439449 0.562584 0.077538 0.113102
H45   H     H_    0.815442 0.103407 0.049257 0.145206
H46   H     H_    0.139231 0.907588 0.919934 0.130158
H47   H     H_    0.307165 0.613346 0.047347 0.133472
H48   H     H_    0.633989 0.435208 0.919398 0.132948
H49   H     H_    0.818320 0.077235 0.921631 0.138152
H50   H     H_    0.126932 0.884612 0.047842 0.162308
H51   H     H_    0.312690 0.582832 0.919633 0.127411
H52   H     H_    0.622312 0.410492 0.047339 0.158996
H53   H     H_    0.237853 0.170755 0.955051 0.163194
H54   H     H_    0.902636 0.322435 0.067837 0.133581
H55   H     H_    0.734417 0.669463 0.954348 0.159111
H56   H     H_    0.369147 0.772417 0.075324 0.139798
H57   H     H_    0.637140 0.692247 0.947963 0.142224
H58   H     H_    0.411382 0.925497 0.075268 0.148015
H59   H     H_    0.140134 0.187126 0.948955 0.145702
H60   H     H_    0.868290 0.482474 0.076046 0.139923
H61   H     H_    0.631587 0.723007 0.073700 0.142226
H62   H     H_    0.421697 0.916485 0.948223 0.165747
H63   H     H_    0.134315 0.219518 0.074607 0.142690
H64   H     H_    0.878561 0.509551 0.950525 0.165066
H65   H     H_    0.728518 0.697525 0.079966 0.138195
H66   H     H_    0.372791 0.769142 0.946544 0.118051
H67   H     H_    0.231720 0.199767 0.080680 0.141161
H68   H     H_    0.914907 0.350609 0.942138 0.136232
O1    O     O_R   0.787520 0.042810 0.170440 -0.531196
O2    O     O_R   0.212480 0.042810 0.829560 -0.529876
O3    O     O_R   0.287520 0.542810 0.170440 -0.532184
O4    O     O_R   0.712480 0.542810 0.829560 -0.532338
O5    O     O_R   0.556610 0.252880 0.323980 -0.503494
O6    O     O_R   0.443390 0.252880 0.676020 -0.517896
O7    O     O_R   0.056610 0.752880 0.323980 -0.503551
O8    O     O_R   0.943390 0.752880 0.676020 -0.517557
O9    O     O_R   0.545950 0.051210 0.330860 -0.518123
O10   O     O_R   0.454050 0.051210 0.669140 -0.489670
O11   O     O_R   0.045950 0.551210 0.330860 -0.518415
O12   O     O_R   0.954050 0.551210 0.669140 -0.488992
O13   O     O_R   0.681390 0.959480 0.325510 -0.528810
O14   O     O_R   0.318610 0.959480 0.674490 -0.508976
O15   O     O_R   0.181390 0.459480 0.325510 -0.528750
O16   O     O_R   0.818610 0.459480 0.674490 -0.507847
O17   O     O_3   0.667900 0.167900 0.250060 -0.274303
O18   O     O_3   0.332100 0.167900 0.749940 -0.251284
O19   O     O_3   0.167900 0.667900 0.250060 -0.272239
O20   O     O_3   0.832100 0.667900 0.749940 -0.251782
O21   O     O_R   0.765640 0.292100 0.175020 -0.499036
O22   O     O_R   0.234360 0.292100 0.824980 -0.499442
O23   O     O_R   0.265640 0.792100 0.175020 -0.504258
O24   O     O_R   0.734360 0.792100 0.824980 -0.499332
O25   O     O_R   0.670190 0.408840 0.168540 -0.526762
O26   O     O_R   0.329810 0.408840 0.831460 -0.521093
O27   O     O_R   0.170190 0.908840 0.168540 -0.525819
O28   O     O_R   0.829810 0.908840 0.831460 -0.521325
O29   O     O_R   0.556620 0.251410 0.175160 -0.506899
O30   O     O_R   0.443380 0.251410 0.824840 -0.512275
O31   O     O_R   0.056620 0.751410 0.175160 -0.506900
O32   O     O_R   0.943380 0.751410 0.824840 -0.511121
O33   O     O_R   0.545960 0.049620 0.170320 -0.520815
O34   O     O_R   0.454040 0.049620 0.829680 -0.520150
O35   O     O_R   0.045960 0.549620 0.170320 -0.519118
O36   O     O_R   0.954040 0.549620 0.829680 -0.522600
O37   O     O_R   0.681390 0.958010 0.176690 -0.498318
O38   O     O_R   0.318610 0.958010 0.823310 -0.498886
O39   O     O_R   0.181390 0.458010 0.176690 -0.498227
O40   O     O_R   0.818610 0.458010 0.823310 -0.501230
O41   O     O_R   0.787510 0.044390 0.330970 -0.494900
O42   O     O_R   0.212490 0.044390 0.669030 -0.516671
O43   O     O_R   0.287510 0.544390 0.330970 -0.494497
O44   O     O_R   0.712490 0.544390 0.669030 -0.516242
O45   O     O_R   0.765630 0.293570 0.323840 -0.485903
O46   O     O_R   0.234370 0.293570 0.676160 -0.490673
O47   O     O_R   0.265630 0.793570 0.323840 -0.486494
O48   O     O_R   0.734370 0.793570 0.676160 -0.490425
O49   O     O_R   0.670190 0.410420 0.329080 -0.532448
O50   O     O_R   0.329810 0.410420 0.670920 -0.523598
O51   O     O_R   0.170190 0.910420 0.329080 -0.533270
O52   O     O_R   0.829810 0.910420 0.670920 -0.523007
C125  C     C_1   0.632009 0.909738 0.588475 0.185297
N1    N     N_1   0.584334 0.907172 0.626540 -0.290663
C126  C     C_1   0.347246 0.762400 0.436434 0.219087
N2    N     N_1   0.390670 0.702180 0.412108 -0.339203
C127  C     C_1   0.132009 0.409739 0.588475 0.185169
N3    N     N_1   0.084334 0.407174 0.626539 -0.290523
C128  C     C_1   0.847243 0.262392 0.436438 0.218988
N4    N     N_1   0.890668 0.202173 0.412113 -0.339183

loop_
_geom_bond_atom_site_label_1
_geom_bond_atom_site_label_2
_ccdc_geom_bond_type
C87   H27   S    
C55   C56   A    
C88   C96   S    
C67   C83   A    
C93   H29   S    
C98   C110  S    
C116  C123  A    
C39   H67   S    
C78   C82   A    
Cr2   O42   S    
C103  O51   A    
C14   C18   A    
C41   C89   S    
Cr8   O8    S    
C73   C93   S    
C72   C76   A    
C7    H39   S    
C94   H30   S    
C75   C95   S    
C128  N4    T    
C74   C98   A    
C22   C42   A    
C53   C54   A    
C65   C69   A    
C15   C19   A    
Cr4   O20   S    
C93   H33   S    
Cr4   O48   S    
C17   C33   S    
C64   H16   S    
C59   H7    S    
C36   H54   S    
C30   H50   S    
C13   C29   A    
C16   C20   A    
C65   C104  S    
C45   O29   A    
Cr2   O46   S    
C5    C11   A    
Cr7   O19   S    
C6    C12   A    
C127  N3    T    
Cr7   O51   S    
C107  O7    A    
Cr6   O26   S    
C11   H43   S    
Cr7   O27   S    
Cr11  O19   S    
C22   C38   S    
Cr5   O25   S    
Cr2   O18   S    
C105  O5    A    
C28   C44   A    
C112  O44   A    
C125  N1    T    
C121  H1    S    
C4    C13   S    
Cr3   O3    S    
C85   H25   S    
Cr10  O38   S    
C86   C94   S    
Cr9   O37   S    
C79   C99   A    
C114  C121  A    
C85   C93   S    
C45   C114  S    
C89   O1    A    
C113  C122  A    
C40   H68   S    
C52   C107  S    
Cr11  O35   S    
C51   C108  S    
Cr10  O18   S    
C55   C63   S    
C70   C74   A    
C50   C105  S    
Cr9   O17   S    
C96   H32   S    
C84   C128  S    
C69   C73   A    
C99   C111  S    
C86   H26   S    
C89   O37   A    
C37   H61   S    
Cr1   O45   S    
C9    C10   A    
C67   C102  S    
Cr3   O47   S    
C44   C92   S    
Cr3   O19   S    
C123  C124  A    
C77   H17   S    
C34   H58   S    
C4    O24   A    
C72   C88   S    
C109  O41   A    
C59   C60   A    
C35   H53   S    
C62   H12   S    
C80   C100  A    
Cr3   O23   S    
Cr10  O34   S    
Cr8   O20   S    
C38   H62   S    
Cr2   O22   S    
Cr9   O33   S    
C14   C30   A    
C111  O15   A    
Cr1   O21   S    
Cr8   O28   S    
C75   C99   A    
C34   C38   S    
C108  O8    A    
C25   H45   S    
C80   H20   S    
C47   O31   A    
C38   H66   S    
C25   C29   A    
C47   C116  S    
C106  O10   A    
Cr11  O11   S    
C71   C75   A    
C105  O9    A    
C32   H52   S    
C27   C31   A    
C80   C84   A    
C10   H42   S    
C11   C12   A    
C20   C24   A    
C76   C100  A    
C28   C32   A    
Cr6   O18   S    
C86   H22   S    
C68   C101  S    
C122  H2    S    
Cr5   O17   S    
C3    O27   A    
C83   C127  S    
Cr12  O40   S    
C78   H18   S    
C20   C36   S    
C87   H23   S    
C6    H38   S    
C51   C55   A    
Cr7   O31   S    
C42   C90   S    
Cr10  O14   S    
C79   H19   S    
C15   C31   A    
Cr6   O30   S    
C43   C91   S    
C49   C58   A    
C116  C120  A    
Cr5   O29   S    
C68   C72   A    
C102  O50   A    
C68   C84   A    
C101  O49   A    
C19   C23   A    
C17   C21   A    
C36   H60   S    
C78   C98   A    
C92   O4    A    
C52   C59   A    
C7    C119  A    
C66   C82   A    
C97   C109  S    
C58   H6    S    
C65   C81   A    
Cr12  O20   S    
C36   C40   S    
Cr4   O24   S    
Cr3   O43   S    
Cr11  O15   S    
C46   O30   A    
C56   C64   S    
C112  O16   A    
Cr1   O17   S    
C107  O11   A    
C1    C16   S    
C108  O12   A    
C77   C97   A    
C2    C15   S    
C18   C34   S    
C63   H15   S    
C121  C122  A    
C114  C118  A    
Cr4   O44   S    
C40   H64   S    
C4    O28   A    
C48   C115  S    
C21   C41   A    
Cr6   O50   S    
C8    C10   A    
C12   H44   S    
Cr5   O49   S    
C73   C97   A    
C115  C119  A    
C94   H34   S    
C90   O38   A    
C102  O46   A    
Cr7   O7    S    
C24   C44   A    
C123  H3    S    
C71   C87   S    
Cr6   O6    S    
C3    C14   S    
Cr8   O52   S    
Cr5   O5    S    
C126  N2    T    
C70   C86   S    
C3    O23   A    
C26   H46   S    
C69   C85   S    
C8    C120  A    
C33   C37   S    
C113  C117  A    
C1    O21   A    
C104  O48   A    
C7    C9    A    
C27   C43   A    
C39   H63   S    
C87   C95   S    
C24   C40   S    
C115  C124  A    
C62   H14   S    
C46   C113  S    
C64   H10   S    
C82   C126  S    
C18   C22   A    
C50   C57   A    
C5    H37   S    
C66   C103  S    
C124  H4    S    
C101  O45   A    
C90   O2    A    
C91   O39   A    
C63   C64   S    
Cr11  O39   S    
C95   H31   S    
C91   O3    A    
C119  C120  A    
C8    H40   S    
C100  C112  S    
C49   C106  S    
Cr12  O16   S    
C35   H59   S    
C16   C32   A    
C45   O33   A    
C54   C62   S    
C48   O36   A    
C81   C125  S    
C104  O52   A    
C57   H5    S    
C33   H55   S    
Cr9   O9    S    
Cr12  O36   S    
C61   H11   S    
C103  O47   A    
C50   C54   A    
C88   H28   S    
C117  C118  A    
C60   H8    S    
C79   C83   A    
C92   O40   A    
C110  O42   A    
C57   C58   A    
C66   C70   A    
C61   H13   S    
C34   H56   S    
Cr2   O2    S    
C23   C39   S    
C35   C39   S    
Cr1   O1    S    
C48   O32   A    
C47   O35   A    
C29   H49   S    
C46   O34   A    
C67   C71   A    
C53   C61   S    
C88   H24   S    
C26   C42   A    
C28   H48   S    
C61   C62   S    
C110  O14   A    
C27   H47   S    
C49   C53   A    
C109  O13   A    
C2    O26   A    
C33   H57   S    
C13   C17   A    
Cr8   O32   S    
C1    O25   A    
C21   C37   S    
C2    O22   A    
Cr10  O10   S    
C111  O43   A    
C77   C81   A    
C96   H36   S    
C5    C117  A    
C74   C94   S    
C85   H21   S    
C37   H65   S    
C25   C41   A    
C19   C35   S    
C51   C60   A    
Cr4   O4    S    
Cr1   O41   S    
C31   H51   S    
C23   C43   A    
C95   H35   S    
C63   H9    S    
C76   C96   S    
C52   C56   A    
C9    H41   S    
C6    C118  A    
Cr9   O13   S    
Cr12  O12   S    
C26   C30   A    
C106  O6    A    
