data_mof_unit_36641.cif
_audit_creation_date              2012-12-11T16:17:52-0500
_audit_creation_method            fapswitch 2.2
_symmetry_space_group_name_H-M    P1
_symmetry_Int_Tables_number       1
_space_group_crystal_system       triclinic
_cell_length_a                    6.930143
_cell_length_b                    28.754626
_cell_length_c                    32.162118
_cell_angle_alpha                 101.170803
_cell_angle_beta                  89.462025
_cell_angle_gamma                 90.415436
_cell_volume                      6287.26368673

loop_
_atom_site_label
_atom_site_type_symbol
_atom_type_description
_atom_site_fract_x
_atom_site_fract_y
_atom_site_fract_z
_atom_type_partial_charge
O1    O     O_R   0.494350 0.453160 0.452490 -0.538981
O2    O     O_R   0.820990 0.455850 0.538220 -0.523121
O3    O     O_R   0.994300 0.546840 0.547510 -0.528453
C1    C     C_R   0.651813 0.446367 0.552074 0.765275
O4    O     O_R   0.823860 0.447580 0.452250 -0.536051
O5    O     O_R   0.997190 0.538510 0.460920 -0.523500
C2    C     C_R   0.654714 0.433990 0.436674 0.739487
O6    O     O_R   0.491450 0.461490 0.539080 -0.548990
O7    O     O_3   0.661790 0.529840 0.502950 -0.363056
V1    V     V_3+5 0.935470 0.494460 0.499450 1.479240
O8    O     O_R   0.327090 0.544150 0.461780 -0.530072
C3    C     C_R   0.158945 0.554351 0.448237 0.770204
O9    O     O_R   0.324210 0.552420 0.547750 -0.536031
C4    C     C_R   0.154994 0.565420 0.563705 0.721443
V2    V     V_3+5 0.435840 0.505540 0.500550 1.456340
O10   O     O_3   0.159650 0.470160 0.497050 -0.371077
C5    C     C_R   0.985256 0.605000 0.631290 0.315610
C6    C     C_R   0.974637 0.639609 0.668378 -0.165265
H1    H     H_    0.852497 0.639074 0.689553 0.173615
C7    C     C_R   0.116826 0.674661 0.678037 -0.106671
C8    C     C_R   0.274845 0.673738 0.650345 -0.145818
H2    H     H_    0.383353 0.701089 0.658108 0.159729
C9    C     C_R   0.291992 0.639033 0.612748 0.260116
C10   C     C_R   0.143714 0.603934 0.602661 -0.206140
N1    N     N_R   0.251682 0.742528 0.728783 -0.277328
N2    N     N_R   0.238954 0.776767 0.763078 -0.281172
C11   C     C_R   0.075131 0.782793 0.786998 0.540505
N3    N     N_R   0.924216 0.752823 0.775063 -0.272930
N4    N     N_R   0.937139 0.718413 0.740715 -0.277505
C12   C     C_R   0.101384 0.712514 0.716790 0.557963
C13   C     C_R   0.892007 0.830887 0.848862 -0.115230
H3    H     H_    0.762047 0.810680 0.839231 0.151708
C14   C     C_R   0.885107 0.867134 0.884973 -0.189449
H4    H     H_    0.750226 0.873517 0.902186 0.150354
C15   C     C_R   0.049984 0.894441 0.898989 -0.140066
C16   C     C_R   0.225029 0.883625 0.875771 0.348589
C17   C     C_R   0.228847 0.848224 0.839201 -0.135391
H5    H     H_    0.364261 0.841364 0.822080 0.159464
C18   C     C_R   0.064068 0.821132 0.825421 -0.053541
C19   C     C_R   0.146658 0.653964 0.279525 0.564206
N5    N     N_R   0.119627 0.672751 0.321792 -0.526317
C20   C     C_R   0.076597 0.719916 0.334973 0.609207
C21   C     C_R   0.066430 0.750307 0.305585 -0.044602
C22   C     C_R   0.094252 0.731493 0.262198 -0.014957
C23   C     C_R   0.132650 0.682838 0.248895 -0.034770
C24   C     C_R   0.029642 0.799006 0.318562 -0.143567
C25   C     C_R   0.022561 0.828648 0.288912 -0.134091
C26   C     C_R   0.049423 0.810235 0.245459 -0.033106
C27   C     C_R   0.083754 0.761425 0.232050 -0.015214
C28   C     C_R   0.107996 0.742503 0.188586 -0.034472
C29   C     C_R   0.144184 0.693747 0.175613 -0.136731
C30   C     C_R   0.157434 0.664348 0.205400 -0.139035
C31   C     C_R   0.043756 0.839526 0.215063 0.577623
N6    N     N_R   0.064783 0.820638 0.172598 -0.540908
C32   C     C_R   0.094827 0.772839 0.159131 0.579343
O11   O     O_2   0.189249 0.607614 0.267148 -0.526820
O12   O     O_2   0.042701 0.737402 0.376416 -0.527552
H6    H     H_    0.007733 0.814487 0.351727 0.171814
H7    H     H_    0.995269 0.866024 0.300177 0.173788
O13   O     O_2   0.019826 0.886647 0.228035 -0.522306
O14   O     O_2   0.109869 0.754475 0.117333 -0.522627
H8    H     H_    0.163634 0.678156 0.142400 0.174378
H9    H     H_    0.186768 0.627061 0.194193 0.173272
C33   C     C_R   0.207137 0.852925 0.112997 -0.177484
H10   H     H_    0.331897 0.830607 0.113665 0.146640
C34   C     C_R   0.198557 0.882104 0.082662 0.187595
C35   C     C_R   0.038999 0.912857 0.082460 -0.116170
C36   C     C_R   0.887226 0.912052 0.112342 0.181589
C37   C     C_R   0.894857 0.880541 0.140689 -0.168293
H11   H     H_    0.776565 0.879534 0.162765 0.147917
C38   C     C_R   0.055337 0.851432 0.141841 0.310027
C39   C     C_R   0.277051 0.651657 0.384783 0.267376
C40   C     C_R   0.281018 0.624008 0.416983 0.129907
C41   C     C_R   0.150683 0.585411 0.415796 -0.149355
C42   C     C_R   0.012353 0.576495 0.382962 0.199194
C43   C     C_R   0.006885 0.605007 0.352214 -0.263248
H12   H     H_    0.899674 0.597872 0.327452 0.161360
C44   C     C_R   0.136386 0.642567 0.352853 0.286863
C45   C     C_R   0.573189 0.226874 0.840141 0.621567
N7    N     N_R   0.567140 0.178566 0.826453 -0.539016
C46   C     C_R   0.564365 0.159345 0.783962 0.587989
C47   C     C_R   0.573215 0.188674 0.753678 0.001868
C48   C     C_R   0.571620 0.238389 0.767221 -0.058619
C49   C     C_R   0.562722 0.258011 0.810899 -0.169161
C50   C     C_R   0.582884 0.169231 0.710155 -0.137683
C51   C     C_R   0.594203 0.198524 0.680394 -0.133568
C52   C     C_R   0.593038 0.248070 0.693295 0.006024
C53   C     C_R   0.579437 0.268241 0.736872 -0.089354
C54   C     C_R   0.575399 0.317990 0.749916 -0.140273
C55   C     C_R   0.561988 0.337944 0.793771 0.387162
C56   C     C_R   0.548714 0.308028 0.823954 0.273346
C57   C     C_R   0.606791 0.277848 0.663444 0.572599
N8    N     N_R   0.600637 0.326162 0.676167 -0.563560
C58   C     C_R   0.582406 0.346424 0.718354 0.649258
O15   O     O_2   0.596512 0.244567 0.881800 -0.495244
O16   O     O_2   0.552180 0.111913 0.770903 -0.516030
H13   H     H_    0.584035 0.131211 0.698891 0.173805
H14   H     H_    0.603563 0.182115 0.647159 0.172857
O17   O     O_2   0.628839 0.258518 0.621979 -0.518462
O18   O     O_2   0.568349 0.393970 0.729581 -0.471763
C59   C     C_R   0.758581 0.391444 0.648025 -0.149096
H15   H     H_    0.859394 0.396052 0.674060 0.148857
C60   C     C_R   0.772600 0.421175 0.618153 0.232184
C61   C     C_R   0.642099 0.415364 0.583953 -0.082158
C62   C     C_R   0.499128 0.380001 0.580770 -0.284531
H16   H     H_    0.397919 0.374834 0.554801 0.151335
C63   C     C_R   0.484884 0.350973 0.610959 -0.085401
H17   H     H_    0.371374 0.324502 0.608105 0.152506
C64   C     C_R   0.615032 0.356198 0.644803 0.319825
C65   C     C_R   0.698541 0.111513 0.855601 -0.071071
H18   H     H_    0.809053 0.106650 0.831124 0.172480
C66   C     C_R   0.689472 0.080034 0.883861 0.316251
C67   C     C_R   0.549855 0.086896 0.917340 -0.257637
C68   C     C_R   0.418126 0.125272 0.920149 0.313602
C69   C     C_R   0.421319 0.153580 0.889286 -0.080989
H19   H     H_    0.315736 0.181514 0.891071 0.167535
C70   C     C_R   0.562532 0.147699 0.857261 0.200942
C71   C     C_R   0.473509 0.367873 0.386567 0.357810
C72   C     C_R   0.475643 0.329506 0.352203 -0.172306
H20   H     H_    0.342895 0.310004 0.344034 0.192171
C73   C     C_R   0.641775 0.317458 0.327224 -0.130621
C74   C     C_R   0.814536 0.342983 0.339439 0.329659
C75   C     C_R   0.814179 0.380069 0.375202 -0.205175
H21   H     H_    0.948054 0.398467 0.384359 0.165934
C76   C     C_R   0.645327 0.393917 0.398901 -0.212444
N9    N     N_R   0.731686 0.282427 0.252659 -0.285415
N10   N     N_R   0.711696 0.249840 0.217261 -0.280719
C77   C     C_R   0.583642 0.213462 0.215420 0.513054
N11   N     N_R   0.478926 0.210756 0.250853 -0.256668
N12   N     N_R   0.499011 0.243346 0.286250 -0.272287
C78   C     C_R   0.626605 0.279833 0.288065 0.525605
C79   C     C_R   0.384901 0.153629 0.163085 0.379660
C80   C     C_R   0.378654 0.117274 0.126912 -0.150299
H22   H     H_    0.242012 0.099712 0.118137 0.133175
C81   C     C_R   0.544290 0.103944 0.101958 -0.140105
C82   C     C_R   0.718603 0.127737 0.114120 -0.154017
H23   H     H_    0.849093 0.118567 0.095644 0.139847
C83   C     C_R   0.727171 0.163838 0.150204 -0.140189
H24   H     H_    0.864280 0.181162 0.158604 0.183661
C84   C     C_R   0.562932 0.176903 0.175726 -0.079586
O19   O     O_R   0.699050 0.038480 0.960880 -0.527552
O20   O     O_R   0.366680 0.052470 0.047720 -0.549517
O21   O     O_R   0.193410 0.961530 0.039110 -0.522282
C85   C     C_R   0.535184 0.065369 0.063569 0.701919
O22   O     O_R   0.369510 0.044100 0.961740 -0.521267
O23   O     O_R   0.196260 0.953110 0.952520 -0.528132
C86   C     C_R   0.539087 0.054333 0.948331 0.719650
O24   O     O_R   0.696210 0.046900 0.047470 -0.537903
O25   O     O_3   0.528780 0.970170 0.997070 -0.361239
V3    V     V_3+5 0.255080 0.005530 0.000540 1.492020
O26   O     O_R   0.866350 0.947520 0.952280 -0.546422
C87   C     C_R   0.036411 0.934081 0.936758 0.713262
O27   O     O_R   0.863520 0.955880 0.038260 -0.523537
C88   C     C_R   0.031518 0.945583 0.051604 0.741665
V4    V     V_3+5 0.754720 0.994440 0.999470 1.475048
O28   O     O_3   0.030880 0.029830 0.002930 -0.364995
O29   O     O_3   0.842346 0.571097 0.624794 -0.625764
H25   H     H_    0.760793 0.578896 0.601967 0.321439
N13   N     N_2   0.350644 0.879805 0.052207 -0.488632
H26   H     H_    0.482529 0.870768 0.062868 0.257130
C89   C     C_3   0.305744 0.851865 0.010940 -0.476826
H27   H     H_    0.284666 0.814065 0.013161 0.200151
H28   H     H_    0.426876 0.854457 0.988635 0.176827
H29   H     H_    0.173341 0.865057 0.997982 0.165865
N14   N     N_2   0.727443 0.943402 0.114792 -0.504927
H30   H     H_    0.600945 0.929828 0.124870 0.254095
C90   C     C_3   0.765740 0.990918 0.137893 -0.453612
H31   H     H_    0.798448 0.990224 0.171535 0.205027
H32   H     H_    0.636631 0.013303 0.136898 0.182943
H33   H     H_    0.888977 0.007176 0.123488 0.177256
N15   N     N_2   0.409603 0.689820 0.384816 -0.489504
H34   H     H_    0.447943 0.708672 0.414162 0.278452
C91   C     C_3   0.573135 0.678241 0.356654 -0.524006
H35   H     H_    0.666329 0.652505 0.368408 0.184283
H36   H     H_    0.657850 0.710898 0.355648 0.224803
H37   H     H_    0.525260 0.663003 0.323965 0.212429
N16   N     N_2   0.408024 0.636810 0.451868 -0.504265
H38   H     H_    0.545781 0.645481 0.443526 0.266314
C92   C     C_3   0.326671 0.671355 0.486222 -0.558387
H39   H     H_    0.269078 0.702370 0.474516 0.210130
H40   H     H_    0.440191 0.684564 0.509718 0.199067
H41   H     H_    0.207793 0.654951 0.501903 0.185663
N17   N     N_2   0.877383 0.538594 0.380262 -0.491178
H42   H     H_    0.741998 0.547002 0.370936 0.254470
C93   C     C_3   0.945958 0.494368 0.355492 -0.535480
H43   H     H_    0.984290 0.498652 0.322793 0.208762
H44   H     H_    0.830094 0.467276 0.353342 0.184654
H45   H     H_    0.073938 0.481918 0.370696 0.175432
O30   O     O_3   0.557495 0.386791 0.806383 -0.585477
H46   H     H_    0.562526 0.395981 0.837630 0.350236
O31   O     O_3   0.514496 0.328692 0.865715 -0.610800
H47   H     H_    0.405972 0.311078 0.875879 0.335116
N18   N     N_2   0.908682 0.459090 0.624424 -0.495529
H48   H     H_    0.903047 0.479214 0.654672 0.287271
C94   C     C_3   0.103821 0.445054 0.611933 -0.449384
H49   H     H_    0.196650 0.477103 0.614447 0.196820
H50   H     H_    0.108098 0.425566 0.578572 0.201479
H51   H     H_    0.162068 0.422212 0.633001 0.181342
O32   O     O_3   0.816972 0.042641 0.876825 -0.616441
H52   H     H_    0.755526 0.015133 0.886059 0.305841
O33   O     O_3   0.285986 0.137020 0.952781 -0.616640
H53   H     H_    0.341064 0.128974 0.978764 0.292449
O34   O     O_3   0.301698 0.378101 0.407848 -0.628639
H54   H     H_    0.270032 0.411062 0.405650 0.281399
N19   N     N_2   0.993273 0.329947 0.318339 -0.512684
H55   H     H_    0.006482 0.294918 0.303699 0.282170
C95   C     C_3   0.069482 0.363194 0.293815 -0.510463
H56   H     H_    0.209561 0.350079 0.279208 0.202925
H57   H     H_    0.095048 0.398300 0.314478 0.186174
H58   H     H_    0.967624 0.367040 0.268241 0.218391
O35   O     O_3   0.213376 0.165649 0.184371 -0.643263
H59   H     H_    0.219030 0.199523 0.198124 0.304415
N20   N     N_2   0.455022 0.639211 0.584893 -0.512468
H60   H     H_    0.423989 0.631053 0.553170 0.271597
C96   C     C_3   0.605559 0.674758 0.594672 -0.576476
H61   H     H_    0.723757 0.666789 0.570837 0.193820
H62   H     H_    0.667724 0.674272 0.626223 0.217028
H63   H     H_    0.547500 0.710422 0.593640 0.202903
O36   O     O_3   0.394715 0.907330 0.887428 -0.640068
H64   H     H_    0.426336 0.900763 0.915713 0.280226

loop_
_geom_bond_atom_site_label_1
_geom_bond_atom_site_label_2
_ccdc_geom_bond_type
C22   C27   A    
O34   H54   S    
C19   N5    A    
N8    C58   A    
C94   H50   S    
C3    C41   S    
N5    C20   A    
N6    C32   A    
C61   C62   A    
C15   C16   A    
C1    O6    A    
C42   N17   S    
C77   N11   A    
C68   C69   A    
C55   C56   A    
C75   H21   S    
C90   H32   S    
C7    C12   S    
C31   N6    A    
C62   C63   A    
N2    C11   A    
N14   H30   S    
N9    N10   A    
C35   C88   S    
N3    N4    A    
C17   H5    S    
C43   C44   A    
N11   N12   A    
C37   H11   S    
C96   H62   S    
N13   H26   S    
C50   C51   A    
C45   C49   A    
C93   H44   S    
C59   C64   A    
V2    O10   S    
C1    C61   S    
C20   O12   S    
C6    H1    S    
O33   H53   S    
C33   C38   A    
C4    C10   S    
C54   C58   A    
C37   C38   A    
C71   C72   A    
C66   C67   A    
C39   C44   A    
C74   C75   A    
O22   C86   A    
C65   H18   S    
O8    V2    S    
O21   V3    S    
N6    C38   S    
C48   C49   A    
C11   C18   S    
C36   C37   A    
C69   C70   A    
C95   H58   S    
O26   C87   A    
N13   C89   S    
O1    V2    S    
C71   C76   A    
O26   V4    S    
O27   V4    S    
C5    O29   S    
O7    V1    S    
C66   O32   S    
O22   V3    S    
N18   H48   S    
C50   H13   S    
C85   O24   A    
C92   H41   S    
C40   N16   S    
C36   N14   S    
C72   C73   A    
C48   C53   A    
O32   H52   S    
C59   C60   A    
C91   H35   S    
C8    H2    S    
C24   H6    S    
O29   H25   S    
C63   C64   A    
C74   N19   S    
C19   C23   A    
C29   H8    S    
C73   C78   S    
C79   O35   S    
C65   C70   A    
C34   N13   S    
C89   H28   S    
C31   O13   S    
C46   C47   A    
C90   H33   S    
C95   H56   S    
C91   H36   S    
C40   C41   A    
C26   C31   A    
V4    O28   S    
C5    C10   A    
C41   C42   A    
C35   C36   A    
C59   H15   S    
C81   C82   A    
C14   H4    S    
C43   H12   S    
C82   C83   A    
C96   H63   S    
N5    C44   S    
O4    C2    A    
C46   O16   S    
C16   O36   S    
C51   C52   A    
N7    C46   A    
O21   C88   A    
C94   H49   S    
C23   C30   A    
C19   O11   S    
N1    N2    A    
N20   H60   S    
C56   O31   S    
O31   H47   S    
C33   C34   A    
O2    C1    A    
C42   C43   A    
C39   N15   S    
O35   H59   S    
C45   O15   S    
N4    C12   A    
N17   C93   S    
N15   C91   S    
C13   H3    S    
C58   O18   S    
C63   H17   S    
C7    C8    A    
N18   C94   S    
C5    C6    A    
C68   O33   S    
N17   H42   S    
C28   C29   A    
C2    C76   S    
C93   H45   S    
N15   H34   S    
C73   C74   A    
C34   C35   A    
O3    C4    A    
C83   C84   A    
O23   C87   A    
C81   C85   S    
O24   V4    S    
N16   H38   S    
O6    V2    S    
O9    V2    S    
C21   C22   A    
C80   H22   S    
C27   C28   A    
O20   C85   A    
C71   O34   S    
C20   C21   A    
N10   C77   A    
O2    V1    S    
C90   H31   S    
C89   H29   S    
C52   C57   A    
C22   C23   A    
C95   H57   S    
C67   C68   A    
C9    N20   S    
C91   H37   S    
N1    C12   A    
O36   H64   S    
N19   H55   S    
C24   C25   A    
C16   C17   A    
C13   C14   A    
O1    C2    A    
O19   V4    S    
C39   C40   A    
C25   C26   A    
C30   H9    S    
O5    V1    S    
C72   H20   S    
O23   V3    S    
C92   H39   S    
C79   C84   A    
C47   C50   A    
C62   H16   S    
C28   C32   A    
C33   H10   S    
O20   V3    S    
C8    C9    A    
N12   C78   A    
O25   V4    S    
N20   C96   S    
C29   C30   A    
C17   C18   A    
O3    V1    S    
C89   H27   S    
O25   V3    S    
O5    C3    A    
C67   C86   S    
C93   H43   S    
V1    O10   S    
N9    C78   A    
C49   C56   A    
C26   C27   A    
C32   O14   S    
N7    C70   S    
C57   N8    A    
C14   C15   A    
N16   C92   S    
C79   C80   A    
C6    C7    A    
C96   H61   S    
O7    V2    S    
O30   H46   S    
C51   H14   S    
C21   C24   A    
C65   C66   A    
O27   C88   A    
C75   C76   A    
C83   H24   S    
O19   C86   A    
C9    C10   A    
C25   H7    S    
C45   N7    A    
C94   H51   S    
O4    V1    S    
C53   C54   A    
C57   O17   S    
C52   C53   A    
N14   C90   S    
C47   C48   A    
C15   C87   S    
C60   C61   A    
C13   C18   A    
C80   C81   A    
C82   H23   S    
V3    O28   S    
C60   N18   S    
C92   H40   S    
C54   C55   A    
O9    C4    A    
N19   C95   S    
C69   H19   S    
O8    C3    A    
N8    C64   S    
C77   C84   S    
C11   N3    A    
C55   O30   S    
