data_mof_unit_53414.cif
_audit_creation_date              2012-12-11T15:31:46-0500
_audit_creation_method            fapswitch 2.2
_symmetry_space_group_name_H-M    P1
_symmetry_Int_Tables_number       1
_space_group_crystal_system       triclinic
_cell_length_a                    13.571766
_cell_length_b                    13.595683
_cell_length_c                    27.668427
_cell_angle_alpha                 90.694873
_cell_angle_beta                  90.120901
_cell_angle_gamma                 119.973226
_cell_volume                      4421.9960106

loop_
_atom_site_label
_atom_site_type_symbol
_atom_type_description
_atom_site_fract_x
_atom_site_fract_y
_atom_site_fract_z
_atom_type_partial_charge
C1    C     C_R   0.619261 0.898538 0.431118 0.544468
C2    C     C_R   0.606451 0.370535 0.216406 0.293814
C3    C     C_R   0.600901 0.355953 0.267260 -0.112119
C4    C     C_R   0.657471 0.306351 0.289771 -0.005470
C5    C     C_R   0.669899 0.333400 0.189227 0.052366
C6    C     C_1   0.685442 0.356762 0.138158 -0.003219
C7    C     C_1   0.645453 0.286228 0.341035 -0.057973
C8    C     C_1   0.698439 0.386292 0.096585 0.012494
C9    C     C_1   0.234789 0.862632 0.382192 -0.013918
C10   C     C_R   0.226638 0.940279 0.260869 -0.131328
C11   C     C_R   0.211250 0.931227 0.210762 -0.176649
C12   C     C_R   0.599339 0.217800 0.431117 0.538243
C13   C     C_R   0.122100 0.724950 0.214859 0.293819
C14   C     C_R   0.137872 0.735821 0.265804 -0.112234
C15   C     C_R   0.188007 0.842669 0.288534 -0.005585
C16   C     C_R   0.158567 0.824440 0.187847 0.053191
C17   C     C_1   0.133395 0.814762 0.136697 -0.002459
C18   C     C_1   0.209194 0.852678 0.339917 -0.058485
C19   C     C_1   0.101950 0.796748 0.095062 0.011785
C20   C     C_1   0.633779 0.867533 0.383047 -0.014897
C21   C     C_R   0.552808 0.777378 0.261345 -0.131284
C22   C     C_R   0.560533 0.769535 0.211288 -0.176606
C23   C     C_R   0.279946 0.878808 0.430399 0.539261
C24   C     C_R   0.767183 0.887854 0.216486 0.293655
C25   C     C_R   0.757688 0.894383 0.267368 -0.111834
C26   C     C_R   0.651313 0.837729 0.289525 -0.005404
C27   C     C_R   0.666855 0.823444 0.188953 0.052992
C28   C     C_1   0.675122 0.806146 0.137887 -0.002602
C29   C     C_1   0.642593 0.850457 0.340841 -0.058358
C30   C     C_1   0.691331 0.790841 0.096329 0.012359
C31   C     C_R   0.637419 0.271512 0.617126 0.033247
C32   C     C_R   0.712561 0.247994 0.642784 -0.127482
C33   C     C_R   0.720779 0.259948 0.692447 -0.112590
C34   C     C_R   0.619418 0.902314 0.569667 0.541926
C35   C     C_R   0.657770 0.300084 0.717131 0.040363
C36   C     C_R   0.591453 0.334570 0.691079 -0.112217
C37   C     C_R   0.580956 0.319848 0.641158 -0.106310
C38   C     C_R   0.567061 0.286035 0.796674 -0.091908
C39   C     C_R   0.578166 0.313634 0.845620 -0.084230
C40   C     C_R   0.778509 0.371058 0.842405 -0.101668
C41   C     C_R   0.767774 0.345190 0.793573 -0.067389
C42   C     C_R   0.663516 0.308304 0.769884 0.055158
C43   C     C_R   0.685687 0.363120 0.867855 0.027521
C44   C     C_R   0.231881 0.868468 0.616894 -0.019088
C45   C     C_R   0.601367 0.221974 0.568912 0.548875
C46   C     C_R   0.269320 0.964137 0.647844 0.207898
C47   C     C_R   0.254510 0.948209 0.697346 -0.125906
C48   C     C_R   0.192147 0.839551 0.716205 -0.014534
C49   C     C_R   0.147673 0.743095 0.685353 0.254418
C50   C     C_R   0.162776 0.758782 0.635043 0.197154
C51   C     C_R   0.193887 0.761493 0.796572 -0.123571
C52   C     C_R   0.160809 0.742944 0.844589 -0.144069
C53   C     C_R   0.083655 0.868971 0.837265 -0.116556
C54   C     C_R   0.118258 0.889899 0.789151 0.270188
C55   C     C_R   0.167597 0.829867 0.768045 0.081430
C56   C     C_R   0.280740 0.882483 0.568554 0.581241
C57   C     C_R   0.102072 0.793668 0.864627 -0.021278
C58   C     C_R   0.631553 0.871023 0.618748 0.021229
C59   C     C_R   0.736654 0.926541 0.643082 -0.135162
C60   C     C_R   0.741506 0.912369 0.692653 -0.068596
C61   C     C_R   0.641036 0.845484 0.718351 0.075644
C62   C     C_R   0.536839 0.787633 0.693764 -0.126090
C63   C     C_R   0.532237 0.799038 0.644342 -0.129562
C64   C     C_R   0.703383 0.918910 0.803104 0.226077
C65   C     C_R   0.718918 0.896506 0.850621 -0.137175
C66   C     C_R   0.604051 0.693458 0.834316 0.220658
C67   C     C_1   0.629088 0.261626 0.383157 -0.013984
C68   C     C_R   0.591766 0.716275 0.786677 -0.128325
C69   C     C_R   0.644944 0.827925 0.770232 0.004845
C70   C     C_R   0.674285 0.784169 0.866142 -0.008080
C71   C     C_R   0.050102 0.761656 0.048041 0.546285
C72   C     C_R   0.713966 0.435262 0.049555 0.541096
C73   C     C_R   0.723261 0.771339 0.049313 0.543259
C74   C     C_R   0.044412 0.755753 0.910776 0.549225
C75   C     C_R   0.707119 0.426822 0.913044 0.552195
C76   C     C_R   0.716919 0.764801 0.911780 0.564620
C77   C     C_R   0.717045 0.267182 0.261924 -0.130713
C78   C     C_R   0.723838 0.281246 0.211891 -0.176784
Cr1   Cr    Cr6+3 0.417720 0.831920 0.499820 1.030825
Cr2   Cr    Cr6+3 0.668190 0.085770 0.500360 1.010444
Cr3   Cr    Cr6+3 0.414060 0.082260 0.499840 1.028320
Cr4   Cr    Cr6+3 0.908000 0.821090 0.979770 1.030591
Cr5   Cr    Cr6+3 0.912420 0.571130 0.979880 1.036013
Cr6   Cr    Cr6+3 0.657970 0.566940 0.980940 1.086124
H1    H     H_    0.757630 0.225079 0.278938 0.125685
H2    H     H_    0.483638 0.720605 0.189969 0.118173
H3    H     H_    0.831171 0.944320 0.290256 0.098032
H4    H     H_    0.757829 0.210862 0.625217 0.139445
H5    H     H_    0.484621 0.252900 0.779344 0.101776
H6    H     H_    0.504779 0.304132 0.865057 0.158191
H7    H     H_    0.772517 0.232755 0.711543 0.158600
H8    H     H_    0.843207 0.362076 0.773952 0.110228
H9    H     H_    0.862194 0.407434 0.858894 0.134354
H10   H     H_    0.545694 0.370227 0.709360 0.109528
H11   H     H_    0.771829 0.252154 0.190834 0.117642
H12   H     H_    0.524771 0.340828 0.621717 0.114304
H13   H     H_    0.237960 0.720663 0.781506 0.122769
H14   H     H_    0.176851 0.685322 0.865395 0.142887
H15   H     H_    0.291430 0.021833 0.721336 0.140186
H16   H     H_    0.036341 0.906632 0.852256 0.136194
H17   H     H_    0.814076 0.982751 0.624104 0.117622
H18   H     H_    0.769593 0.967229 0.875014 0.162453
H19   H     H_    0.823237 0.954120 0.710997 0.145444
H20   H     H_    0.544380 0.645753 0.761724 0.140633
H21   H     H_    0.458631 0.734894 0.712985 0.095921
H22   H     H_    0.449468 0.756256 0.626799 0.139795
H23   H     H_    0.551728 0.380495 0.289859 0.098004
H24   H     H_    0.269306 0.023451 0.278103 0.125537
H25   H     H_    0.239605 0.007467 0.189864 0.117916
H26   H     H_    0.113817 0.663048 0.288328 0.098142
H27   H     H_    0.469973 0.736976 0.278139 0.125520
O1    O     O_R   0.302900 0.805360 0.446400 -0.508746
O2    O     O_R   0.657980 0.180990 0.549630 -0.515194
O3    O     O_R   0.503420 0.197810 0.553190 -0.484870
O4    O     O_R   0.320350 0.978840 0.548910 -0.467146
O5    O     O_3   0.499990 0.999990 0.500010 -0.247756
O6    O     O_R   0.819150 0.845650 0.033320 -0.497321
O7    O     O_R   0.006060 0.815720 0.028680 -0.495984
O8    O     O_R   0.028100 0.664460 0.032550 -0.494825
O9    O     O_R   0.811290 0.477490 0.029660 -0.497922
O10   O     O_R   0.638120 0.455970 0.034270 -0.499129
O11   O     O_R   0.667540 0.672320 0.030160 -0.498097
O12   O     O_R   0.522090 0.841370 0.450730 -0.494712
O13   O     O_R   0.814460 0.840990 0.926980 -0.536420
O14   O     O_R   0.001710 0.811400 0.930110 -0.506981
O15   O     O_R   0.023410 0.659800 0.926210 -0.514227
O16   O     O_R   0.806940 0.473170 0.931090 -0.512260
O17   O     O_R   0.633420 0.451310 0.927930 -0.467200
O18   O     O_R   0.663190 0.668000 0.931580 -0.431862
O19   O     O_3   0.826130 0.653050 0.980200 -0.256282
O20   O     O_R   0.693280 0.995650 0.447220 -0.508789
O21   O     O_R   0.657260 0.178740 0.451050 -0.497435
O22   O     O_R   0.502640 0.195380 0.446850 -0.513457
O23   O     O_R   0.319630 0.976590 0.450330 -0.503293
O24   O     O_R   0.303680 0.807790 0.552740 -0.485096
O25   O     O_R   0.522820 0.843620 0.549310 -0.508207
O26   O     O_R   0.694060 0.998080 0.553560 -0.521324
O27   O     O_3   0.868754 0.947612 0.190996 -0.569018
C79   C     C_3   0.968740 0.978911 0.218140 0.014836
H28   H     H_    0.030434 0.974787 0.193132 0.164183
H29   H     H_    0.956519 0.918534 0.247470 0.119985
C80   C     C_3   0.021133 0.102001 0.236522 -0.269095
H30   H     H_    0.042891 0.159493 0.205202 0.175856
H31   H     H_    0.959367 0.112688 0.258928 0.156908
C81   C     C_3   0.128441 0.137235 0.266414 -0.490501
H32   H     H_    0.110510 0.077017 0.296353 0.153813
H33   H     H_    0.159558 0.223027 0.282320 0.141800
H34   H     H_    0.196068 0.139929 0.243055 0.145529
O28   O     O_3   0.329670 0.073529 0.630230 -0.531071
C82   C     C_3   0.264847 0.128687 0.635347 0.022788
H35   H     H_    0.323987 0.221464 0.632905 0.135881
H36   H     H_    0.223705 0.115248 0.671258 0.123515
C83   C     C_3   0.175479 0.092965 0.594851 -0.252344
H37   H     H_    0.218570 0.114337 0.559272 0.177338
H38   H     H_    0.116287 0.999789 0.595712 0.149120
C84   C     C_3   0.106429 0.153025 0.600430 -0.493276
H39   H     H_    0.060954 0.131098 0.635466 0.148720
H40   H     H_    0.042579 0.125670 0.570711 0.150181
H41   H     H_    0.163076 0.246526 0.598816 0.141652
O29   O     O_3   0.091964 0.957526 0.760774 -0.582074
C85   C     C_3   0.134778 0.067461 0.781698 -0.021768
H42   H     H_    0.191606 0.130852 0.755120 0.127792
H43   H     H_    0.187837 0.083751 0.814979 0.120055
C86   C     C_3   0.036335 0.088832 0.792106 -0.242674
H44   H     H_    0.997664 0.093089 0.757332 0.182368
H45   H     H_    0.969845 0.017710 0.813179 0.190990
C87   C     C_3   0.076738 0.199519 0.820556 -0.463480
H46   H     H_    0.107755 0.193334 0.856949 0.154143
H47   H     H_    0.005074 0.216196 0.825003 0.193698
H48   H     H_    0.146553 0.271703 0.801222 0.149441
O30   O     O_3   0.079609 0.635774 0.704091 -0.558380
C88   C     C_3   0.132435 0.569246 0.697752 0.021898
H49   H     H_    0.218176 0.610731 0.715134 0.102101
H50   H     H_    0.141974 0.554405 0.658981 0.190673
C89   C     C_3   0.058089 0.453512 0.720452 -0.256947
H51   H     H_    0.053405 0.464505 0.760102 0.168257
H52   H     H_    0.970974 0.414834 0.704759 0.174256
C90   C     C_3   0.104543 0.373543 0.710843 -0.498962
H53   H     H_    0.190173 0.408111 0.727625 0.148483
H54   H     H_    0.110209 0.361678 0.671355 0.142536
H55   H     H_    0.046263 0.289433 0.726509 0.163101
O31   O     O_3   0.111603 0.666707 0.603523 -0.569493
C91   C     C_3   0.002418 0.647837 0.591268 0.020247
H56   H     H_    0.009801 0.720671 0.570279 0.115535
H57   H     H_    0.950802 0.636431 0.624251 0.165908
C92   C     C_3   0.940814 0.539793 0.560210 -0.250683
H58   H     H_    0.992226 0.548340 0.527655 0.177130
H59   H     H_    0.930989 0.466326 0.581285 0.169232
C93   C     C_3   0.823547 0.517266 0.544234 -0.482328
H60   H     H_    0.770154 0.507227 0.576216 0.148220
H61   H     H_    0.780903 0.438039 0.522008 0.153927
H62   H     H_    0.831545 0.588525 0.522135 0.146046
O32   O     O_3   0.546557 0.412048 0.190547 -0.568760
C94   C     C_3   0.515391 0.480944 0.217608 0.014919
H63   H     H_    0.518792 0.545956 0.192727 0.164260
H64   H     H_    0.576426 0.529924 0.247373 0.119911
C95   C     C_3   0.392469 0.410344 0.235119 -0.268626
H65   H     H_    0.334259 0.373851 0.203387 0.175996
H66   H     H_    0.382380 0.338531 0.257292 0.156835
C96   C     C_3   0.357558 0.482685 0.264985 -0.490486
H67   H     H_    0.418539 0.525814 0.295329 0.153983
H68   H     H_    0.272062 0.428171 0.280329 0.141945
H69   H     H_    0.354013 0.546790 0.241746 0.145533
Cl1   Cl    Cl    0.757067 0.061263 0.786371 -0.712249
Cl2   Cl    Cl    0.535894 0.549088 0.849939 -0.626982
O33   O     O_3   0.079776 0.622712 0.188813 -0.568559
C97   C     C_3   0.011865 0.523704 0.215585 0.015139
H70   H     H_    0.946237 0.460915 0.190383 0.163713
H71   H     H_    0.963360 0.536587 0.245001 0.120390
C98   C     C_3   0.083539 0.472780 0.233642 -0.268840
H72   H     H_    0.118572 0.449128 0.202160 0.175523
H73   H     H_    0.156563 0.535959 0.255794 0.157388
C99   C     C_3   0.012651 0.367599 0.263767 -0.490835
H74   H     H_    0.971323 0.387460 0.293974 0.153871
H75   H     H_    0.068007 0.337514 0.279308 0.141685
H76   H     H_    0.946980 0.298542 0.240691 0.146127

loop_
_geom_bond_atom_site_label_1
_geom_bond_atom_site_label_2
_ccdc_geom_bond_type
Cr6   O17   S    
C48   C55   S    
C66   C68   A    
C21   C26   A    
C51   H13   S    
Cr2   O21   S    
C72   O10   A    
C11   H25   S    
C41   C42   A    
C54   C55   A    
C15   C18   S    
C10   H24   S    
C35   C36   A    
C84   H41   S    
C24   C27   A    
C40   H9    S    
O30   C88   S    
C89   C90   S    
C56   O24   A    
C85   H42   S    
O27   C79   S    
Cr3   O23   S    
C87   H47   S    
C62   H21   S    
C66   C70   A    
C77   C78   A    
C95   C96   S    
C23   O1    A    
C38   H5    S    
Cr1   O1    S    
C21   C22   A    
C36   C37   A    
Cr3   O4    S    
C38   C42   A    
C10   C15   A    
C91   H57   S    
C5    C6    S    
C79   C80   S    
C94   C95   S    
C66   Cl2   S    
Cr6   O11   S    
Cr2   O26   S    
C32   H4    S    
Cr6   O18   S    
C25   H3    S    
C47   H15   S    
Cr3   O5    S    
C7    C67   T    
C95   H66   S    
C75   O17   A    
C11   C16   A    
Cr5   O8    S    
C93   H61   S    
C35   C42   S    
O31   C91   S    
C9    C23   S    
C21   H27   S    
C68   C69   A    
C19   C71   S    
C45   O3    A    
C98   H72   S    
C40   C43   A    
C47   C48   A    
C44   C46   A    
C96   H67   S    
C82   C83   S    
Cr3   O3    S    
C97   C98   S    
C34   O25   A    
Cr4   O19   S    
C60   H19   S    
C39   H6    S    
C75   O16   A    
C61   C62   A    
C23   O23   A    
C88   C89   S    
Cr5   O9    S    
C94   H63   S    
C64   Cl1   S    
C77   H1    S    
C59   C60   A    
C83   H37   S    
Cr2   O20   S    
C13   C14   A    
C80   C81   S    
C86   H44   S    
C50   O31   S    
C65   H18   S    
C4    C7    S    
Cr4   O13   S    
C85   H43   S    
C88   H50   S    
C81   H32   S    
C87   H48   S    
C20   C29   T    
C99   H75   S    
C53   H16   S    
C43   C75   S    
C38   C39   A    
C12   C67   S    
C8    C72   S    
C73   O6    A    
C81   H33   S    
C51   C52   A    
C59   H17   S    
C90   H53   S    
C24   C25   A    
Cr5   O19   S    
C89   H52   S    
C52   C57   A    
C91   C92   S    
C46   O28   S    
C87   H46   S    
C49   O30   S    
C30   C73   S    
C53   C57   A    
O33   C97   S    
C16   C17   S    
C6    C8    T    
C24   O27   S    
C58   C59   A    
C53   C54   A    
Cr1   O12   S    
C97   H70   S    
C37   H12   S    
C60   C61   A    
C63   H22   S    
C76   O13   A    
C57   C74   S    
C93   H62   S    
C81   H34   S    
C91   H56   S    
C1    O12   A    
Cr4   O14   S    
C62   C63   A    
Cr1   O25   S    
C45   O2    A    
C76   O18   A    
C44   C56   S    
C31   C32   A    
C84   H40   S    
C99   H74   S    
C78   H11   S    
C72   O9    A    
C14   C15   A    
C94   H64   S    
C64   C69   A    
C83   C84   S    
C92   H58   S    
C40   C41   A    
Cr6   O19   S    
C49   C50   A    
C98   H73   S    
C22   C27   A    
C70   C76   S    
C82   H36   S    
C2    C5    A    
C83   H38   S    
Cr4   O7    S    
Cr5   O15   S    
C92   H59   S    
C3    C4    A    
C68   H20   S    
C85   C86   S    
C88   H49   S    
C34   C58   S    
C99   H76   S    
C44   C50   A    
C93   H60   S    
C14   H26   S    
C46   C47   A    
C84   H39   S    
C1    C20   S    
C12   O21   A    
C71   O7    A    
C13   O33   S    
C73   O11   A    
C86   C87   S    
Cr2   O5    S    
C58   C63   A    
Cr5   O16   S    
C1    O20   A    
C90   H54   S    
C79   H28   S    
Cr3   O22   S    
C98   C99   S    
Cr1   O24   S    
C34   O26   A    
C82   H35   S    
C71   O8    A    
C12   O22   A    
C2    O32   S    
C61   C69   S    
C32   C33   A    
C92   C93   S    
C86   H45   S    
C2    C3    A    
C25   C26   A    
C4    C77   A    
C89   H51   S    
O28   C82   S    
O29   C85   S    
C79   H29   S    
C74   O15   A    
C96   H69   S    
C48   C49   A    
C64   C65   A    
C52   H14   S    
C33   C35   A    
C56   O4    A    
C28   C30   T    
C51   C55   A    
C22   H2    S    
C95   H65   S    
C90   H55   S    
C10   C11   A    
C54   O29   S    
C74   O14   A    
C17   C19   T    
C31   C37   A    
C9    C18   T    
C36   H10   S    
C41   H8    S    
Cr2   O2    S    
C39   C43   A    
C26   C29   S    
C96   H68   S    
O32   C94   S    
C31   C45   S    
C13   C16   A    
C27   C28   S    
C97   H71   S    
C80   H30   S    
Cr4   O6    S    
C5    C78   A    
Cr1   O5    S    
C80   H31   S    
C65   C70   A    
Cr6   O10   S    
C33   H7    S    
C3    H23   S    
