data_mof_unit_32630.cif
_audit_creation_date              2012-12-11T15:08:31-0500
_audit_creation_method            fapswitch 2.2
_symmetry_space_group_name_H-M    P1
_symmetry_Int_Tables_number       1
_space_group_crystal_system       triclinic
_cell_length_a                    26.809334
_cell_length_b                    7.074965
_cell_length_c                    11.985994
_cell_angle_alpha                 90.206845
_cell_angle_beta                  103.388076
_cell_angle_gamma                 90.685921
_cell_volume                      2211.45559365

loop_
_atom_site_label
_atom_site_type_symbol
_atom_type_description
_atom_site_fract_x
_atom_site_fract_y
_atom_site_fract_z
_atom_type_partial_charge
O1    O     O_R   0.437360 0.505910 0.042120 -0.538572
O2    O     O_R   0.562640 0.005910 0.957880 -0.537752
O3    O     O_R   0.542480 0.176660 0.157100 -0.541177
O4    O     O_R   0.457520 0.676660 0.842900 -0.541479
C1    C     C_R   0.556392 0.345641 0.198017 0.691204
C2    C     C_R   0.443543 0.843502 0.801953 0.690747
O5    O     O_R   0.436520 0.176250 0.054800 -0.541353
O6    O     O_R   0.563480 0.676250 0.945200 -0.541838
O7    O     O_R   0.455920 0.005040 0.854840 -0.538418
O8    O     O_R   0.544080 0.505040 0.145160 -0.538472
C3    C     C_R   0.417460 0.343837 0.063390 0.688778
C4    C     C_R   0.582493 0.845682 0.936508 0.689360
O9    O     O_3   0.506490 0.338900 0.934520 -0.373345
O10   O     O_3   0.493510 0.838900 0.065480 -0.373673
V1    V     V_3+5 0.498800 0.064400 0.012150 1.423191
V2    V     V_3+5 0.501200 0.564400 0.987850 1.421442
C5    C     C_R   0.681040 0.910007 0.761825 -0.156097
C6    C     C_R   0.318737 0.329695 0.240382 -0.155127
H1    H     H_    0.598817 0.905358 0.725101 0.105483
H2    H     H_    0.400902 0.323073 0.277046 0.105388
H3    H     H_    0.774662 0.940942 0.725948 0.138977
H4    H     H_    0.225078 0.324677 0.277466 0.138396
H5    H     H_    0.681702 0.936456 0.673135 0.130226
H6    H     H_    0.317979 0.318270 0.330151 0.129869
C7    C     C_R   0.631918 0.857540 0.904489 -0.031578
C8    C     C_R   0.368043 0.348478 0.095672 -0.031487
C9    C     C_R   0.867963 0.823360 0.209621 -0.183559
C10   C     C_R   0.132187 0.377285 0.788840 -0.182530
C11   C     C_R   0.822162 0.805061 0.244236 -0.114145
C12   C     C_R   0.178015 0.380037 0.753542 -0.112842
C13   C     C_R   0.775361 0.817731 0.164619 -0.166350
C14   C     C_R   0.224751 0.371664 0.833733 -0.166161
C15   C     C_R   0.773198 0.849453 0.046861 0.072172
C16   C     C_R   0.226821 0.360173 0.952789 0.072159
C17   C     C_R   0.820438 0.869625 0.012099 0.066506
C18   C     C_R   0.179530 0.355427 0.988326 0.066791
C19   C     C_R   0.725851 0.861516 0.962550 0.068170
C20   C     C_R   0.274125 0.353452 0.037634 0.068224
C21   C     C_R   0.726912 0.895346 0.846146 0.136043
C22   C     C_R   0.272948 0.339576 0.155415 0.136427
C23   C     C_R   0.773645 0.915075 0.814520 -0.207516
C24   C     C_R   0.226173 0.334880 0.187815 -0.207927
C25   C     C_R   0.819654 0.902018 0.895874 -0.209380
C26   C     C_R   0.180224 0.343260 0.105890 -0.210096
C27   C     C_R   0.677315 0.841876 0.989409 -0.220538
C28   C     C_R   0.322725 0.359321 0.010042 -0.220916
C29   C     C_R   0.633853 0.891975 0.790980 -0.190206
C30   C     C_R   0.365956 0.332960 0.210559 -0.189148
C31   C     C_R   0.867668 0.855725 0.094540 -0.075440
C32   C     C_R   0.132362 0.364588 0.905246 -0.075578
H7    H     H_    0.673233 0.816282 0.075423 0.097830
H8    H     H_    0.326891 0.369908 0.923002 0.097740
H9    H     H_    0.903911 0.811770 0.272904 0.103459
H10   H     H_    0.096310 0.385443 0.725009 0.103314
H11   H     H_    0.741684 0.801945 0.198399 0.115055
H12   H     H_    0.258457 0.374447 0.799358 0.114702
H13   H     H_    0.822882 0.780273 0.333706 0.136048
H14   H     H_    0.177370 0.389321 0.663050 0.135461
H15   H     H_    0.854764 0.918096 0.866640 0.129717
H16   H     H_    0.145087 0.339603 0.135774 0.129378
C33   C     C_R   0.091354 0.865426 0.311345 -0.033886
C34   C     C_R   0.908564 0.353731 0.689096 -0.033797
C35   C     C_R   0.409018 0.847056 0.687921 -0.031591
C36   C     C_R   0.591029 0.358264 0.311702 -0.031583
C37   C     C_R   0.105931 0.907942 0.516180 -0.166641
C38   C     C_R   0.893786 0.284622 0.486821 -0.165310
C39   C     C_R   0.072395 0.897153 0.408676 -0.176595
C40   C     C_R   0.927419 0.307196 0.593554 -0.177229
C41   C     C_R   0.144071 0.845600 0.321278 -0.219552
C42   C     C_R   0.855903 0.376592 0.678292 -0.219717
C43   C     C_R   0.179281 0.860199 0.429359 0.080544
C44   C     C_R   0.820629 0.351390 0.571089 0.079744
C45   C     C_R   0.158981 0.891029 0.527285 0.132424
C46   C     C_R   0.840789 0.305459 0.474857 0.132475
C47   C     C_R   0.233689 0.847950 0.443331 0.049179
C48   C     C_R   0.766300 0.368454 0.556405 0.048339
C49   C     C_R   0.266747 0.866375 0.555470 0.052745
C50   C     C_R   0.733172 0.339775 0.445187 0.052739
C51   C     C_R   0.244298 0.895729 0.649794 -0.196739
C52   C     C_R   0.755465 0.295181 0.352499 -0.196282
C53   C     C_R   0.191625 0.907255 0.635645 -0.201165
C54   C     C_R   0.808066 0.278843 0.367369 -0.202226
C55   C     C_R   0.256144 0.818637 0.349012 -0.195161
C56   C     C_R   0.743996 0.412808 0.649115 -0.195362
C57   C     C_R   0.308825 0.806508 0.363260 -0.203925
C58   C     C_R   0.691394 0.429999 0.634085 -0.204381
C59   C     C_R   0.341464 0.822375 0.471696 0.133069
C60   C     C_R   0.658688 0.404231 0.526441 0.132869
C61   C     C_R   0.321149 0.853701 0.569532 0.081308
C62   C     C_R   0.678861 0.357689 0.430339 0.080926
C63   C     C_R   0.394511 0.804492 0.483027 -0.164819
C64   C     C_R   0.605715 0.426746 0.514113 -0.163577
C65   C     C_R   0.428003 0.814718 0.590666 -0.177768
C66   C     C_R   0.572150 0.405463 0.407130 -0.178534
C67   C     C_R   0.356322 0.868005 0.677699 -0.218773
C68   C     C_R   0.643640 0.333371 0.322962 -0.218338
H17   H     H_    0.176285 0.930595 0.710653 0.141240
H18   H     H_    0.823291 0.244036 0.293625 0.142236
H19   H     H_    0.344291 0.890291 0.756377 0.097281
H20   H     H_    0.655545 0.298770 0.245587 0.097302
H21   H     H_    0.468715 0.796187 0.598297 0.100855
H22   H     H_    0.531474 0.426503 0.398591 0.100917
H23   H     H_    0.324171 0.782852 0.288295 0.140365
H24   H     H_    0.676163 0.465123 0.707773 0.141136
H25   H     H_    0.090430 0.932607 0.590779 0.115663
H26   H     H_    0.909179 0.248585 0.413549 0.115143
H27   H     H_    0.031664 0.914889 0.401193 0.101446
H28   H     H_    0.968130 0.287465 0.601843 0.101475
H29   H     H_    0.156084 0.823832 0.242516 0.103521
H30   H     H_    0.844012 0.410511 0.755796 0.103415
H31   H     H_    0.266284 0.911154 0.736668 0.129377
H32   H     H_    0.733416 0.271310 0.266390 0.129737
H33   H     H_    0.234145 0.803455 0.262122 0.137768
H34   H     H_    0.766052 0.436102 0.735290 0.137821
H35   H     H_    0.410038 0.779420 0.408509 0.115068
H36   H     H_    0.590297 0.463245 0.587276 0.114577
O11   O     O_R   0.955980 0.206520 0.854760 -0.539487
O12   O     O_R   0.044020 0.706520 0.145240 -0.538500
O13   O     O_R   0.063490 0.536770 0.945200 -0.540274
O14   O     O_R   0.936510 0.036770 0.054800 -0.541533
C69   C     C_R   0.082848 0.369372 0.937936 0.680233
C70   C     C_R   0.917193 0.867509 0.062133 0.680659
O15   O     O_R   0.957530 0.536190 0.842880 -0.541106
O16   O     O_R   0.042470 0.036190 0.157120 -0.542248
O17   O     O_R   0.937350 0.707210 0.042130 -0.536859
O18   O     O_R   0.062650 0.207210 0.957870 -0.538463
C71   C     C_R   0.943309 0.366623 0.802519 0.692805
C72   C     C_R   0.056737 0.868824 0.197537 0.692511
O19   O     O_3   0.993540 0.373870 0.065440 -0.373280
O20   O     O_3   0.006460 0.873870 0.934560 -0.373592
V3    V     V_3+5 0.001200 0.648440 0.987860 1.422131
V4    V     V_3+5 0.998800 0.148440 0.012140 1.417697

loop_
_geom_bond_atom_site_label_1
_geom_bond_atom_site_label_2
_ccdc_geom_bond_type
C38   C40   A    
O4    V2    S    
C59   C63   A    
C9    C11   A    
C23   C25   A    
C55   H33   S    
O1    C3    A    
C44   C48   A    
C58   H24   S    
C48   C56   A    
C2    O7    A    
O3    V1    S    
C21   C23   A    
C50   C62   A    
O5    C3    A    
C49   C61   A    
C5    H5    S    
O12   C72   A    
C68   H20   S    
C6    H6    S    
C10   C32   A    
C20   C22   A    
C46   C54   A    
C34   C71   S    
C67   H19   S    
C27   H7    S    
C38   C46   A    
C35   C67   A    
C37   C45   A    
O16   V4    S    
C5    C21   A    
C45   C53   A    
C41   C43   A    
O11   V4    S    
O17   V3    S    
C6    C22   A    
O12   V3    S    
C42   H30   S    
C41   H29   S    
O11   C71   A    
C60   C64   A    
C37   C39   A    
C17   C31   A    
O13   V3    S    
C13   C15   A    
C17   C25   A    
C7    C29   A    
C16   C18   A    
C57   H23   S    
C25   H15   S    
O16   C72   A    
O19   V4    S    
O5    V1    S    
O2    C4    A    
O6    V2    S    
C16   C20   A    
C54   H18   S    
C34   C42   A    
C32   C69   S    
C24   C26   A    
C38   H26   S    
C37   H25   S    
O14   C70   A    
C57   C59   A    
C43   C47   A    
C58   C60   A    
C48   C50   A    
C36   C68   A    
C44   C46   A    
C65   H21   S    
C51   C53   A    
C10   H10   S    
C3    C8    S    
C15   C19   A    
C1    C36   S    
C14   C16   A    
C2    C35   S    
C61   C67   A    
O20   V4    S    
C63   C65   A    
C64   H36   S    
C33   C39   A    
O15   C71   A    
O18   V4    S    
O6    C4    A    
C52   H32   S    
C64   C66   A    
C49   C51   A    
O1    V2    S    
O2    V1    S    
C47   C49   A    
H2    C30   S    
O13   C69   A    
H3    C23   S    
C52   C54   A    
C55   C57   A    
C60   C62   A    
C59   C61   A    
C18   C26   A    
O4    C2    A    
C19   C27   A    
C7    C27   A    
C50   C52   A    
C47   C55   A    
C18   C32   A    
C43   C45   A    
C33   C41   A    
C56   H34   S    
O15   V3    S    
O14   V4    S    
C5    C29   A    
C11   H13   S    
O3    C1    A    
C6    C30   A    
C9    H9    S    
C62   C68   A    
C8    C30   A    
C35   C65   A    
C51   H31   S    
C4    C7    S    
C70   O17   A    
C10   C12   A    
O20   V3    S    
O7    V1    S    
C36   C66   A    
C69   O18   A    
C11   C13   A    
O8    V2    S    
C28   H8    S    
C12   C14   A    
C39   H27   S    
H4    C24   S    
C53   H17   S    
C26   H16   S    
C31   C70   S    
C12   H14   S    
C22   C24   A    
C15   C17   A    
C63   H35   S    
C33   C72   S    
H1    C29   S    
C34   C40   A    
C20   C28   A    
C8    C28   A    
C1    O8    A    
C66   H22   S    
C19   C21   A    
O9    V2    S    
O10   V1    S    
C56   C58   A    
C42   C44   A    
C40   H28   S    
C13   H11   S    
C14   H12   S    
C9    C31   A    
O19   V3    S    
