data_mof_unit_61903.cif
_audit_creation_date              2012-12-10T19:50:06-0500
_audit_creation_method            fapswitch 2.2
_symmetry_space_group_name_H-M    P1
_symmetry_Int_Tables_number       1
_space_group_crystal_system       triclinic
_cell_length_a                    36.693395
_cell_length_b                    18.271474
_cell_length_c                    18.269509
_cell_angle_alpha                 89.84601
_cell_angle_beta                  119.625376
_cell_angle_gamma                 89.914303
_cell_volume                      10647.367015

loop_
_atom_site_label
_atom_site_type_symbol
_atom_type_description
_atom_site_fract_x
_atom_site_fract_y
_atom_site_fract_z
_atom_type_partial_charge
C1    C     C_R   0.499901 0.000084 0.358681 0.931597
C2    C     C_1   0.336908 0.001327 0.332808 -0.119429
C3    C     C_3   0.760684 0.749626 0.947908 -0.956386
C4    C     C_3   0.194428 0.535477 0.891078 0.116037
C5    C     C_3   0.147116 0.522002 0.837055 -0.346256
C6    C     C_3   0.126299 0.517584 0.891437 -0.940389
C7    C     C_3   0.819560 0.480658 0.147124 0.128465
C8    C     C_3   0.814771 0.505886 0.062917 -0.329376
C9    C     C_3   0.856940 0.506456 0.065228 -0.940872
C10   C     C_3   0.792985 0.659146 0.234647 0.005134
C11   C     C_3   0.798616 0.730382 0.197439 -0.302808
C12   C     C_3   0.802404 0.795940 0.252315 -0.978690
C13   C     C_1   0.163189 0.498368 0.666787 -0.030266
C14   C     C_3   0.225555 0.375387 0.891446 0.026294
C15   C     C_3   0.239254 0.301126 0.874412 -0.335207
C16   C     C_3   0.260639 0.254383 0.954202 -0.956194
C17   C     C_1   0.836910 0.501271 0.332813 -0.119789
C18   C     C_1   0.625692 0.999259 0.627267 -0.199451
C19   C     C_1   0.374381 0.000623 0.372543 -0.198595
C20   C     C_1   0.125691 0.499263 0.627318 -0.199570
C21   C     C_1   0.874382 0.500614 0.372557 -0.198678
C22   C     C_1   0.499771 0.000230 0.282143 -0.197129
C23   C     C_1   0.500129 0.999783 0.717755 -0.199258
C24   C     C_1   0.999770 0.500227 0.282141 -0.197214
C25   C     C_R   0.500068 0.999918 0.641288 0.936465
C26   C     C_1   0.000129 0.499778 0.717755 -0.199328
C27   C     C_1   0.499759 0.000194 0.217389 -0.192935
C28   C     C_1   0.500156 0.999826 0.782526 -0.201583
C29   C     C_1   0.999758 0.500189 0.217388 -0.192975
C30   C     C_1   0.000156 0.499818 0.782526 -0.201614
C31   C     C_R   0.000040 0.141044 0.999957 0.933799
C32   C     C_R   0.999959 0.858956 0.000041 0.933798
C33   C     C_R   0.500040 0.641044 0.999958 0.933803
C34   C     C_R   0.499959 0.358956 0.000041 0.933805
C35   C     C_R   0.918770 0.999972 0.918923 0.908142
C36   C     C_R   0.999899 0.500084 0.358679 0.931665
C37   C     C_R   0.081221 0.000049 0.081053 0.907842
C38   C     C_R   0.418770 0.499963 0.918922 0.908141
C39   C     C_R   0.581221 0.500044 0.081052 0.907848
C40   C     C_R   0.500057 0.858705 0.999999 0.934944
C41   C     C_R   0.499942 0.141294 0.999998 0.935363
C42   C     C_R   0.000057 0.358705 0.000000 0.935015
C43   C     C_R   0.999943 0.641294 0.999997 0.935320
C44   C     C_R   0.499919 0.000065 0.141139 0.936295
C45   C     C_R   0.500067 0.999951 0.858845 0.938954
C46   C     C_R   0.999919 0.500061 0.141139 0.936376
C47   C     C_R   0.000068 0.499918 0.641288 0.936558
C48   C     C_R   0.000067 0.499948 0.858845 0.938993
C49   C     C_1   0.000128 0.217493 0.999905 -0.194030
C50   C     C_1   0.999870 0.782507 0.000093 -0.193986
C51   C     C_1   0.500128 0.717493 0.999905 -0.194048
C52   C     C_1   0.499870 0.282507 0.000093 -0.193952
C53   C     C_R   0.581223 0.999845 0.581269 0.902797
C54   C     C_R   0.418800 0.000142 0.418780 0.908669
C55   C     C_R   0.081223 0.499845 0.581278 0.902911
C56   C     C_R   0.918800 0.500142 0.418788 0.908770
C57   C     C_1   0.500155 0.782257 0.999970 -0.191223
C58   C     C_1   0.836759 0.998978 0.838650 -0.076530
C59   C     C_1   0.499844 0.217743 0.000027 -0.191080
C60   C     C_1   0.000155 0.282257 0.999971 -0.191203
C61   C     C_1   0.999844 0.717743 0.000026 -0.191080
C62   C     C_3   0.725521 0.072832 0.704571 -0.444752
C63   C     C_3   0.274725 0.922108 0.273848 -0.405368
C64   C     C_3   0.274104 0.040635 0.337817 -0.484788
C65   C     C_3   0.725899 0.938109 0.678420 -0.477369
C66   C     C_3   0.225526 0.572195 0.702746 -0.444705
C67   C     C_3   0.774731 0.422161 0.276207 -0.405442
C68   C     C_3   0.774097 0.542585 0.336572 -0.484503
C69   C     C_1   0.163205 0.001257 0.160912 -0.079237
C70   C     C_3   0.225888 0.436831 0.680038 -0.477376
C71   C     C_3   0.774278 0.941100 0.722874 -0.417678
C72   C     C_3   0.225748 0.042247 0.289583 -0.420234
C73   C     C_3   0.226146 0.922280 0.221843 -0.386433
C74   C     C_3   0.773817 0.074689 0.756335 -0.399355
C75   C     C_3   0.274267 0.439746 0.724356 -0.417835
C76   C     C_3   0.725741 0.544181 0.288281 -0.420358
C77   C     C_3   0.726153 0.422206 0.224207 -0.386377
C78   C     C_3   0.273819 0.574148 0.754489 -0.399229
C79   C     C_1   0.874278 0.999495 0.875060 -0.185784
C80   C     C_1   0.336758 0.498949 0.838660 -0.076526
C81   C     C_1   0.125697 0.000641 0.124782 -0.182995
C82   C     C_1   0.374278 0.499470 0.875060 -0.185793
C83   C     C_1   0.625697 0.500602 0.124775 -0.182984
C84   C     C_3   0.708997 0.997390 0.714876 0.270453
C85   C     C_3   0.291248 0.002040 0.284702 0.191695
C86   C     C_3   0.208997 0.497464 0.714975 0.270430
C87   C     C_3   0.791250 0.501901 0.284668 0.191351
C88   C     C_3   0.791019 0.998327 0.794450 0.270184
C89   C     C_3   0.208911 0.001954 0.204798 0.241365
C90   C     C_3   0.291019 0.498323 0.794488 0.270184
C91   C     C_1   0.663206 0.501184 0.160889 -0.079220
C92   C     C_3   0.708913 0.501847 0.204755 0.241242
C93   C     C_3   0.774851 0.977633 0.855715 -0.504243
C94   C     C_3   0.224719 0.042825 0.151287 -0.418525
C95   C     C_3   0.274856 0.479552 0.856249 -0.504149
C96   C     C_3   0.724723 0.540617 0.150050 -0.418276
C97   C     C_3   0.725300 0.981053 0.810894 0.926122
C98   C     C_3   0.273475 0.035881 0.192244 0.909645
C99   C     C_3   0.225308 0.483171 0.811382 0.926104
C100  C     C_3   0.773483 0.533478 0.191231 0.909618
C101  C     C_3   0.694408 0.030403 0.891923 0.116183
C102  C     C_1   0.663190 0.998340 0.666701 -0.030135
C103  C     C_3   0.647112 0.016880 0.837646 -0.346556
C104  C     C_3   0.626371 0.010221 0.892004 -0.940022
C105  C     C_3   0.319419 0.986064 0.146095 0.129254
C106  C     C_3   0.314416 0.014691 0.062855 -0.329033
C107  C     C_3   0.356482 0.017013 0.064811 -0.942295
C108  C     C_3   0.293011 0.160748 0.239473 0.005168
C109  C     C_3   0.298702 0.233217 0.204481 -0.302705
C110  C     C_3   0.302497 0.297201 0.261319 -0.978208
C111  C     C_3   0.725579 0.871252 0.888183 0.026442
C112  C     C_3   0.739334 0.797839 0.869318 -0.335341
H1    H     H_    0.786606 0.092104 0.715052 0.176894
H2    H     H_    0.209110 0.019679 0.086471 0.184592
H3    H     H_    0.214299 0.100844 0.142545 0.138998
H4    H     H_    0.787796 0.922670 0.880644 0.152036
H5    H     H_    0.288551 0.518144 0.910311 0.170158
H6    H     H_    0.709122 0.515981 0.085967 0.184626
H7    H     H_    0.714291 0.598657 0.139540 0.138983
H8    H     H_    0.287766 0.424870 0.882471 0.152071
H9    H     H_    0.715346 0.082766 0.636976 0.177536
H10   H     H_    0.285000 0.896367 0.336415 0.176520
H11   H     H_    0.284701 0.009742 0.397672 0.199695
H12   H     H_    0.213396 0.891348 0.256757 0.173451
H13   H     H_    0.712850 0.946928 0.609595 0.184096
H14   H     H_    0.215365 0.580639 0.634924 0.177503
H15   H     H_    0.785007 0.397996 0.339515 0.176574
H16   H     H_    0.784689 0.513184 0.397326 0.199692
H17   H     H_    0.212819 0.444196 0.611003 0.184140
H18   H     H_    0.715803 0.882738 0.686587 0.206024
H19   H     H_    0.286833 0.096102 0.359137 0.161159
H20   H     H_    0.287784 0.887147 0.242525 0.197629
H21   H     H_    0.712237 0.118152 0.724789 0.211296
H22   H     H_    0.215806 0.381941 0.689660 0.205985
H23   H     H_    0.213767 0.015710 0.328445 0.190388
H24   H     H_    0.786826 0.598292 0.356220 0.161177
H25   H     H_    0.787791 0.385892 0.245949 0.197499
H26   H     H_    0.212234 0.618369 0.721760 0.211251
H27   H     H_    0.787449 0.886005 0.748621 0.174011
H28   H     H_    0.214522 0.099984 0.278735 0.170721
H29   H     H_    0.215808 0.893680 0.161018 0.188532
H30   H     H_    0.783868 0.115817 0.807537 0.188018
H31   H     H_    0.287448 0.384982 0.751452 0.174019
H32   H     H_    0.714512 0.601903 0.275688 0.170672
H33   H     H_    0.715817 0.392089 0.164276 0.188504
H34   H     H_    0.784320 0.955707 0.676320 0.187692
H35   H     H_    0.283861 0.616284 0.804655 0.188064
H36   H     H_    0.698366 0.081304 0.928204 0.157283
H37   H     H_    0.710492 0.988078 0.940735 0.113550
H38   H     H_    0.632491 0.063161 0.792746 0.224788
H39   H     H_    0.640959 0.965862 0.800733 0.254226
H40   H     H_    0.640316 0.963899 0.937052 0.258941
H41   H     H_    0.592365 0.999850 0.851173 0.277085
H42   H     H_    0.630338 0.061631 0.927472 0.263754
H43   H     H_    0.332068 0.929387 0.156654 0.136135
H44   H     H_    0.343135 0.019608 0.198655 0.163773
H45   H     H_    0.286620 0.590228 0.712813 0.176871
H46   H     H_    0.292603 0.978602 0.010640 0.220279
H47   H     H_    0.300803 0.070752 0.050516 0.249621
H48   H     H_    0.378527 0.054002 0.115571 0.269110
H49   H     H_    0.351795 0.037868 0.003596 0.263531
H50   H     H_    0.370425 0.961305 0.075693 0.265937
H51   H     H_    0.320886 0.152255 0.302633 0.167187
H52   H     H_    0.263984 0.165277 0.243699 0.139224
H53   H     H_    0.327432 0.230458 0.198635 0.231810
H54   H     H_    0.271350 0.242781 0.140802 0.221428
H55   H     H_    0.273739 0.301844 0.266760 0.263475
H56   H     H_    0.713405 0.392719 0.260034 0.173532
H57   H     H_    0.306526 0.348871 0.234007 0.263587
H58   H     H_    0.330118 0.289460 0.325015 0.268498
H59   H     H_    0.702102 0.859654 0.908299 0.169643
H60   H     H_    0.752107 0.898787 0.942496 0.118085
H61   H     H_    0.711391 0.768808 0.819971 0.230882
H62   H     H_    0.761265 0.806835 0.844780 0.211347
H63   H     H_    0.788999 0.777201 0.997959 0.262530
H64   H     H_    0.770374 0.697003 0.932288 0.266511
H65   H     H_    0.738721 0.737784 0.971771 0.261923
H66   H     H_    0.198456 0.587166 0.926128 0.157317
H67   H     H_    0.713755 0.519184 0.327911 0.190395
H68   H     H_    0.210424 0.493911 0.940885 0.113594
H69   H     H_    0.132604 0.567487 0.790932 0.225201
H70   H     H_    0.140907 0.470156 0.801529 0.253897
H71   H     H_    0.140067 0.471980 0.937580 0.259336
H72   H     H_    0.092262 0.507388 0.850778 0.277121
H73   H     H_    0.130416 0.569789 0.925659 0.263346
H74   H     H_    0.832286 0.423992 0.160333 0.136180
H75   H     H_    0.843146 0.515563 0.198242 0.164048
H76   H     H_    0.793023 0.468525 0.012190 0.220673
H77   H     H_    0.801172 0.561964 0.048106 0.249146
H78   H     H_    0.284286 0.452960 0.677427 0.187728
H79   H     H_    0.878904 0.544737 0.114367 0.269147
H80   H     H_    0.852395 0.524727 0.003239 0.263516
H81   H     H_    0.870905 0.450680 0.078755 0.265259
H82   H     H_    0.820872 0.651764 0.298030 0.167158
H83   H     H_    0.763965 0.664617 0.238757 0.139178
H84   H     H_    0.827326 0.726643 0.191615 0.231869
H85   H     H_    0.771235 0.738805 0.133529 0.221477
H86   H     H_    0.773664 0.801545 0.257681 0.263449
H87   H     H_    0.806378 0.846660 0.223405 0.263420
H88   H     H_    0.830053 0.789340 0.316191 0.268630
H89   H     H_    0.788514 0.015249 0.910689 0.170177
H90   H     H_    0.202092 0.364945 0.911891 0.169546
H91   H     H_    0.252107 0.403600 0.945027 0.118091
H92   H     H_    0.211280 0.271577 0.825880 0.230864
H93   H     H_    0.261145 0.308883 0.849553 0.211317
H94   H     H_    0.289009 0.282448 0.003449 0.262546
H95   H     H_    0.270249 0.201080 0.939867 0.266238
H96   H     H_    0.238731 0.243812 0.978512 0.261865
O1    O     O_R   0.500010 0.060620 0.392670 -0.619902
O2    O     O_R   0.438570 0.939380 0.438570 -0.619652
O3    O     O_R   0.438570 0.060620 0.438570 -0.619387
O4    O     O_R   0.561430 0.939380 0.561430 -0.613298
O5    O     O_R   0.061430 0.560620 0.561430 -0.619599
O6    O     O_R   0.938570 0.439380 0.438570 -0.619857
O7    O     O_R   0.938570 0.560620 0.438570 -0.619294
O8    O     O_R   0.061430 0.439380 0.561430 -0.613269
O9    O     O_R   1.000000 0.107140 0.939380 -0.619396
O10   O     O_R   1.000000 0.892860 0.060620 -0.619867
O11   O     O_R   0.000000 0.107140 0.060620 -0.619854
O12   O     O_R   0.499990 0.939380 0.607330 -0.618807
O13   O     O_R   1.000000 0.892860 0.939380 -0.619364
O14   O     O_R   0.500000 0.607140 0.939380 -0.619417
O15   O     O_R   0.500000 0.392860 0.060620 -0.619879
O16   O     O_R   0.500000 0.607140 0.060620 -0.619839
O17   O     O_R   0.500000 0.392860 0.939380 -0.619344
O18   O     O_R   0.938580 0.000000 0.877970 -0.618594
O19   O     O_R   0.061420 0.000000 0.122030 -0.618819
O20   O     O_R   0.438580 0.500000 0.877970 -0.618588
O21   O     O_R   0.561420 0.500000 0.122030 -0.618820
O22   O     O_R   0.938570 0.000000 0.999140 -0.618664
O23   O     O_R   0.499990 0.060620 0.607330 -0.619710
O24   O     O_R   0.061430 0.000000 0.000860 -0.617734
O25   O     O_R   0.438570 0.500000 0.999140 -0.618678
O26   O     O_R   0.561430 0.500000 0.000860 -0.617734
O27   O     O_R   0.534690 0.892630 0.034650 -0.622010
O28   O     O_R   0.465310 0.107370 0.965350 -0.621656
O29   O     O_R   0.465310 0.892630 0.965350 -0.621493
O30   O     O_R   0.534690 0.107370 0.034650 -0.621843
O31   O     O_R   0.034690 0.392630 0.034650 -0.622061
O32   O     O_R   0.965310 0.607370 0.965350 -0.621687
O33   O     O_R   0.965310 0.392630 0.965350 -0.621433
O34   O     O_R   0.500010 0.939380 0.392670 -0.620704
O35   O     O_R   0.034690 0.607370 0.034650 -0.621795
O36   O     O_R   0.534680 1.000000 0.141990 -0.621578
O37   O     O_R   0.465320 0.000000 0.858010 -0.620002
O38   O     O_R   0.034680 0.500000 0.141990 -0.621618
O39   O     O_R   0.965320 0.500000 0.858010 -0.620022
O40   O     O_R   0.465320 0.000000 0.072630 -0.621166
O41   O     O_R   0.534680 0.000000 0.927370 -0.623327
O42   O     O_R   0.965320 0.500000 0.072630 -0.621002
O43   O     O_R   0.034680 0.500000 0.927370 -0.623298
O44   O     O_3   0.713419 0.043471 0.842054 -0.700757
O45   O     O_R   0.000010 0.560620 0.392670 -0.619834
O46   O     O_3   0.279578 0.983414 0.141159 -0.681720
O47   O     O_3   0.291016 0.104078 0.185442 -0.680804
O48   O     O_3   0.705333 0.914030 0.813492 -0.695699
O49   O     O_3   0.213489 0.546711 0.840981 -0.700765
O50   O     O_3   0.779602 0.479350 0.141748 -0.681314
O51   O     O_3   0.791009 0.600928 0.182365 -0.680432
O52   O     O_3   0.205305 0.416788 0.815705 -0.695699
O53   O     O_R   0.999990 0.439380 0.607330 -0.618656
O54   O     O_R   0.999990 0.560620 0.607330 -0.619814
O55   O     O_R   0.000010 0.439380 0.392670 -0.620764
O56   O     O_R   0.561430 0.060620 0.561430 -0.619468
Zn1   Zn    Zn3+2 0.500000 0.080950 0.500000 0.960191
Zn2   Zn    Zn3+2 0.453690 0.000000 0.953700 0.956432
Zn3   Zn    Zn3+2 0.046310 0.500000 0.046300 0.954789
Zn4   Zn    Zn3+2 0.953690 0.500000 0.953700 0.956207
Zn5   Zn    Zn3+2 0.500000 0.919050 0.500000 0.962999
Zn6   Zn    Zn3+2 0.000000 0.580950 0.500000 0.960160
Zn7   Zn    Zn3+2 0.000000 0.419050 0.500000 0.962931
Zn8   Zn    Zn3+2 0.000010 0.000000 0.919080 0.963646
Zn9   Zn    Zn3+2 0.999990 0.000000 0.080920 0.961646
Zn10  Zn    Zn3+2 0.500010 0.500000 0.919080 0.963654
Zn11  Zn    Zn3+2 0.499990 0.500000 0.080920 0.961628
Zn12  Zn    Zn3+2 0.546310 0.000000 0.046300 0.954737

loop_
_geom_bond_atom_site_label_1
_geom_bond_atom_site_label_2
_ccdc_geom_bond_type
C37   O24   A    
C112  H62   S    
C10   O51   S    
C101  H36   S    
C7    O50   S    
C4    O49   S    
C75   H31   S    
O43   Zn3   S    
C35   O18   A    
C84   C102  S    
O17   Zn10  S    
O32   Zn4   S    
C7    H74   S    
C111  C112  S    
C67   C77   S    
O11   Zn9   S    
C76   H67   S    
C38   O25   A    
C11   H85   S    
C15   H92   S    
C94   H2    S    
C7    C8    S    
C77   C92   S    
C73   H29   S    
C78   C90   S    
C77   H56   S    
O1    Zn1   S    
C108  H52   S    
C6    H73   S    
C44   O36   A    
C24   C36   S    
C49   C60   T    
C84   C97   S    
O4    Zn5   S    
C62   H21   S    
C96   H6    S    
O35   Zn3   S    
C39   O21   A    
C48   O39   A    
C16   H94   S    
C10   H82   S    
C5    C6    S    
C9    H81   S    
O40   Zn2   S    
C106  C107  S    
C94   C98   S    
C15   C16   S    
O25   Zn11  S    
C14   H90   S    
O3    Zn1   S    
C108  C109  S    
C2    C85   S    
C111  H60   S    
C18   C102  T    
C101  H37   S    
C89   C94   S    
C99   O49   S    
C24   C29   T    
C46   O42   A    
C56   O7    A    
C62   C84   S    
C85   C98   S    
C96   H7    S    
C75   C90   S    
O18   Zn8   S    
O19   Zn9   S    
C27   C44   S    
O21   Zn11  S    
O37   Zn2   S    
O20   Zn10  S    
O56   Zn1   S    
O42   Zn4   S    
C13   C86   S    
C30   C48   S    
O24   Zn8   S    
C51   C57   T    
C104  H41   S    
C9    H80   S    
C93   H89   S    
C68   H16   S    
O8    Zn7   S    
C56   O6    A    
C103  H38   S    
C103  H39   S    
C107  H48   S    
C45   O41   A    
C33   O14   A    
C16   H95   S    
O55   Zn7   S    
C112  H61   S    
C74   H30   S    
C100  O51   S    
C1    C22   S    
C101  C103  S    
C63   C85   S    
O28   Zn2   S    
O27   Zn12  S    
C37   C81   S    
C105  O46   S    
C4    H68   S    
C40   O27   A    
O30   Zn12  S    
C38   C82   S    
C5    H69   S    
C98   O47   S    
C103  C104  S    
C32   O13   A    
C97   O44   S    
C31   O11   A    
C41   O30   A    
C92   C96   S    
C78   H35   S    
C66   C78   S    
C108  H51   S    
C100  O50   S    
C28   C45   S    
C18   C53   S    
C71   H34   S    
C64   H11   S    
C1    O1    A    
C36   O55   A    
C107  H49   S    
C90   C95   S    
C75   H78   S    
C11   H84   S    
C46   O38   A    
C80   C82   T    
C10   C11   S    
C45   O37   A    
C55   O8    A    
C95   H5    S    
C8    C9    S    
C72   H23   S    
C71   H27   S    
C63   C73   S    
C43   O35   A    
C65   C71   S    
C74   H1    S    
C109  H54   S    
C70   H17   S    
C47   O53   A    
C33   C51   S    
C66   H14   S    
C6    H72   S    
O29   Zn2   S    
C93   H4    S    
C65   H13   S    
O14   Zn10  S    
O34   Zn5   S    
C66   C86   S    
C40   O29   A    
O12   Zn5   S    
C52   C59   T    
C67   H15   S    
O54   Zn6   S    
C110  H55   S    
C20   C55   S    
C78   H45   S    
C66   H26   S    
C64   H19   S    
C37   O19   A    
C3    C112  S    
C94   H3    S    
C73   H12   S    
C14   H91   S    
C34   O17   A    
C47   O54   A    
C12   H88   S    
O41   Zn12  S    
O31   Zn3   S    
C23   C28   T    
C68   H24   S    
C70   H22   S    
C86   C99   S    
C53   O56   A    
C32   C50   S    
C15   H93   S    
O13   Zn8   S    
C109  H53   S    
C58   C79   T    
C76   C92   S    
C97   O48   S    
O39   Zn4   S    
C110  H58   S    
C19   C54   S    
C3    H63   S    
C54   O3    A    
C105  H43   S    
C8    H77   S    
C26   C30   T    
O10   Zn9   S    
C22   C27   T    
O23   Zn1   S    
O22   Zn9   S    
C32   O10   A    
C9    H79   S    
C101  O44   S    
C68   C76   S    
C72   H28   S    
C42   C60   S    
O38   Zn3   S    
C70   C86   S    
C93   C97   S    
C64   C85   S    
C98   O46   S    
C63   H10   S    
C34   O15   A    
C43   C61   S    
C38   O20   A    
C87   C100  S    
C7    H75   S    
C111  O48   S    
C50   C61   T    
O16   Zn11  S    
C26   C47   S    
C88   C93   S    
C25   O23   A    
C40   C57   S    
C13   C20   T    
C2    C19   T    
C17   C87   S    
O45   Zn6   S    
C67   C87   S    
C4    H66   S    
C4    C5    S    
C76   H32   S    
C58   C88   S    
C55   O5    A    
C21   C56   S    
C11   C12   S    
C65   C84   S    
C41   O28   A    
C95   H8    S    
C69   C89   S    
O9    Zn8   S    
C83   C91   T    
C105  C106  S    
C6    H71   S    
C42   O33   A    
C34   C52   S    
C36   O45   A    
O26   Zn10  S    
C65   H18   S    
C29   C46   S    
C35   O22   A    
C104  H42   S    
C104  H40   S    
C42   O31   A    
C5    H70   S    
C3    H65   S    
C39   C83   S    
C108  O47   S    
C106  H46   S    
C10   H83   S    
O5    Zn6   S    
C72   C89   S    
C39   O26   A    
C77   H33   S    
C110  H57   S    
C99   O52   S    
C48   O43   A    
O2    Zn5   S    
C96   C100  S    
C35   C79   S    
C12   H87   S    
C63   H20   S    
O6    Zn7   S    
C95   C99   S    
C1    O34   A    
C23   C25   S    
O7    Zn6   S    
C80   C90   S    
C67   H25   S    
C17   C21   T    
C16   H96   S    
O53   Zn7   S    
C64   C72   S    
C69   C81   T    
C43   O32   A    
C44   O40   A    
C73   C89   S    
C71   C88   S    
C33   O16   A    
C3    H64   S    
C54   O2    A    
C105  H44   S    
O15   Zn11  S    
C107  H50   S    
C70   C75   S    
O36   Zn12  S    
C68   C87   S    
C12   H86   S    
C14   C15   S    
C62   C74   S    
C25   O12   A    
C14   O52   S    
C31   C49   S    
C74   C88   S    
O33   Zn4   S    
C109  C110  S    
C8    H76   S    
C62   H9    S    
C53   O4    A    
C91   C92   S    
C106  H47   S    
C41   C59   S    
C31   O9    A    
C111  H59   S    
