data_mof_unit_52889.cif
_audit_creation_date              2012-12-11T15:41:06-0500
_audit_creation_method            fapswitch 2.2
_symmetry_space_group_name_H-M    P1
_symmetry_Int_Tables_number       1
_space_group_crystal_system       triclinic
_cell_length_a                    8.229857
_cell_length_b                    18.805802
_cell_length_c                    19.005873
_cell_angle_alpha                 95.682781
_cell_angle_beta                  94.329985
_cell_angle_gamma                 92.90828
_cell_volume                      2913.6826987

loop_
_atom_site_label
_atom_site_type_symbol
_atom_type_description
_atom_site_fract_x
_atom_site_fract_y
_atom_site_fract_z
_atom_type_partial_charge
Ba1   Ba    Ba6+2 0.154050 0.534420 0.467300 1.647115
Ba2   Ba    Ba6+2 0.656120 0.465570 0.532650 1.638026
C1    C     C_3   0.334035 0.722555 0.206237 -0.384152
C2    C     C_3   0.364667 0.695632 0.278646 0.360845
C3    C     C_3   0.521248 0.681291 0.635573 0.304626
C4    C     C_3   0.536327 0.762074 0.653447 -0.377087
C5    C     C_3   0.897186 0.267359 0.680874 0.352577
C6    C     C_3   0.880075 0.191446 0.701509 -0.353717
C7    C     C_3   0.422086 0.306863 0.721100 0.361394
C8    C     C_3   0.443245 0.282791 0.795088 -0.362488
C9    C     C_2   0.698897 0.703964 0.481959 -0.247858
C10   C     C_3   0.612287 0.749342 0.431854 -0.027108
C11   C     C_2   0.652476 0.828590 0.450503 -0.134848
C12   C     C_3   0.882320 0.728893 0.311613 0.369853
C13   C     C_2   0.794565 0.851597 0.488821 -0.072442
C14   C     C_2   0.895269 0.796176 0.521041 -0.132073
C15   C     C_1   0.840176 0.727597 0.516200 0.056381
C16   C     C_R   0.955812 0.071296 0.505265 0.461433
C17   C     C_R   0.850835 0.929669 0.496223 0.461830
C18   C     C_R   0.916461 0.200196 0.479805 -0.133913
C19   C     C_R   0.969848 0.273323 0.486374 0.059060
C20   C     C_R   0.220918 0.245322 0.549776 0.010765
C21   C     C_R   0.168228 0.172631 0.544177 -0.144169
C22   C     C_R   0.013427 0.148953 0.510163 -0.069878
C23   C     C_3   0.860992 0.801234 0.282277 -0.126714
C24   C     C_R   0.118535 0.295258 0.523881 -0.279796
C25   C     C_R   0.611408 0.530638 0.299332 -0.273070
C26   C     C_R   0.462780 0.493837 0.276372 0.054275
C27   C     C_R   0.409158 0.486341 0.204184 -0.127039
C28   C     C_R   0.505388 0.514898 0.154293 -0.012912
C29   C     C_R   0.658360 0.549971 0.178231 -0.146447
C30   C     C_R   0.711700 0.556727 0.250565 0.016215
C31   C     C_R   0.471544 0.562652 0.035458 -0.078632
C32   C     C_R   0.418014 0.554719 0.963328 -0.077609
C33   C     C_R   0.340548 0.489891 0.931025 0.060337
C34   C     C_3   0.706092 0.345409 0.315101 0.333967
C35   C     C_R   0.315590 0.433573 0.973176 -0.078721
C36   C     C_R   0.368844 0.441588 0.045491 -0.075889
C37   C     C_R   0.448191 0.506174 0.077450 0.064025
C38   C     C_R   0.139736 0.444656 0.826513 -0.135956
C39   C     C_R   0.092512 0.438972 0.753433 0.017389
C40   C     C_R   0.341023 0.505538 0.733289 0.036102
C41   C     C_R   0.389297 0.511607 0.805795 -0.119484
C42   C     C_R   0.289863 0.480931 0.853450 -0.010053
C43   C     C_R   0.196629 0.466939 0.707227 -0.280896
C44   C     C_3   0.730610 0.359465 0.238421 -0.239116
C45   C     C_3   0.019471 0.616398 0.683032 0.312466
C46   C     C_3   0.038468 0.634422 0.763161 -0.393143
C47   C     C_3   0.283653 0.320182 0.376579 0.286762
C48   C     C_3   0.249989 0.240611 0.353665 -0.399658
H1    H     H_    0.299366 0.642436 0.277790 0.094411
H2    H     H_    0.610095 0.360114 0.207979 0.038034
H3    H     H_    0.792430 0.413435 0.239209 0.067174
H4    H     H_    0.136517 0.599603 0.664328 0.003590
H5    H     H_    0.924747 0.572084 0.669875 0.072782
H6    H     H_    0.139445 0.675895 0.777973 0.128687
H7    H     H_    0.066080 0.586230 0.789798 0.065339
H8    H     H_    0.923345 0.654836 0.781987 0.125046
H9    H     H_    0.171089 0.342852 0.394647 0.040721
H10   H     H_    0.381223 0.327131 0.420668 0.062247
H11   H     H_    0.201229 0.722737 0.191312 0.148474
H12   H     H_    0.145592 0.232351 0.312555 0.139368
H13   H     H_    0.220119 0.211811 0.399506 0.072683
H14   H     H_    0.359452 0.217756 0.331570 0.116164
H15   H     H_    0.497514 0.689222 0.287037 -0.070995
H16   H     H_    0.388808 0.686650 0.165674 0.071364
H17   H     H_    0.642880 0.662768 0.623673 0.014678
H18   H     H_    0.433761 0.668939 0.587973 0.070405
H19   H     H_    0.626868 0.776564 0.699638 0.122898
H20   H     H_    0.577142 0.788138 0.607391 0.071199
H21   H     H_    0.416147 0.781947 0.666329 0.132762
H22   H     H_    0.390662 0.777518 0.206885 0.111307
H23   H     H_    0.768957 0.830547 0.311618 0.076201
H24   H     H_    0.822314 0.269837 0.630171 0.092717
H25   H     H_    0.027493 0.279726 0.673169 -0.062593
H26   H     H_    0.750495 0.176946 0.709005 0.152531
H27   H     H_    0.921640 0.153364 0.659098 0.078157
H28   H     H_    0.955783 0.187157 0.751649 0.109052
H29   H     H_    0.290760 0.314993 0.708926 -0.068260
H30   H     H_    0.493846 0.358471 0.721125 0.091266
H31   H     H_    0.401065 0.324249 0.834210 0.068274
H32   H     H_    0.573820 0.274614 0.809362 0.150123
H33   H     H_    0.956204 0.736503 0.363541 0.064336
H34   H     H_    0.370099 0.231860 0.797103 0.110421
H35   H     H_    0.576420 0.865821 0.425228 0.102405
H36   H     H_    0.011564 0.812746 0.550354 0.110616
H37   H     H_    0.800476 0.183521 0.450667 0.104281
H38   H     H_    0.248665 0.134910 0.565626 0.106181
H39   H     H_    0.653638 0.648760 0.482031 0.064861
H40   H     H_    0.159778 0.351197 0.528713 0.068077
H41   H     H_    0.503060 0.541125 0.824842 0.075337
H42   H     H_    0.436045 0.599821 0.932945 0.062073
H43   H     H_    0.529446 0.613455 0.058639 0.060929
H44   H     H_    0.758808 0.707173 0.320037 -0.112201
H45   H     H_    0.293407 0.457636 0.187054 0.076033
H46   H     H_    0.258058 0.382735 0.949913 0.061579
H47   H     H_    0.350705 0.396652 0.076099 0.052464
H48   H     H_    0.057454 0.423459 0.862165 0.074996
H49   H     H_    0.737704 0.569969 0.140797 0.073949
H50   H     H_    0.159455 0.463271 0.651077 0.063620
H51   H     H_    0.653648 0.535102 0.354979 0.077292
H52   H     H_    0.813615 0.792560 0.225560 0.113060
H53   H     H_    0.613363 0.300456 0.315193 0.027982
H54   H     H_    0.664428 0.394870 0.342903 -0.003019
N1    N     N_R   0.808479 0.047735 0.471565 -0.240483
N2    N     N_R   0.757541 0.978728 0.467082 -0.241750
N3    N     N_R   0.998015 0.953202 0.530172 -0.241119
N4    N     N_R   0.049056 0.022300 0.534635 -0.243557
O1    O     O_2   0.126770 0.670950 0.539180 -0.455186
O2    O     O_3   0.332452 0.353290 0.318400 -0.652612
O3    O     O_3   0.957391 0.682153 0.263356 -0.606992
O4    O     O_2   0.683530 0.329010 0.460790 -0.485413
O5    O     O_3   0.935970 0.416420 0.461920 -0.466434
O6    O     O_3   0.450050 0.370950 0.587830 -0.483273
O7    O     O_3   0.853465 0.326787 0.347702 -0.642714
O8    O     O_3   0.375780 0.535040 0.584090 -0.477133
O9    O     O_3   0.866950 0.405950 0.623880 -0.488924
O10   O     O_2   0.754973 0.446464 0.749062 -0.489155
O11   O     O_3   0.842340 0.314822 0.734616 -0.599080
O12   O     O_3   0.874330 0.583580 0.538020 -0.492820
O13   O     O_3   0.434510 0.464950 0.415850 -0.489393
O14   O     O_2   0.630930 0.532620 0.670490 -0.458778
O15   O     O_3   0.465956 0.649277 0.693705 -0.642229
O16   O     O_2   0.557800 0.244994 0.540807 -0.485896
O17   O     O_3   0.478303 0.254689 0.672044 -0.596888
O18   O     O_3   0.360240 0.629040 0.412110 -0.484922
O19   O     O_2   0.284102 0.757124 0.469843 -0.478642
O20   O     O_3   0.975053 0.677658 0.652175 -0.635111
O21   O     O_3   0.309154 0.744130 0.331768 -0.597347
O22   O     O_2   0.179370 0.467330 0.329490 -0.441956
O23   O     O_3   0.943350 0.594040 0.376060 -0.477768
O24   O     O_2   0.050221 0.550719 0.250056 -0.494455
P1    P     P_3+3 0.954930 0.659850 0.559700 0.986472
P2    P     P_3+3 0.352180 0.446150 0.339620 0.977600
P3    P     P_3+3 0.916676 0.594496 0.283797 0.960651
P4    P     P_3+3 0.855360 0.340140 0.440240 0.985736
P5    P     P_3+3 0.889046 0.402456 0.716000 0.945409
P6    P     P_3+3 0.390367 0.721734 0.413959 0.956832
P7    P     P_3+3 0.451434 0.556316 0.672570 0.946879
P8    P     P_3+3 0.427285 0.277825 0.586546 0.951815
C49   C     C_R   0.831337 0.304265 0.202043 0.099541
C50   C     C_R   0.991002 0.323034 0.186056 -0.023021
C51   C     C_R   0.086497 0.271375 0.154564 -0.074217
C52   C     C_R   0.023273 0.200756 0.138576 -0.065056
C53   C     C_R   0.864400 0.181727 0.154013 -0.070727
C54   C     C_R   0.768528 0.233230 0.185654 -0.059743
H55   H     H_    0.042242 0.377368 0.198710 0.078598
H56   H     H_    0.209731 0.286050 0.142862 0.062862
H57   H     H_    0.097429 0.160762 0.114304 0.068182
H58   H     H_    0.815697 0.126994 0.141652 0.071335
H59   H     H_    0.645959 0.217784 0.197738 0.052157
N5    N     N_3   0.013214 0.845720 0.289341 -0.483681
H60   H     H_    0.098533 0.819620 0.259845 0.226684
H61   H     H_    0.058974 0.852203 0.342598 0.204066

loop_
_geom_bond_atom_site_label_1
_geom_bond_atom_site_label_2
_ccdc_geom_bond_type
C4    H19   S    
C6    H28   S    
C19   C24   A    
O15   P7    S    
C48   H14   S    
C3    H17   S    
C53   C54   A    
C5    C6    S    
C13   C17   S    
Ba2   O4    S    
C31   C37   A    
C47   H10   S    
C34   H53   S    
C16   C22   S    
C26   C27   A    
C33   C35   A    
C45   O20   S    
O14   P7    D    
C32   C33   A    
O23   P3    S    
C36   H47   S    
C38   H48   S    
C3    C4    S    
Ba2   O5    S    
C23   H52   S    
O7    P4    S    
C51   C52   A    
C18   H37   S    
C44   H2    S    
C6    H26   S    
C4    H20   S    
O12   P1    S    
C7    H29   S    
Ba1   O1    S    
Ba2   O8    S    
O18   P6    S    
O21   P6    S    
C18   C22   A    
C14   C15   D    
O5    P4    S    
C21   C22   A    
C34   C44   S    
O19   P6    D    
C29   H49   S    
O13   P2    S    
C44   C49   S    
O10   P5    D    
C7    C8    S    
C19   P4    S    
C39   P5    S    
C53   H58   S    
Ba2   P4    S    
O8    P7    S    
Ba2   O14   S    
C40   P7    S    
C14   H36   S    
C48   H13   S    
C41   H41   S    
O22   P2    D    
Ba1   O5    S    
C12   H33   S    
O4    P4    D    
C3    H18   S    
Ba1   P1    S    
Ba2   O9    S    
C5    H24   S    
C16   N4    A    
C1    H11   S    
O17   P8    S    
C12   O3    S    
C13   C14   S    
C2    H1    S    
O1    P1    D    
O11   P5    S    
C5    O11   S    
C46   H7    S    
C36   C37   A    
Ba1   O18   S    
Ba1   O22   S    
C27   H45   S    
Ba2   O12   S    
C5    H25   S    
C25   H51   S    
C7    O17   S    
C35   H46   S    
Ba1   O12   S    
C41   C42   A    
C35   C36   A    
C9    H39   S    
C45   C46   S    
C28   C29   A    
N3    N4    A    
C31   C32   A    
C10   C11   S    
C33   C42   S    
C49   C54   A    
C45   H4    S    
C38   C39   A    
Ba1   O8    S    
N5    H61   S    
O6    P8    S    
C21   H38   S    
C23   N5    S    
C15   P1    S    
C6    H27   S    
C48   H12   S    
C10   P6    S    
O2    P2    S    
C1    H16   S    
C40   C41   A    
C1    C2    S    
C45   H5    S    
Ba2   O13   S    
C46   H6    S    
C20   P8    S    
C9    C15   D    
Ba1   O13   S    
C25   C30   A    
C20   C21   A    
C50   H55   S    
O16   P8    D    
C29   C30   A    
O9    P5    S    
C52   C53   A    
Ba1   O23   S    
C43   H50   S    
C31   H43   S    
C30   P3    S    
C9    C10   S    
C46   H8    S    
C2    O21   S    
C24   H40   S    
N1    N2    A    
C3    O15   S    
C8    H31   S    
C47   H9    S    
C34   H54   S    
C11   C13   D    
C1    H22   S    
C16   N1    A    
C49   C50   A    
C12   H44   S    
Ba2   O6    S    
O3    P3    S    
C2    H15   S    
O24   P3    D    
Ba1   Ba2   S    
C44   H3    S    
C8    H34   S    
C8    H32   S    
C28   C37   S    
C23   H23   S    
C12   C23   S    
C52   H57   S    
C32   H42   S    
C51   H56   S    
C40   C43   A    
C27   C28   A    
C54   H59   S    
C17   N2    A    
C38   C42   A    
C18   C19   A    
C47   C48   S    
C20   C24   A    
C11   H35   S    
C25   C26   A    
C39   C43   A    
C50   C51   A    
C26   P2    S    
N5    H60   S    
O20   P1    S    
C34   O7    S    
C7    H30   S    
Ba1   P2    S    
C47   O2    S    
C4    H21   S    
C17   N3    A    
