data_mof_unit_15012.cif
_audit_creation_date              2012-10-26T18:52:37-0400
_audit_creation_method            fapswitch 2.2
_symmetry_space_group_name_H-M    P1
_symmetry_Int_Tables_number       1
_space_group_crystal_system       triclinic
_cell_length_a                    10.722765
_cell_length_b                    14.698919
_cell_length_c                    14.743279
_cell_angle_alpha                 64.894659
_cell_angle_beta                  103.72829
_cell_angle_gamma                 103.187278
_cell_volume                      2022.52894529

loop_
_atom_site_label
_atom_site_type_symbol
_atom_type_description
_atom_site_fract_x
_atom_site_fract_y
_atom_site_fract_z
_atom_type_partial_charge
C1    C     C_R   0.476837 0.119796 0.312204 0.533478
C2    C     C_R   0.445552 0.359686 0.076412 0.035780
C3    C     C_R   0.421762 0.320475 0.000100 0.052848
C4    C     C_R   0.260170 0.999242 0.501398 0.553699
C5    C     C_R   0.453088 0.465852 0.048664 0.032836
C6    C     C_R   0.453511 0.532569 0.945298 0.035124
C7    C     C_R   0.425950 0.490347 0.871109 -0.131775
C8    C     C_R   0.409073 0.386162 0.898319 -0.123914
C9    C     C_R   0.458132 0.507285 0.120508 -0.157581
C10   C     C_R   0.472931 0.611334 0.093189 -0.092106
C11   C     C_R   0.486371 0.678538 0.993830 0.096640
C12   C     C_3   0.878275 0.998969 0.501176 0.009905
C13   C     C_R   0.478885 0.639320 0.919361 -0.010584
C14   C     C_R   0.506912 0.784399 0.967904 0.247645
C15   C     C_R   0.520834 0.850853 0.867674 -0.121855
C16   C     C_R   0.519523 0.880217 0.687717 0.535560
C17   C     C_R   0.500145 0.708110 0.821637 -0.162835
C18   C     C_R   0.720331 0.286391 0.665674 -0.127584
C19   C     C_R   0.683802 0.203581 0.637999 0.012538
C20   C     C_R   0.518051 0.284827 0.510014 0.075131
C21   C     C_R   0.542889 0.368412 0.539871 -0.019175
C22   C     C_R   0.651749 0.370032 0.616239 0.066947
C23   C     C_3   0.917557 0.893770 0.575326 -0.125473
C24   C     C_R   0.467348 0.451020 0.494950 0.044178
C25   C     C_R   0.514014 0.539960 0.517649 -0.047605
C26   C     C_R   0.626686 0.539431 0.590529 -0.127749
C27   C     C_R   0.692800 0.455128 0.641543 0.239519
C28   C     C_R   0.740139 0.999687 0.500417 0.552265
C29   C     C_R   0.344670 0.446646 0.431930 0.203033
C30   C     C_R   0.283202 0.533489 0.380309 -0.087614
C31   C     C_R   0.331899 0.622781 0.396554 0.044568
C32   C     C_R   0.445323 0.626227 0.468212 -0.052194
C33   C     C_R   0.264316 0.707281 0.344948 0.214386
C34   C     C_3   0.966307 0.080794 0.537700 -0.298517
C35   C     C_R   0.308726 0.793382 0.368193 0.053446
C36   C     C_R   0.483565 0.716206 0.487924 0.017099
C37   C     C_3   0.044609 0.018527 0.395167 -0.203375
C38   C     C_3   0.900859 0.022227 0.392462 0.141248
C39   C     C_3   0.063547 0.891315 0.579680 0.467716
C40   C     C_3   0.108617 0.082141 0.535834 -0.270837
C41   C     C_3   0.122118 0.997255 0.503719 0.049443
C42   C     C_3   0.747199 0.996669 0.260497 -0.010414
C43   C     C_3   0.655069 0.916074 0.228998 -0.324034
C44   C     C_3   0.042460 0.713786 0.620902 0.001604
C45   C     C_R   0.457340 0.187381 0.204413 -0.011705
C46   C     C_3   0.157488 0.656023 0.654429 -0.346959
C47   C     C_R   0.516995 0.812712 0.794679 -0.041421
C48   C     C_R   0.411835 0.215738 0.026490 -0.130576
C49   C     C_R   0.428695 0.149442 0.128109 -0.148921
C50   C     C_R   0.466128 0.291623 0.178165 -0.130774
Cu1   Cu    Cu3+1 0.465900 0.918260 0.475680 0.934551
Cu2   Cu    Cu3+1 0.534100 0.081740 0.524320 0.928305
H1    H     H_    0.052048 0.959227 0.369313 0.190356
H2    H     H_    0.493197 0.318493 0.238609 0.124409
H3    H     H_    0.087478 0.092286 0.340704 0.064756
H4    H     H_    0.412657 0.535722 0.790742 0.102852
H5    H     H_    0.446460 0.461049 0.198343 0.112120
H6    H     H_    0.566333 0.725472 0.542555 0.130371
H7    H     H_    0.257510 0.858537 0.331031 0.119759
H8    H     H_    0.192279 0.529187 0.329955 0.167198
H9    H     H_    0.802066 0.284468 0.725644 0.162378
H10   H     H_    0.735566 0.138805 0.677082 0.127170
H11   H     H_    0.449256 0.282839 0.444568 0.195999
H12   H     H_    0.953932 0.064710 0.616236 0.148915
H13   H     H_    0.881740 0.101891 0.343770 0.081667
H14   H     H_    0.665637 0.603508 0.610989 0.073938
H15   H     H_    0.855218 0.833883 0.550874 0.145850
H16   H     H_    0.166242 0.072092 0.612107 0.183314
H17   H     H_    0.146765 0.157785 0.481354 0.166117
H18   H     H_    0.938958 0.157444 0.487995 0.140111
H19   H     H_    0.218255 0.861765 0.683466 0.336332
H20   H     H_    0.525451 0.896425 0.009899 0.314395
H21   H     H_    0.817176 0.520514 0.724195 0.312776
H22   H     H_    0.195274 0.365604 0.381886 0.316382
H23   H     H_    0.898117 0.876293 0.652379 0.107309
H24   H     H_    0.119944 0.768846 0.245690 0.321717
H25   H     H_    0.812256 0.040676 0.202724 0.121651
H26   H     H_    0.687754 0.048102 0.263411 0.140423
H27   H     H_    0.590084 0.870569 0.286272 0.183255
H28   H     H_    0.594862 0.953159 0.154714 0.100930
H29   H     H_    0.710902 0.864915 0.222096 0.178235
H30   H     H_    0.960298 0.674587 0.582686 0.148534
H31   H     H_    0.010711 0.709977 0.689278 0.148714
H32   H     H_    0.240631 0.692541 0.694415 0.159620
H33   H     H_    0.130405 0.576460 0.706770 0.117388
H34   H     H_    0.388412 0.356982 0.839171 0.116989
H35   H     H_    0.187281 0.655550 0.587430 0.171012
H36   H     H_    0.505847 0.681982 0.764874 0.126163
H37   H     H_    0.533113 0.932130 0.846574 0.118770
H38   H     H_    0.475600 0.638871 0.151251 0.177068
H39   H     H_    0.392183 0.185235 0.968440 0.112141
H40   H     H_    0.421086 0.068917 0.146859 0.127173
N1    N     N_R   0.585360 0.204570 0.560800 -0.246745
N2    N     N_R   0.414550 0.795430 0.439160 -0.264819
O1    O     O_R   0.455060 0.022100 0.338110 -0.514976
O2    O     O_3   0.511480 0.821153 0.040954 -0.726664
O3    O     O_3   0.800586 0.455541 0.714989 -0.724048
O4    O     O_3   0.279401 0.355411 0.428090 -0.759136
O5    O     O_3   0.154924 0.703649 0.273887 -0.714104
O6    O     O_3   0.820800 0.949099 0.356369 -0.545947
O7    O     O_3   0.075835 0.813610 0.549750 -0.545582
O8    O     O_R   0.512640 0.160150 0.379180 -0.513356
O9    O     O_R   0.288900 0.930980 0.479450 -0.468038
O10   O     O_R   0.346480 0.069030 0.520520 -0.506579
O11   O     O_R   0.487360 0.839850 0.620820 -0.514895
O12   O     O_R   0.544940 0.977900 0.661890 -0.503242
O13   O     O_R   0.653520 0.930970 0.479480 -0.473114
O14   O     O_R   0.711100 0.069020 0.520550 -0.517006
O15   O     O_3   0.129907 0.874967 0.679210 -0.729924

loop_
_geom_bond_atom_site_label_1
_geom_bond_atom_site_label_2
_ccdc_geom_bond_type
C20   N1    A    
C40   C41   S    
C17   H36   S    
C15   C47   A    
C44   H31   S    
C7    C8    A    
C39   C41   S    
H24   O5    S    
H21   O3    S    
C12   C23   S    
Cu2   O8    S    
C26   C27   A    
C29   C30   A    
C29   O4    S    
C12   C28   S    
C34   C40   S    
C32   C36   A    
C44   H30   S    
C30   C31   A    
C11   C14   A    
C4    C41   S    
C28   O13   A    
Cu1   O9    S    
C4    O9    A    
C4    O10   A    
C3    C48   A    
C35   H7    S    
C18   C19   A    
C23   H15   S    
C24   C29   A    
C2    C50   A    
C27   O3    S    
C48   H39   S    
C30   H8    S    
C31   C33   A    
C9    C10   A    
C34   H18   S    
C9    H5    S    
C19   N1    A    
C16   O12   A    
C46   H33   S    
C37   H1    S    
C25   C32   A    
Cu2   O12   S    
C21   C22   A    
C12   C38   S    
C7    H4    S    
C16   C47   S    
C14   O2    S    
C44   C46   S    
C39   O7    S    
C40   H17   S    
Cu1   Cu2   S    
C26   H14   S    
C24   C25   A    
H22   O4    S    
C3    C8    A    
C43   H28   S    
C33   O5    S    
C37   H3    S    
C5    C9    A    
C37   C38   S    
C42   O6    S    
C15   H37   S    
C31   C32   A    
C38   H13   S    
C45   C49   A    
C1    O1    A    
C34   H12   S    
Cu2   N1    S    
C50   H2    S    
C10   H38   S    
C16   O11   A    
C46   H32   S    
C38   O6    S    
C48   C49   A    
C42   H26   S    
C22   C27   A    
C43   H29   S    
C2    C5    A    
C42   C43   S    
C49   H40   S    
C12   C34   S    
C46   H35   S    
C35   N2    A    
Cu2   O10   S    
C18   C22   A    
C17   C47   A    
C23   H23   S    
C44   O7    S    
C18   H9    S    
C6    C7    A    
C36   H6    S    
C13   C17   A    
C20   H11   S    
C2    C3    A    
C25   C26   A    
C6    C13   A    
C11   C13   A    
C1    C45   S    
C5    C6    A    
C45   C50   A    
C28   O14   A    
C23   C39   S    
H19   O15   S    
C33   C35   A    
C8    H34   S    
C37   C41   S    
Cu1   O11   S    
C10   C11   A    
Cu1   N2    S    
H20   O2    S    
C36   N2    A    
C39   O15   S    
C20   C21   A    
Cu2   O14   S    
C42   H25   S    
Cu1   O13   S    
C40   H16   S    
C21   C24   A    
C14   C15   A    
C19   H10   S    
C43   H27   S    
C1    O8    A    
Cu1   O1    S    
