data_mof_unit_58468.cif
_audit_creation_date              2012-12-10T17:22:03-0500
_audit_creation_method            fapswitch 2.2
_symmetry_space_group_name_H-M    P1
_symmetry_Int_Tables_number       1
_space_group_crystal_system       triclinic
_cell_length_a                    10.195586
_cell_length_b                    10.649774
_cell_length_c                    15.75763
_cell_angle_alpha                 90.58172
_cell_angle_beta                  81.996134
_cell_angle_gamma                 95.889596
_cell_volume                      1685.34882449

loop_
_atom_site_label
_atom_site_type_symbol
_atom_type_description
_atom_site_fract_x
_atom_site_fract_y
_atom_site_fract_z
_atom_type_partial_charge
C1    C     C_R   0.556538 0.733569 0.497884 0.874997
C2    C     C_2   0.495491 0.932852 0.551250 -0.201178
C3    C     C_2   0.411410 0.132686 0.526594 -0.173915
C4    C     C_R   0.500824 0.500138 0.661255 0.888810
C5    C     C_2   0.507803 0.069062 0.549846 -0.200817
C6    C     C_2   0.924039 0.463818 0.522968 -0.068617
C7    C     C_2   0.073271 0.470700 0.500947 0.039644
C8    C     C_R   0.443671 0.266512 0.509066 0.882648
C9    C     C_R   0.499271 0.500112 0.338745 0.918883
C10   C     C_3   0.510743 0.653730 0.948777 0.134963
C11   C     C_3   0.634422 0.450005 0.937630 -0.071608
C12   C     C_3   0.492934 0.652162 0.052053 0.135394
C13   C     C_3   0.640743 0.458588 0.037327 0.131364
C14   C     C_1   0.498884 0.503579 0.250274 -0.155202
C15   C     C_3   0.508201 0.511321 0.916076 0.183614
C16   C     C_1   0.592009 0.744422 0.086814 0.197268
C17   C     C_3   0.404610 0.725476 0.911973 -0.862869
C18   C     C_3   0.357281 0.698033 0.093513 -0.870571
C19   C     C_1   0.371433 0.291446 0.086549 0.190661
C20   C     C_1   0.280810 0.072299 0.515590 0.204728
C21   C     C_1   0.718983 0.927129 0.471199 0.205259
C22   C     C_1   0.124440 0.377362 0.441567 0.256050
C23   C     C_3   0.506342 0.511122 0.082553 0.117157
C24   C     C_1   0.872230 0.450434 0.612695 0.261232
C25   C     C_3   0.112003 0.647687 0.593636 -0.611483
C26   C     C_1   0.639473 0.724295 0.911290 0.130562
C27   C     C_1   0.896023 0.471950 0.380074 0.329703
C28   C     C_3   0.645738 0.315549 0.899564 -0.867201
C29   C     C_3   0.769792 0.540925 0.053373 -0.941196
C30   C     C_1   0.657059 0.334005 0.074925 0.261716
C31   C     C_3   0.382417 0.424264 0.057649 -0.201901
C32   C     C_3   0.380958 0.431706 0.960044 -0.452414
C33   C     C_1   0.501199 0.507170 0.175028 -0.061043
C34   C     C_1   0.505956 0.506737 0.824451 -0.031600
C35   C     C_1   0.503589 0.503127 0.749560 -0.172851
C36   C     C_2   0.589770 0.867877 0.508678 -0.172211
H1    H     H_    0.604572 0.117090 0.558148 0.192032
H2    H     H_    0.269837 0.650853 0.067403 0.236052
H3    H     H_    0.340334 0.682748 0.163984 0.245182
H4    H     H_    0.355575 0.801024 0.083336 0.250867
H5    H     H_    0.195981 0.720939 0.598527 0.221937
H6    H     H_    0.030819 0.694410 0.570622 0.199725
H7    H     H_    0.079155 0.606472 0.658438 0.200939
H8    H     H_    0.742654 0.283109 0.909489 0.249127
H9    H     H_    0.564828 0.246049 0.929954 0.252037
H10   H     H_    0.643601 0.315028 0.829383 0.255538
H11   H     H_    0.859247 0.491168 0.031448 0.244323
H12   H     H_    0.399887 0.885583 0.579228 0.179622
H13   H     H_    0.786097 0.630418 0.016907 0.247433
H14   H     H_    0.769413 0.562057 0.122610 0.266017
H15   H     H_    0.723789 0.505714 0.902885 0.186573
H16   H     H_    0.289920 0.473249 0.947723 0.175091
H17   H     H_    0.371607 0.336004 0.931036 0.193963
H18   H     H_    0.288941 0.457028 0.090577 0.164936
H19   H     H_    0.302187 0.678510 0.926760 0.235626
H20   H     H_    0.406023 0.823562 0.936796 0.246680
H21   H     H_    0.425695 0.734041 0.840995 0.236454
N1    N     N_2   0.842720 0.448890 0.465540 -0.169089
N2    N     N_1   0.939806 0.491194 0.309061 -0.229811
N3    N     N_1   0.671086 0.237822 0.104222 -0.183088
N4    N     N_2   0.157250 0.551040 0.534500 -0.072395
N5    N     N_1   0.667956 0.816659 0.114148 -0.179540
N6    N     N_1   0.361489 0.187415 0.109194 -0.181120
N7    N     N_1   0.176587 0.024063 0.506830 -0.184996
N8    N     N_1   0.822127 0.974405 0.441309 -0.174018
N9    N     N_1   0.163639 0.302447 0.393418 -0.187914
N10   N     N_1   0.833384 0.439081 0.685106 -0.223998
N11   N     N_1   0.738979 0.779299 0.881812 -0.200149
O1    O     O_R   0.431050 0.692470 0.506940 -0.608791
O2    O     O_R   0.651130 0.659650 0.484820 -0.607639
O3    O     O_R   0.389910 0.516410 0.633920 -0.607288
O4    O     O_R   0.609990 0.483590 0.611800 -0.607770
O5    O     O_R   0.348870 0.340350 0.515180 -0.609084
O6    O     O_R   0.568950 0.307530 0.493060 -0.609735
O7    O     O_R   0.390010 0.516410 0.388200 -0.604588
O8    O     O_R   0.610090 0.483590 0.366080 -0.606523
Zn1   Zn    Zn3+2 0.353060 0.521920 0.514770 0.966541
Zn2   Zn    Zn3+2 0.646940 0.478080 0.485230 0.972863

loop_
_geom_bond_atom_site_label_1
_geom_bond_atom_site_label_2
_ccdc_geom_bond_type
C25   H6    S    
C20   N7    T    
O4    Zn2   S    
C18   H3    S    
C22   N9    T    
C6    C7    S    
C9    O8    A    
C5    H1    S    
O2    Zn2   S    
C7    C22   S    
C11   C13   S    
C6    N1    D    
C15   C34   S    
O1    Zn1   S    
C1    O2    A    
C12   C23   S    
O3    Zn1   S    
C9    C14   S    
C6    C24   S    
C25   H7    S    
C14   C33   T    
C8    O6    A    
C18   H2    S    
C4    C35   S    
C19   C31   S    
C3    C20   S    
C21   C36   S    
C25   N4    S    
C29   H13   S    
O7    Zn1   S    
C17   H20   S    
C10   C26   S    
C30   N3    T    
C16   N5    T    
C11   C28   S    
C29   H11   S    
C12   C18   S    
C17   H19   S    
C10   C12   S    
C11   C15   S    
C13   C29   S    
C8    O5    A    
O8    Zn2   S    
C3    C8    S    
N4    Zn1   S    
C29   H14   S    
C31   H18   S    
C31   C32   S    
C1    O1    A    
C28   H9    S    
C2    C5    S    
C11   H15   S    
N1    Zn2   S    
C10   C17   S    
C25   H5    S    
C23   C31   S    
C32   H17   S    
C4    O4    A    
C18   H4    S    
C13   C30   S    
C13   C23   S    
O5    Zn1   S    
C23   C33   S    
C34   C35   T    
O6    Zn2   S    
C2    C36   D    
C28   H10   S    
C32   H16   S    
C27   N2    T    
C9    O7    A    
C24   N10   T    
C2    H12   S    
C10   C15   S    
C17   H21   S    
C21   N8    T    
C28   H8    S    
C4    O3    A    
C7    N4    D    
C12   C16   S    
C1    C36   S    
C19   N6    T    
C26   N11   T    
C3    C5    D    
C27   N1    S    
C15   C32   S    
