data_mof_unit_13822.cif
_audit_creation_date              2012-12-11T20:51:16-0500
_audit_creation_method            fapswitch 2.2
_symmetry_space_group_name_H-M    P1
_symmetry_Int_Tables_number       1
_space_group_crystal_system       triclinic
_cell_length_a                    30.453901
_cell_length_b                    33.944222
_cell_length_c                    8.404842
_cell_angle_alpha                 89.999755
_cell_angle_beta                  90.011253
_cell_angle_gamma                 90.119528
_cell_volume                      8688.35166717

loop_
_atom_site_label
_atom_site_type_symbol
_atom_type_description
_atom_site_fract_x
_atom_site_fract_y
_atom_site_fract_z
_atom_type_partial_charge
Ba1   Ba    Ba6+2 0.999930 0.472870 0.844940 1.662006
Ba2   Ba    Ba6+2 0.999930 0.527130 0.344940 1.660703
Ba3   Ba    Ba6+2 0.499930 0.972870 0.844940 1.659595
Ba4   Ba    Ba6+2 0.499930 0.027130 0.344940 1.653179
C1    C     C_3   0.018095 0.279674 0.581086 -0.333691
C2    C     C_3   0.014110 0.721243 0.061368 -0.324354
C3    C     C_3   0.516843 0.779875 0.568663 -0.339073
C4    C     C_3   0.512358 0.218743 0.023556 -0.332269
C5    C     C_R   0.246634 0.696771 0.034890 -0.026785
C6    C     C_R   0.245941 0.304987 0.560699 -0.026270
C7    C     C_R   0.746476 0.197096 0.032651 -0.026911
C8    C     C_R   0.746422 0.805130 0.556801 -0.026336
C9    C     C_R   0.214040 0.668704 0.993293 0.590906
C10   C     C_R   0.213416 0.332968 0.518626 0.590885
C11   C     C_R   0.713887 0.169038 0.991054 0.591863
C12   C     C_R   0.713802 0.833084 0.515248 0.591094
C13   C     C_R   0.157874 0.717845 0.018465 0.589553
C14   C     C_R   0.160160 0.281287 0.487422 0.586152
C15   C     C_R   0.657496 0.217802 0.022418 0.590732
C16   C     C_R   0.660204 0.781485 0.490205 0.586979
C17   C     C_R   0.189585 0.746579 0.059581 -0.020333
C18   C     C_R   0.192088 0.252638 0.525263 -0.019151
C19   C     C_R   0.689224 0.246553 0.063406 -0.020891
C20   C     C_R   0.692192 0.752858 0.527586 -0.019390
C21   C     C_R   0.234213 0.735930 0.068034 -0.052773
C22   C     C_R   0.235128 0.264597 0.563329 -0.053591
C23   C     C_R   0.733960 0.236080 0.068762 -0.052749
C24   C     C_R   0.735459 0.764790 0.562290 -0.053520
C25   C     C_R   0.291398 0.686664 0.043824 -0.072112
C26   C     C_R   0.289123 0.316391 0.599647 -0.072360
C27   C     C_R   0.791327 0.187145 0.038680 -0.072084
C28   C     C_R   0.789842 0.816500 0.592374 -0.072264
C29   C     C_R   0.823056 0.215228 0.080093 -0.076027
C30   C     C_R   0.821570 0.788457 0.633416 -0.075994
C31   C     C_R   0.323120 0.714765 0.085198 -0.075838
C32   C     C_R   0.320762 0.288329 0.641221 -0.075652
C33   C     C_R   0.811023 0.254226 0.117004 -0.025232
C34   C     C_R   0.811027 0.748051 0.639692 -0.025596
C35   C     C_R   0.311163 0.753935 0.119250 -0.025420
C36   C     C_R   0.310371 0.247870 0.644618 -0.024140
C37   C     C_R   0.766273 0.264690 0.110994 -0.052257
C38   C     C_R   0.767830 0.736227 0.602985 -0.053399
C39   C     C_R   0.266504 0.764548 0.110341 -0.052461
C40   C     C_R   0.267424 0.236011 0.604525 -0.053483
C41   C     C_R   0.177597 0.785745 0.093299 -0.077383
C42   C     C_R   0.181787 0.212195 0.526697 -0.078584
C43   C     C_R   0.677170 0.285552 0.100018 -0.075963
C44   C     C_R   0.681728 0.712463 0.531794 -0.078426
C45   C     C_3   0.008302 0.313651 0.087802 0.321637
C46   C     C_3   0.007250 0.685426 0.578942 0.336857
C47   C     C_3   0.507258 0.814614 0.079173 0.332158
C48   C     C_3   0.498685 0.177607 0.543845 0.353891
C49   C     C_R   0.708855 0.313617 0.141233 -0.077601
C50   C     C_R   0.713572 0.684453 0.569665 -0.076917
C51   C     C_R   0.209248 0.813806 0.134731 -0.077902
C52   C     C_R   0.213567 0.184168 0.565144 -0.076999
C53   C     C_R   0.753673 0.303631 0.147482 -0.021508
C54   C     C_R   0.756858 0.695909 0.606272 -0.016132
C55   C     C_R   0.253966 0.803653 0.143983 -0.021261
C56   C     C_R   0.256627 0.195646 0.605047 -0.016539
C57   C     C_R   0.786088 0.331616 0.190535 0.582682
C58   C     C_R   0.789189 0.667868 0.647180 0.576795
C59   C     C_R   0.286330 0.831646 0.187272 0.582814
C60   C     C_R   0.288896 0.167584 0.646511 0.577511
C61   C     C_R   0.842666 0.282953 0.160032 0.592613
C62   C     C_R   0.842611 0.719258 0.682123 0.592655
C63   C     C_R   0.342785 0.782693 0.162226 0.592841
C64   C     C_R   0.341879 0.219069 0.687477 0.590095
C65   C     C_2   0.107928 0.656349 0.813936 -0.084996
C66   C     C_2   0.110067 0.345394 0.307479 -0.083762
C67   C     C_2   0.607711 0.156570 0.814579 -0.089831
C68   C     C_2   0.609788 0.845150 0.308598 -0.083594
C69   C     C_3   0.069666 0.632042 0.789718 -0.101110
C70   C     C_3   0.070867 0.368439 0.286663 -0.102832
C71   C     C_3   0.569630 0.132103 0.789627 -0.075120
C72   C     C_3   0.570676 0.868312 0.287424 -0.096910
C73   C     C_1   0.096831 0.588239 0.003109 0.029148
C74   C     C_1   0.096629 0.411639 0.503930 0.031266
C75   C     C_1   0.596763 0.088323 0.003467 0.024788
C76   C     C_1   0.596668 0.911640 0.504049 0.029101
C77   C     C_2   0.129996 0.614306 0.041988 -0.095375
C78   C     C_2   0.128623 0.384850 0.546708 -0.092343
C79   C     C_2   0.630015 0.114337 0.041915 -0.098283
C80   C     C_2   0.629010 0.885102 0.545847 -0.093998
C81   C     C_2   0.136752 0.650227 0.943247 0.229130
C82   C     C_2   0.137249 0.350148 0.442526 0.218251
C83   C     C_2   0.636575 0.150374 0.943706 0.226439
C84   C     C_2   0.637370 0.850228 0.442404 0.218038
C85   C     C_R   0.885519 0.345037 0.382005 -0.099361
C86   C     C_R   0.884721 0.654397 0.881609 -0.107016
C87   C     C_R   0.385374 0.845156 0.382365 -0.100571
C88   C     C_R   0.384017 0.153908 0.884094 -0.107389
C89   C     C_3   0.989952 0.276349 0.012545 -0.310491
C90   C     C_3   0.992375 0.724111 0.505080 -0.331346
C91   C     C_3   0.492886 0.775540 0.006729 -0.322892
C92   C     C_3   0.489959 0.220629 0.505098 -0.350872
C93   C     C_R   0.918856 0.374436 0.429965 -0.065121
C94   C     C_R   0.917581 0.624768 0.931711 -0.057847
C95   C     C_R   0.418532 0.874675 0.430686 -0.059879
C96   C     C_R   0.416963 0.124348 0.933894 -0.044975
C97   C     C_R   0.903411 0.412021 0.190697 0.047092
C98   C     C_R   0.903649 0.587913 0.690039 0.041342
C99   C     C_R   0.403402 0.912041 0.190701 0.045946
C100  C     C_R   0.403533 0.087848 0.690757 0.036277
C101  C     C_R   0.870819 0.384008 0.150306 -0.094252
C102  C     C_R   0.872563 0.616644 0.644847 -0.095352
C103  C     C_R   0.370960 0.883931 0.149893 -0.094440
C104  C     C_R   0.372381 0.116561 0.645903 -0.105316
C105  C     C_R   0.862917 0.350067 0.244929 0.234655
C106  C     C_R   0.863700 0.650298 0.740170 0.214090
C107  C     C_R   0.362992 0.850029 0.244713 0.232624
C108  C     C_R   0.363199 0.149997 0.742158 0.209200
C109  C     C_2   0.068158 0.596167 0.879727 -0.266147
C110  C     C_2   0.069024 0.404273 0.376731 -0.269850
C111  C     C_2   0.567879 0.096420 0.880944 -0.270588
C112  C     C_2   0.568709 0.904037 0.378141 -0.270580
C113  C     C_3   0.123865 0.474192 0.173656 0.300054
C114  C     C_3   0.123859 0.525876 0.674066 0.296438
C115  C     C_3   0.623950 0.974304 0.174630 0.299273
C116  C     C_3   0.624027 0.025684 0.675862 0.295502
C117  C     C_3   0.164313 0.448011 0.177703 -0.338491
C118  C     C_3   0.164261 0.552263 0.678602 -0.332792
C119  C     C_3   0.664383 0.948101 0.178423 -0.336456
C120  C     C_3   0.664412 0.052102 0.679700 -0.330355
C121  C     C_3   0.873509 0.526962 0.032388 0.295480
C122  C     C_3   0.874185 0.473521 0.521598 0.357674
C123  C     C_3   0.373527 0.027083 0.034487 0.294355
C124  C     C_3   0.374080 0.973545 0.521638 0.359424
C125  C     C_3   0.837481 0.554576 0.092915 -0.041307
C126  C     C_3   0.837356 0.444454 0.563609 -0.025875
C127  C     C_3   0.337633 0.054558 0.097080 -0.041353
C128  C     C_3   0.337274 0.944511 0.564245 -0.025654
C129  C     C_3   0.001604 0.321487 0.557513 0.341791
C130  C     C_3   0.001676 0.677893 0.053787 0.346702
C131  C     C_3   0.502882 0.822745 0.557916 0.349068
C132  C     C_3   0.505053 0.175050 0.053930 0.342015
C133  C     C_R   0.928127 0.406948 0.320628 -0.293219
C134  C     C_R   0.927056 0.592309 0.823165 -0.292978
C135  C     C_R   0.427923 0.907105 0.321161 -0.295449
C136  C     C_R   0.426735 0.092102 0.824497 -0.292970
H1    H     H_    0.029944 0.342048 0.566310 0.039430
H2    H     H_    0.031471 0.659839 0.075650 0.054840
H3    H     H_    0.531972 0.841801 0.579799 0.049821
H4    H     H_    0.535701 0.161929 0.102205 0.073692
H5    H     H_    0.189433 0.460880 0.258302 0.136101
H6    H     H_    0.189259 0.539603 0.760010 0.136305
H7    H     H_    0.689635 0.961056 0.258271 0.135826
H8    H     H_    0.689709 0.039247 0.759364 0.135622
H9    H     H_    0.155469 0.418245 0.221357 0.074205
H10   H     H_    0.155270 0.582040 0.721523 0.079498
H11   H     H_    0.655575 0.918395 0.222879 0.075314
H12   H     H_    0.655543 0.081749 0.724384 0.080380
H13   H     H_    0.178303 0.445209 0.056207 0.135880
H14   H     H_    0.178463 0.555011 0.557379 0.135630
H15   H     H_    0.678191 0.945137 0.056705 0.136086
H16   H     H_    0.678183 0.055192 0.557963 0.136468
H17   H     H_    0.874895 0.527933 0.901001 -0.002670
H18   H     H_    0.877587 0.475639 0.391015 -0.029666
H19   H     H_    0.374825 0.028510 0.903159 -0.002521
H20   H     H_    0.377335 0.975656 0.391004 -0.030006
H21   H     H_    0.905084 0.537657 0.082555 0.036267
H22   H     H_    0.905090 0.461715 0.572992 0.014218
H23   H     H_    0.405157 0.037562 0.084884 0.037809
H24   H     H_    0.405033 0.961735 0.572637 0.013053
H25   H     H_    0.845139 0.585456 0.059157 0.044231
H26   H     H_    0.841699 0.416492 0.497104 0.027757
H27   H     H_    0.345600 0.085591 0.066796 0.044467
H28   H     H_    0.341487 0.916543 0.497692 0.026656
H29   H     H_    0.836977 0.553534 0.224964 0.112286
H30   H     H_    0.839893 0.437470 0.692560 0.095388
H31   H     H_    0.336890 0.052706 0.228968 0.112480
H32   H     H_    0.339975 0.937525 0.693138 0.095132
H33   H     H_    0.986816 0.323101 0.436647 -0.074379
H34   H     H_    0.988887 0.672104 0.931946 -0.081219
H35   H     H_    0.490288 0.827697 0.435351 -0.082016
H36   H     H_    0.497558 0.161381 0.937087 -0.069803
H37   H     H_    0.038181 0.270794 0.477104 0.130332
H38   H     H_    0.035450 0.728888 0.959009 0.124802
H39   H     H_    0.538155 0.772477 0.466017 0.132852
H40   H     H_    0.535769 0.222637 0.923551 0.119695
H41   H     H_    0.038514 0.277926 0.690365 0.144030
H42   H     H_    0.031938 0.727546 0.173599 0.146054
H43   H     H_    0.535254 0.774674 0.680693 0.140349
H44   H     H_    0.526056 0.233185 0.131178 0.140447
H45   H     H_    0.971019 0.259507 0.102722 0.114410
H46   H     H_    0.971142 0.740130 0.590957 0.113275
H47   H     H_    0.471595 0.759553 0.092605 0.116956
H48   H     H_    0.458495 0.229931 0.559923 0.129293
H49   H     H_    0.698057 0.343249 0.168618 0.119901
H50   H     H_    0.704019 0.653696 0.571283 0.122228
H51   H     H_    0.198503 0.843567 0.159882 0.119684
H52   H     H_    0.204144 0.153377 0.564559 0.122304
H53   H     H_    0.143564 0.794880 0.087902 0.119048
H54   H     H_    0.149015 0.202006 0.497698 0.120802
H55   H     H_    0.643062 0.294555 0.097011 0.120014
H56   H     H_    0.648782 0.702297 0.505395 0.120958
H57   H     H_    0.857159 0.206223 0.083412 0.118939
H58   H     H_    0.854481 0.798592 0.660524 0.120185
H59   H     H_    0.357153 0.705639 0.090782 0.119281
H60   H     H_    0.353489 0.298490 0.670978 0.121055
H61   H     H_    0.879052 0.319896 0.457794 0.089489
H62   H     H_    0.877545 0.679009 0.959190 0.102134
H63   H     H_    0.378850 0.820066 0.458361 0.090884
H64   H     H_    0.376635 0.178345 0.962318 0.105099
H65   H     H_    0.302105 0.656886 0.018917 0.124265
H66   H     H_    0.298608 0.347162 0.598712 0.124714
H67   H     H_    0.802099 0.157502 0.011476 0.124116
H68   H     H_    0.799449 0.847231 0.589163 0.124350
H69   H     H_    0.150362 0.609247 0.145975 0.105185
H70   H     H_    0.146641 0.388487 0.657173 0.115852
H71   H     H_    0.650547 0.109189 0.145412 0.105961
H72   H     H_    0.647437 0.889012 0.655287 0.115186
H73   H     H_    0.111789 0.682639 0.741686 0.093017
H74   H     H_    0.115741 0.320747 0.227831 0.103637
H75   H     H_    0.611399 0.182997 0.743010 0.095682
H76   H     H_    0.615141 0.820227 0.230063 0.103763
H77   H     H_    0.851351 0.388601 0.044133 0.094579
H78   H     H_    0.854920 0.612636 0.534208 0.121351
H79   H     H_    0.351652 0.888423 0.043264 0.096625
H80   H     H_    0.354927 0.112691 0.534799 0.124428
H81   H     H_    0.952755 0.428480 0.353364 0.072993
H82   H     H_    0.950786 0.570306 0.858494 0.071982
H83   H     H_    0.452462 0.928697 0.354141 0.073701
H84   H     H_    0.450517 0.070123 0.859596 0.073969
H85   H     H_    0.989899 0.258982 0.591557 0.112388
H86   H     H_    0.984183 0.739747 0.055436 0.113215
H87   H     H_    0.487522 0.760366 0.565319 0.113763
H88   H     H_    0.480826 0.233027 0.990805 0.122581
H89   H     H_    0.039478 0.577547 0.863946 0.073551
H90   H     H_    0.040325 0.422730 0.360343 0.072243
H91   H     H_    0.539025 0.077972 0.866036 0.075683
H92   H     H_    0.539846 0.922331 0.362613 0.072986
H93   H     H_    0.980305 0.332705 0.124265 0.018648
H94   H     H_    0.977795 0.666450 0.600270 0.026485
H95   H     H_    0.477569 0.833386 0.098645 0.032627
H96   H     H_    0.471743 0.159192 0.494271 0.083825
H97   H     H_    0.027301 0.304406 0.194261 -0.026245
H98   H     H_    0.023154 0.693080 0.694248 -0.041015
H99   H     H_    0.522998 0.807483 0.195504 -0.037198
H100  H     H_    0.498412 0.175101 0.675384 -0.066844
H101  H     H_    0.967667 0.283759 0.912743 0.167288
H102  H     H_    0.973103 0.718657 0.395056 0.160346
H103  H     H_    0.473886 0.780453 0.895717 0.162236
H104  H     H_    0.487683 0.224979 0.374879 0.146499
H105  H     H_    0.017157 0.257543 0.968445 0.102106
H106  H     H_    0.021402 0.742862 0.476483 0.108108
H107  H     H_    0.522131 0.757006 0.980142 0.105488
H108  H     H_    0.516859 0.239318 0.553038 0.112168
H109  H     H_    0.111018 0.477358 0.295917 0.004075
H110  H     H_    0.110896 0.522659 0.796167 0.003392
H111  H     H_    0.611275 0.977606 0.297059 0.005319
H112  H     H_    0.611481 0.022168 0.798362 0.005251
H113  H     H_    0.098737 0.460038 0.096947 0.080720
H114  H     H_    0.098762 0.539909 0.597190 0.082311
H115  H     H_    0.598685 0.960106 0.098667 0.081389
H116  H     H_    0.598638 0.039830 0.600650 0.081689
N1    N     N_R   0.170166 0.679393 0.984959 -0.425857
N2    N     N_R   0.170893 0.321062 0.482853 -0.424723
N3    N     N_R   0.669922 0.179553 0.985694 -0.425785
N4    N     N_R   0.671078 0.821195 0.482645 -0.424657
N5    N     N_R   0.830050 0.321157 0.196876 -0.425308
N6    N     N_R   0.831410 0.679552 0.688712 -0.422347
N7    N     N_R   0.330209 0.821059 0.196442 -0.425059
N8    N     N_R   0.330898 0.179285 0.690924 -0.421795
O1    O     O_2   0.914200 0.445720 0.903420 -0.456341
O2    O     O_2   0.914200 0.554280 0.403420 -0.469109
O3    O     O_2   0.414200 0.945720 0.903420 -0.456383
O4    O     O_2   0.414200 0.054280 0.403420 -0.472041
O5    O     O_3   0.135867 0.489027 0.613589 -0.624967
O6    O     O_3   0.135820 0.511091 0.113204 -0.627221
O7    O     O_3   0.635884 0.988998 0.613492 -0.625167
O8    O     O_3   0.635845 0.011126 0.113283 -0.627223
O9    O     O_3   0.035744 0.333392 0.978959 -0.560781
O10   O     O_3   0.037272 0.666416 0.477042 -0.560665
O11   O     O_3   0.537319 0.833580 0.976829 -0.564033
O12   O     O_3   0.539164 0.166102 0.477514 -0.574305
O13   O     O_3   0.049930 0.518940 0.045960 -0.497649
O14   O     O_3   0.049930 0.481060 0.545960 -0.497936
O15   O     O_3   0.549930 0.018940 0.045960 -0.497038
O16   O     O_3   0.549930 0.981060 0.545960 -0.497116
O17   O     O_2   0.224797 0.634862 0.963086 -0.592593
O18   O     O_2   0.223148 0.367870 0.512197 -0.593525
O19   O     O_2   0.724717 0.135354 0.958241 -0.592246
O20   O     O_2   0.723620 0.867936 0.506458 -0.593441
O21   O     O_2   0.119154 0.727010 0.014322 -0.621124
O22   O     O_2   0.122535 0.270747 0.460480 -0.623056
O23   O     O_2   0.618668 0.226750 0.021309 -0.617283
O24   O     O_2   0.622406 0.770991 0.466346 -0.622461
O25   O     O_2   0.775100 0.365204 0.224190 -0.616325
O26   O     O_2   0.779506 0.632964 0.646738 -0.628301
O27   O     O_2   0.275358 0.865368 0.218635 -0.617228
O28   O     O_2   0.279337 0.132654 0.644066 -0.627047
O29   O     O_2   0.881507 0.274004 0.163997 -0.611340
O30   O     O_2   0.880215 0.729546 0.711681 -0.609546
O31   O     O_2   0.381569 0.773628 0.168443 -0.610316
O32   O     O_2   0.379239 0.229442 0.720348 -0.613248
O33   O     O_3   0.950020 0.480960 0.143730 -0.490926
O34   O     O_3   0.950020 0.519040 0.643730 -0.488909
O35   O     O_3   0.450020 0.980960 0.143730 -0.490812
O36   O     O_3   0.450020 0.019040 0.643730 -0.487521
O37   O     O_3   0.985090 0.412220 0.642040 -0.473164
O38   O     O_3   0.985090 0.587780 0.142040 -0.474461
O39   O     O_3   0.485090 0.912220 0.642040 -0.474734
O40   O     O_3   0.485090 0.087780 0.142040 -0.477719
O41   O     O_2   0.911243 0.381050 0.759862 -0.479680
O42   O     O_2   0.911542 0.619089 0.262674 -0.482659
O43   O     O_2   0.411408 0.880823 0.761352 -0.480634
O44   O     O_2   0.412397 0.120094 0.267066 -0.492303
O45   O     O_3   0.863398 0.488504 0.080431 -0.654794
O46   O     O_3   0.863834 0.510717 0.582834 -0.631025
O47   O     O_3   0.363345 0.988464 0.080221 -0.653984
O48   O     O_3   0.363815 0.010742 0.582974 -0.629379
O49   O     O_3   0.970669 0.330259 0.676084 -0.571868
O50   O     O_3   0.970188 0.669862 0.171552 -0.577807
O51   O     O_3   0.470636 0.830226 0.673420 -0.576296
O52   O     O_3   0.470910 0.170103 0.164835 -0.591972
O53   O     O_2   0.085560 0.445380 0.786390 -0.451249
O54   O     O_2   0.085560 0.554620 0.286390 -0.450541
O55   O     O_2   0.585560 0.945380 0.786390 -0.450581
O56   O     O_2   0.585560 0.054620 0.286390 -0.449454
O57   O     O_3   0.014550 0.412170 0.047860 -0.463788
O58   O     O_3   0.014550 0.587830 0.547860 -0.466393
O59   O     O_3   0.514550 0.912170 0.047860 -0.466621
O60   O     O_3   0.514550 0.087830 0.547860 -0.479226
O61   O     O_2   0.095578 0.388576 0.972935 -0.483120
O62   O     O_2   0.096331 0.610715 0.478988 -0.481431
O63   O     O_2   0.596210 0.889516 0.976366 -0.483110
O64   O     O_2   0.597235 0.109639 0.481359 -0.481446
P1    P     P_3+3 0.909970 0.458430 0.077330 0.988207
P2    P     P_3+3 0.909970 0.541570 0.577330 0.986618
P3    P     P_3+3 0.409970 0.958430 0.077330 0.988505
P4    P     P_3+3 0.409970 0.041570 0.577330 0.985414
P5    P     P_3+3 0.089830 0.458070 0.612460 0.995261
P6    P     P_3+3 0.089830 0.541930 0.112460 0.993543
P7    P     P_3+3 0.589830 0.958070 0.612460 0.995035
P8    P     P_3+3 0.589830 0.041930 0.112460 0.993049
P9    P     P_3+3 0.055167 0.376117 0.072435 0.966291
P10   P     P_3+3 0.055424 0.623790 0.574221 0.966859
P11   P     P_3+3 0.555517 0.876397 0.072945 0.963884
P12   P     P_3+3 0.556140 0.123143 0.574442 0.960088
P13   P     P_3+3 0.945165 0.624911 0.126912 0.971319
P14   P     P_3+3 0.945536 0.374776 0.626683 0.974267
P15   P     P_3+3 0.445174 0.124956 0.127941 0.957129
P16   P     P_3+3 0.445414 0.874883 0.626945 0.973835
N9    N     N_2   0.794471 0.543201 0.033890 -0.436586
H117  H     H_    0.785931 0.514085 0.050523 0.225567
C137  C     C_3   0.782174 0.559080 0.881025 -0.179295
H118  H     H_    0.748309 0.549528 0.850784 0.120321
H119  H     H_    0.804932 0.548635 0.786965 0.135208
H120  H     H_    0.782702 0.591669 0.887085 0.163479
N10   N     N_2   0.794023 0.460482 0.532512 -0.400404
H121  H     H_    0.769528 0.445027 0.590055 0.206311
C138  C     C_3   0.783587 0.468113 0.367466 -0.178590
H122  H     H_    0.804120 0.492579 0.322104 0.132141
H123  H     H_    0.748676 0.477132 0.356906 0.105293
H124  H     H_    0.788977 0.441356 0.294088 0.146384
N11   N     N_2   0.294636 0.043887 0.035906 -0.436826
H125  H     H_    0.285718 0.014788 0.050413 0.225267
C139  C     C_3   0.283008 0.060438 0.883480 -0.176491
H126  H     H_    0.248832 0.051915 0.852709 0.122095
H127  H     H_    0.305427 0.049504 0.789254 0.134582
H128  H     H_    0.284716 0.093009 0.890367 0.160026
N12   N     N_2   0.293930 0.960602 0.533897 -0.400103
H129  H     H_    0.269511 0.945391 0.592865 0.205802
C140  C     C_3   0.283115 0.967808 0.368904 -0.181052
H130  H     H_    0.303860 0.991862 0.321335 0.131981
H131  H     H_    0.248300 0.977189 0.359232 0.105678
H132  H     H_    0.287903 0.940751 0.296840 0.148200

loop_
_geom_bond_atom_site_label_1
_geom_bond_atom_site_label_2
_ccdc_geom_bond_type
C77   H69   S    
N11   H125  S    
O48   P4    S    
C51   C55   A    
C118  H14   S    
Ba1   O37   S    
C38   C54   A    
Ba2   O13   S    
O55   P7    D    
C127  H31   S    
C94   C134  S    
C43   H55   S    
C15   N3    Am   
C60   N8    Am   
C70   C110  A    
C100  P4    S    
O49   P14   S    
C47   H95   S    
C16   O24   D    
C5    C9    A    
C92   H104  S    
O42   P13   D    
C7    C11   A    
C8    C12   A    
Ba1   O53   S    
C66   C70   A    
Ba3   O55   S    
C130  O50   S    
C43   C49   A    
C114  O5    S    
Ba1   P1    S    
C45   O9    S    
C73   C109  A    
C138  H123  S    
C94   P13   S    
O5    P5    S    
O34   P2    S    
C5    C21   A    
C66   H74   S    
C80   C84   S    
Ba1   O34   S    
C45   H97   S    
C114  H110  S    
C83   N3    S    
C97   C133  D    
C118  H6    S    
C13   C17   A    
C100  C136  D    
C115  H115  S    
C51   H51   S    
C12   O20   D    
C15   C19   A    
C27   H67   S    
C4    H40   S    
Ba3   O15   S    
C7    C23   A    
C127  N11   S    
N10   C138  S    
Ba2   O38   S    
C89   H105  S    
C108  N8    S    
C103  H79   S    
C131  O51   S    
C101  H77   S    
Ba4   O16   S    
C99   P3    S    
C71   C111  A    
C121  O45   S    
C48   H96   S    
C135  H83   S    
C130  H34   S    
C46   C90   S    
C116  H112  S    
C63   N7    Am   
C53   C57   A    
C14   O22   D    
C115  C119  S    
C25   C31   A    
C55   C59   A    
Ba2   P2    S    
C26   C32   A    
C56   C60   A    
O39   P16   S    
C57   N5    Am   
C140  H130  S    
C3    H87   S    
C1    H85   S    
O9    P9    S    
C3    H43   S    
O6    P6    S    
C123  C127  S    
O61   P9    D    
C121  C125  S    
C139  H126  S    
C99   C103  A    
C128  H32   S    
C45   C89   S    
C129  H33   S    
C47   C91   S    
C86   H62   S    
C132  H36   S    
C44   H56   S    
C75   C111  A    
N10   H121  S    
C21   C39   A    
C4    H88   S    
C22   C40   A    
C1    C129  S    
C2    H42   S    
C40   C56   A    
C12   N4    Am   
C134  H82   S    
Ba2   O2    S    
C69   P10   S    
C124  H24   S    
C25   H65   S    
C114  C118  S    
C9    N1    Am   
O51   P16   S    
C91   H107  S    
O46   P2    S    
C113  H113  S    
Ba3   O59   S    
C117  H9    S    
C33   C61   A    
C96   P15   S    
C28   H68   S    
Ba4   O56   S    
C39   C55   A    
C131  H3    S    
C127  H27   S    
C112  H92   S    
C95   C135  S    
O1    P1    D    
C93   C133  S    
O52   P15   S    
C42   H54   S    
C17   C41   A    
C74   P5    S    
C19   C43   A    
C20   C44   A    
C76   C112  A    
C6    C10   A    
C140  H132  S    
C136  H84   S    
Ba2   O54   S    
C115  H111  S    
O58   P10   S    
Ba1   P5    S    
C30   H58   S    
Ba3   P7    S    
O40   P15   S    
O64   P12   D    
C18   C22   A    
C6    C26   A    
Ba2   O33   S    
C13   N1    Am   
Ba3   Ba4   S    
O50   P13   S    
C64   N8    Am   
C65   C81   A    
C101  C105  A    
C50   H50   S    
C14   C18   A    
C103  C107  A    
O44   P15   D    
O45   P1    S    
C90   H46   S    
Ba2   O14   S    
C109  H89   S    
C113  C117  S    
C47   O11   S    
C60   O28   D    
C81   N1    S    
O4    P4    D    
C89   H101  S    
C137  H120  S    
O2    P2    D    
C9    O17   D    
C67   H75   S    
C72   P11   S    
C139  H128  S    
C33   C37   A    
C122  O46   S    
C48   H100  S    
C36   C40   A    
C41   C51   A    
C42   C52   A    
C87   C95   S    
C49   H49   S    
C77   C81   S    
C78   H70   S    
C54   C58   A    
C79   C83   S    
C52   H52   S    
Ba2   P6    S    
C4    C132  S    
C129  O49   S    
C76   C80   A    
C138  H122  S    
C91   H47   S    
C48   O12   S    
C119  H15   S    
C120  H8    S    
C124  H20   S    
C58   O26   D    
C117  H13   S    
C8    C24   A    
C118  H10   S    
C102  C106  A    
C121  H17   S    
C122  C126  S    
C133  H81   S    
C69   C109  A    
Ba4   O40   S    
C46   H94   S    
C82   N2    S    
C17   C21   A    
O7    P7    S    
N12   H129  S    
C65   C69   A    
N9    C137  S    
C88   H64   S    
O47   P3    S    
N11   C139  S    
C2    H38   S    
O35   P3    S    
C74   C110  A    
C1    H41   S    
C126  N10   S    
O63   P11   D    
C41   H53   S    
C119  H11   S    
Ba4   P4    S    
Ba3   O3    S    
C31   H59   S    
C75   P8    S    
C20   C24   A    
C65   H73   S    
C10   N2    Am   
C137  H118  S    
C49   C53   A    
C88   C108  D    
C78   C82   S    
C29   C33   A    
C104  C108  A    
O8    P8    S    
O60   P12   S    
C107  N7    S    
C31   C35   A    
C130  H2    S    
C126  H26   S    
C73   C77   A    
C90   H106  S    
C67   C83   A    
C102  H78   S    
O12   P12   S    
C71   P12   S    
C105  N5    S    
C100  C104  A    
C138  H124  S    
C123  H23   S    
O41   P14   D    
O54   P6    D    
C121  H21   S    
C32   H60   S    
C59   N7    Am   
N12   C140  S    
Ba1   O57   S    
C80   H72   S    
Ba4   O4    S    
Ba3   P3    S    
C129  H1    S    
C125  H25   S    
C37   C53   A    
Ba1   O14   S    
C132  H4    S    
C75   C79   A    
Ba3   O16   S    
C126  H30   S    
C2    H86   S    
O10   P10   S    
O62   P10   D    
Ba3   O36   S    
C14   N2    Am   
C84   N4    S    
O33   P1    S    
C104  H80   S    
C52   C56   A    
C36   C64   A    
C63   O31   D    
Ba4   O15   S    
C62   O30   D    
C47   H99   S    
C62   N6    Am   
C92   H108  S    
C87   H63   S    
C28   C30   A    
C89   H45   S    
C85   H61   S    
O59   P11   S    
C92   H48   S    
C11   O19   D    
C68   H76   S    
C68   C72   A    
C58   N6    Am   
C113  O6    S    
C97   P1    S    
C132  O52   S    
C46   H98   S    
C44   C50   A    
C115  O8    S    
C116  O7    S    
C125  H29   S    
C34   C38   A    
C140  H131  S    
C70   P9    S    
C26   H66   S    
C85   C105  D    
C76   P7    S    
Ba1   Ba2   S    
C98   C134  D    
C87   C107  D    
O36   P4    S    
C74   C78   A    
C45   H93   S    
C96   C136  S    
C16   C20   A    
O53   P5    D    
Ba2   O58   S    
O13   P6    S    
C27   C29   A    
C98   C102  A    
Ba4   O35   S    
C19   C23   A    
O15   P8    S    
C114  H114  S    
C111  H91   S    
C5    C25   A    
O38   P13   S    
C4    H44   S    
C120  H12   S    
C7    C27   A    
C8    C28   A    
C59   O27   D    
O56   P8    D    
C46   O10   S    
C10   O18   D    
O11   P11   S    
C124  C128  S    
Ba3   O39   S    
C68   C84   A    
C122  H18   S    
C97   C101  A    
C34   C62   A    
C32   C36   A    
C35   C39   A    
C85   C93   S    
C131  H35   S    
C116  H116  S    
C3    C131  S    
C99   C135  D    
C137  H119  S    
C13   O21   D    
C23   C37   A    
O16   P7    S    
O57   P9    S    
C29   H57   S    
C15   O23   D    
Ba1   O13   S    
C98   P2    S    
C3    H39   S    
C139  H127  S    
C73   P6    S    
C113  H109  S    
C1    H37   S    
C16   N4    Am   
C119  H7    S    
Ba4   P8    S    
C120  H16   S    
C128  N12   S    
C117  H5    S    
C86   C106  D    
C66   C82   A    
C123  H19   S    
C11   N3    Am   
C88   C96   S    
C50   C54   A    
C18   C42   A    
C30   C34   A    
C35   C63   A    
C128  H28   S    
O14   P5    S    
O43   P16   D    
C110  H90   S    
C123  O47   S    
C124  O48   S    
O37   P14   S    
C90   H102  S    
C2    C130  S    
O3    P3    D    
C67   C71   A    
C6    C22   A    
C57   O25   D    
C64   O32   D    
C24   C38   A    
C72   C112  A    
C48   C92   S    
C93   P14   S    
C106  N6    S    
C95   P16   S    
C61   O29   D    
Ba1   O1    S    
Ba4   O60   S    
C125  N9    S    
C61   N5    Am   
N9    H117  S    
C122  H22   S    
C86   C94   S    
C79   H71   S    
C116  C120  S    
C91   H103  S    
