data_mof_unit_5263.cif
_audit_creation_date              2012-12-10T19:00:42-0500
_audit_creation_method            fapswitch 2.2
_symmetry_space_group_name_H-M    P1
_symmetry_Int_Tables_number       1
_space_group_crystal_system       triclinic
_cell_length_a                    15.009647
_cell_length_b                    10.821823
_cell_length_c                    9.577733
_cell_angle_alpha                 89.854784
_cell_angle_beta                  89.926382
_cell_angle_gamma                 90.353151
_cell_volume                      1555.69200273

loop_
_atom_site_label
_atom_site_type_symbol
_atom_type_description
_atom_site_fract_x
_atom_site_fract_y
_atom_site_fract_z
_atom_type_partial_charge
C1    C     C_R   0.500945 0.262512 0.500115 0.833367
C2    C     C_R   0.907532 0.586621 0.449971 0.143414
C3    C     C_R   0.952716 0.263488 0.571637 0.422014
C4    C     C_R   0.045517 0.266097 0.571991 -0.266981
C5    C     C_R   0.094060 0.373223 0.537725 0.026100
C6    C     C_R   0.046733 0.479404 0.494945 0.042737
C7    C     C_R   0.093431 0.586936 0.452126 0.117731
C8    C     C_R   0.047361 0.691693 0.407558 -0.169693
C9    C     C_R   0.955011 0.691428 0.406163 -0.158846
C10   C     C_R   0.188682 0.376673 0.542624 0.117832
C11   C     C_R   0.232915 0.486520 0.500423 -0.080809
C12   C     C_R   0.329202 0.496332 0.500131 0.830028
C13   C     C_R   0.185796 0.588968 0.454229 -0.249245
C14   C     C_R   0.511877 0.063466 0.624982 0.121182
C15   C     C_R   0.507880 0.129461 0.499792 -0.046140
C16   C     C_R   0.513775 0.064876 0.373021 -0.190326
C17   C     C_R   0.512544 0.936283 0.372972 -0.209593
C18   C     C_R   0.505940 0.870898 0.499444 -0.052680
C19   C     C_R   0.509820 0.936344 0.624783 0.045013
C20   C     C_3   0.451972 0.931078 0.752305 0.211068
C21   C     C_3   0.455285 0.071561 0.753028 -0.494418
C22   C     C_R   0.574599 0.470961 0.072729 0.241102
C23   C     C_R   0.500230 0.737544 0.499850 0.830412
C24   C     C_R   0.424285 0.524394 0.074189 -0.092459
C25   C     C_R   0.424580 0.526015 0.925865 -0.058215
C26   C     C_R   0.573473 0.464218 0.926218 0.239224
C27   C     C_3   0.665942 0.514714 0.913699 -0.454869
C28   C     C_3   0.664824 0.532672 0.071411 -0.125299
C29   C     C_R   0.670825 0.498030 0.499893 0.867816
C30   C     C_R   0.815355 0.589220 0.450110 -0.316668
C31   C     C_R   0.767002 0.488538 0.499269 -0.147022
C32   C     C_R   0.809288 0.380018 0.545163 0.348730
C33   C     C_R   0.903867 0.371957 0.538187 -0.058971
C34   C     C_R   0.952613 0.478886 0.494472 -0.035251
Cu1   Cu    Cu3+1 0.500000 0.499980 0.640670 0.978311
Cu2   Cu    Cu3+1 0.500000 0.500020 0.359330 0.945719
H1    H     H_    0.780679 0.671548 0.415668 0.142744
H2    H     H_    0.512351 0.888792 0.273961 0.166014
H3    H     H_    0.485703 0.888409 0.843349 0.121746
H4    H     H_    0.390177 0.116539 0.733224 0.219782
H5    H     H_    0.492957 0.109777 0.843140 0.182838
H6    H     H_    0.363398 0.546560 0.128552 0.160217
H7    H     H_    0.364063 0.549941 0.871531 0.175221
H8    H     H_    0.713407 0.441984 0.880397 0.208757
H9    H     H_    0.671089 0.599969 0.849899 0.220934
H10   H     H_    0.715680 0.474854 0.124442 0.159491
H11   H     H_    0.078776 0.180819 0.597360 0.199420
H12   H     H_    0.221706 0.671497 0.421363 0.159559
H13   H     H_    0.082853 0.774183 0.374167 0.159188
H14   H     H_    0.920565 0.773807 0.371738 0.165210
H15   H     H_    0.515082 0.113007 0.273743 0.165724
N1    N     N_R   0.500570 0.500930 0.147930 -0.191240
N2    N     N_R   0.500570 0.500890 0.852020 -0.190147
O1    O     O_R   0.500000 0.319640 0.618810 -0.567544
O2    O     O_R   0.500010 0.319680 0.381230 -0.590208
O3    O     O_R   0.370250 0.499950 0.618800 -0.586695
O4    O     O_R   0.370260 0.499990 0.381220 -0.591971
O5    O     O_R   0.499990 0.680320 0.618770 -0.561897
O6    O     O_R   0.500000 0.680360 0.381190 -0.596240
O7    O     O_R   0.629740 0.500010 0.618780 -0.565205
O8    O     O_R   0.629750 0.500050 0.381200 -0.600795
Cl1   Cl    Cl    0.342536 0.871546 0.719017 -0.635926
Cl2   Cl    Cl    0.739732 0.261728 0.614578 -0.573111
C35   C     C_3   0.670140 0.670196 0.117261 -0.299411
C36   C     C_3   0.602079 0.758350 0.052008 -0.794496
H16   H     H_    0.606699 0.761051 0.936774 0.239931
H17   H     H_    0.533292 0.733260 0.083218 0.260847
H18   H     H_    0.615900 0.853487 0.089547 0.224901
H19   H     H_    0.663357 0.676390 0.232021 0.220797
H20   H     H_    0.737951 0.705211 0.091446 0.200512
Cl3   Cl    Cl    0.906263 0.115955 0.604548 -0.539522
C37   C     C_3   0.242627 0.264309 0.588065 -0.435971
C38   C     C_3   0.257308 0.175859 0.466345 -0.791821
H21   H     H_    0.192767 0.143286 0.423126 0.262715
H22   H     H_    0.295916 0.222806 0.382354 0.245808
H23   H     H_    0.295571 0.094401 0.502636 0.272158
H24   H     H_    0.308636 0.290975 0.629723 0.205132
H25   H     H_    0.210640 0.215713 0.677200 0.218237

loop_
_geom_bond_atom_site_label_1
_geom_bond_atom_site_label_2
_ccdc_geom_bond_type
C24   N1    A    
C23   O5    A    
Cu1   N2    S    
C24   H6    S    
C38   H21   S    
C19   C20   S    
C16   H15   S    
Cu2   O6    S    
C25   H7    S    
C7    C8    A    
C23   O6    A    
C28   H10   S    
C26   C27   S    
Cu1   O5    S    
C14   C21   S    
C25   N2    A    
C30   C31   A    
C16   C17   A    
C3    C33   A    
C15   C16   A    
C18   C19   A    
C37   H25   S    
C27   H8    S    
Cu1   Cu2   S    
C8    C9    A    
C36   H17   S    
C1    C15   S    
C35   H20   S    
Cu2   N1    S    
C2    C34   A    
C22   C28   S    
Cu1   O1    S    
C38   H22   S    
C17   C18   A    
C29   O8    A    
C18   C23   S    
C24   C25   A    
Cu2   O4    S    
C20   H3    S    
C4    C5    A    
C6    C34   A    
C30   H1    S    
Cu1   O7    S    
C3    Cl3   S    
C1    O1    A    
C37   H24   S    
C31   C32   A    
C29   O7    A    
C36   H18   S    
C33   C34   A    
C35   H19   S    
C12   O3    A    
C21   H5    S    
C12   O4    A    
C28   C35   S    
C38   H23   S    
C3    C4    A    
C26   N2    A    
C22   N1    A    
Cu1   O3    S    
C14   C19   A    
C9    H14   S    
C32   Cl2   S    
C37   C38   S    
C13   H12   S    
C11   C12   S    
C6    C7    A    
C2    C30   A    
C35   C36   S    
C1    O2    A    
C5    C10   A    
C29   C31   S    
Cu2   O2    S    
C32   C33   A    
C11   C13   A    
C27   H9    S    
C5    C6    A    
C21   H4    S    
C17   H2    S    
C20   Cl1   S    
C10   C11   A    
C7    C13   A    
C20   C21   S    
C36   H16   S    
C22   C26   A    
C27   C28   S    
C14   C15   A    
C2    C9    A    
C8    H13   S    
Cu2   O8    S    
C4    H11   S    
C10   C37   S    
