data_mof_unit_44978.cif
_audit_creation_date              2012-12-11T14:56:37-0500
_audit_creation_method            fapswitch 2.2
_symmetry_space_group_name_H-M    P1
_symmetry_Int_Tables_number       1
_space_group_crystal_system       triclinic
_cell_length_a                    10.513313
_cell_length_b                    10.643303
_cell_length_c                    17.019437
_cell_angle_alpha                 80.578826
_cell_angle_beta                  89.74697
_cell_angle_gamma                 119.193215
_cell_volume                      1632.22167582

loop_
_atom_site_label
_atom_site_type_symbol
_atom_type_description
_atom_site_fract_x
_atom_site_fract_y
_atom_site_fract_z
_atom_type_partial_charge
C1    C     C_R   0.279255 0.889137 0.132772 0.582248
C2    C     C_R   0.827092 0.467612 0.250820 -0.154680
C3    C     C_R   0.805625 0.430717 0.175851 -0.168273
C4    C     C_R   0.663665 0.362570 0.151328 0.026485
C5    C     C_1   0.669671 0.848545 0.205204 -0.039660
C6    C     C_1   0.680344 0.839211 0.274868 -0.035213
C7    C     C_1   0.228165 0.854435 0.215525 -0.027409
C8    C     C_1   0.179404 0.834475 0.283232 -0.036984
C9    C     C_1   0.621499 0.267008 0.775328 -0.070296
C10   C     C_1   0.634878 0.310303 0.704944 -0.066055
C11   C     C_R   0.494988 0.778320 0.772661 0.242013
C12   C     C_R   0.637681 0.282146 0.086056 0.568697
C13   C     C_R   0.508235 0.774288 0.692582 -0.169162
C14   C     C_R   0.642271 0.863939 0.646977 0.002791
C15   C     C_R   0.752579 0.987866 0.673512 0.256737
C16   C     C_R   0.733302 0.001160 0.753341 -0.193097
C17   C     C_R   0.609787 0.892037 0.803907 -0.019739
C18   C     C_R   0.256331 0.965450 0.759097 -0.135500
C19   C     C_R   0.240812 0.951118 0.680545 -0.135464
C20   C     C_R   0.154446 0.812421 0.662919 0.028229
C21   C     C_R   0.090671 0.686664 0.723954 -0.120546
C22   C     C_R   0.106561 0.701384 0.803121 -0.083921
C23   C     C_R   0.641459 0.857992 0.125012 0.554498
C24   C     C_R   0.187520 0.841105 0.820412 0.062810
C25   C     C_R   0.686107 0.810372 0.357401 0.543358
C26   C     C_R   0.727964 0.460982 0.383225 0.570916
C27   C     C_R   0.108623 0.812484 0.360041 0.541603
C28   C     C_R   0.673404 0.807689 0.580952 0.572366
C29   C     C_R   0.675204 0.375627 0.623235 0.565211
C30   C     C_R   0.100272 0.801848 0.585809 0.545159
C31   C     C_R   0.221272 0.862178 0.900126 0.547544
C32   C     C_R   0.613944 0.221530 0.858811 0.541765
C33   C     C_R   0.599054 0.894423 0.889071 0.581966
C34   C     C_R   0.546116 0.351929 0.197675 0.234026
C35   C     C_R   0.568994 0.389904 0.272770 -0.104136
C36   C     C_R   0.707485 0.439508 0.301171 -0.018055
Cr1   Cr    Cr6+3 0.402240 0.783890 0.019450 0.981092
Cr2   Cr    Cr6+3 0.382360 0.097900 0.991800 0.994281
Cr3   Cr    Cr6+3 0.715380 0.118170 0.988700 0.984725
Cr4   Cr    Cr6+3 0.936650 0.882420 0.465510 1.057681
Cr5   Cr    Cr6+3 0.605770 0.565620 0.493360 0.991385
Cr6   Cr    Cr6+3 0.921340 0.550490 0.496380 1.002074
H1    H     H_    0.055526 0.605388 0.850459 0.125259
H2    H     H_    0.475703 0.371227 0.310361 0.150691
H3    H     H_    0.418471 0.687981 0.669271 0.143194
H4    H     H_    0.815891 0.090603 0.778149 0.115504
H5    H     H_    0.322551 0.074218 0.771933 0.123286
O1    O     O_R   0.521780 0.757110 0.108900 -0.541820
O2    O     O_R   0.513330 0.228330 0.898660 -0.510563
O3    O     O_R   0.739230 0.266130 0.888050 -0.523147
O4    O     O_R   0.712580 0.991850 0.918770 -0.525135
O5    O     O_3   0.499990 0.999980 0.999980 -0.304156
O6    O     O_R   0.083770 0.911170 0.376030 -0.495515
O7    O     O_R   0.808770 0.880340 0.383890 -0.494833
O8    O     O_R   0.584340 0.689460 0.394160 -0.529757
O9    O     O_R   0.614320 0.443940 0.423590 -0.508300
O10   O     O_R   0.805020 0.410040 0.421340 -0.499795
O11   O     O_R   0.049240 0.685450 0.403290 -0.526438
O12   O     O_R   0.275160 0.783810 0.101120 -0.514595
O13   O     O_R   0.077520 0.903010 0.551800 -0.503204
O14   O     O_R   0.802980 0.872780 0.546830 -0.431303
O15   O     O_R   0.578090 0.681300 0.569920 -0.551567
O16   O     O_R   0.608530 0.436370 0.586530 -0.493816
O17   O     O_R   0.798770 0.401880 0.597100 -0.513385
O18   O     O_R   0.043450 0.677890 0.566230 -0.517187
O19   O     O_3   0.821250 0.666180 0.485090 -0.273657
O20   O     O_R   0.237900 0.972600 0.090980 -0.487733
O21   O     O_R   0.511190 0.220540 0.061620 -0.463710
O22   O     O_R   0.736920 0.257720 0.063840 -0.530961
O23   O     O_R   0.710450 0.984050 0.081720 -0.485935
O24   O     O_R   0.524090 0.765520 0.933110 -0.487893
O25   O     O_R   0.277300 0.791600 0.938160 -0.484358
O26   O     O_R   0.240210 0.981010 0.915190 -0.541391
O27   O     O_3   0.404741 0.282824 0.176199 -0.552517
C37   C     C_3   0.369942 0.390666 0.141506 0.023215
H6    H     H_    0.451647 0.467371 0.090075 0.146650
H7    H     H_    0.366563 0.453698 0.186949 0.143303
C38   C     C_3   0.219318 0.315210 0.110541 -0.261752
H8    H     H_    0.222284 0.253828 0.064288 0.174598
H9    H     H_    0.136827 0.235829 0.160649 0.185775
C39   C     C_3   0.173287 0.425970 0.074228 -0.463323
H10   H     H_    0.165041 0.485114 0.120297 0.163219
H11   H     H_    0.064621 0.367917 0.051331 0.143891
H12   H     H_    0.253987 0.506243 0.023795 0.175076
H13   H     H_    0.289344 0.048592 0.633982 0.127774
H14   H     H_    0.020775 0.578448 0.711012 0.126493
H15   H     H_    0.935718 0.511721 0.270901 0.138260
H16   H     H_    0.898558 0.445214 0.139723 0.143430
O28   O     O_3   0.367498 0.673068 0.819667 -0.544537
C40   C     C_3   0.357464 0.533239 0.830507 0.022312
H17   H     H_    0.412362 0.519047 0.884195 0.164353
H18   H     H_    0.409310 0.516317 0.778930 0.119183
C41   C     C_3   0.196148 0.414449 0.843756 -0.285264
H19   H     H_    0.142216 0.426569 0.895997 0.165054
H20   H     H_    0.140656 0.427305 0.790104 0.155475
C42   C     C_3   0.178615 0.261264 0.858715 -0.456398
H21   H     H_    0.230880 0.244855 0.913051 0.168179
H22   H     H_    0.229488 0.245582 0.806557 0.144110
H23   H     H_    0.060451 0.177882 0.867834 0.156615
O29   O     O_3   0.874442 0.086459 0.619318 -0.537742
C43   C     C_3   0.983202 0.205837 0.649416 0.012823
H24   H     H_    0.032406 0.166391 0.698403 0.128423
H25   H     H_    0.937154 0.270257 0.670670 0.149869
C44   C     C_3   0.102528 0.305675 0.581370 -0.246030
H26   H     H_    0.151016 0.243962 0.559380 0.170464
H27   H     H_    0.053432 0.341945 0.531122 0.182647
C45   C     C_3   0.222934 0.440208 0.608314 -0.470955
H28   H     H_    0.176487 0.502107 0.631924 0.146174
H29   H     H_    0.303463 0.512731 0.556245 0.177802
H30   H     H_    0.279652 0.407333 0.655312 0.144101

loop_
_geom_bond_atom_site_label_1
_geom_bond_atom_site_label_2
_ccdc_geom_bond_type
Cr3   O4    S    
C12   O22   A    
C29   O16   A    
C43   H24   S    
Cr4   O13   S    
C19   C20   A    
C38   C39   S    
C15   O29   S    
C18   H5    S    
Cr6   O11   S    
C44   H27   S    
C39   H10   S    
C7    C8    T    
Cr2   O2    S    
C20   C30   S    
C12   O21   A    
C41   H19   S    
C18   C24   A    
C18   C19   A    
C1    O12   A    
C5    C6    T    
C38   H9    S    
C31   O26   A    
C6    C25   S    
Cr2   O5    S    
C15   C16   A    
C42   H23   S    
C34   C35   A    
Cr5   O8    S    
C9    C32   S    
C35   C36   A    
C16   C17   A    
C42   H22   S    
Cr6   O18   S    
C45   H28   S    
C4    C12   S    
C9    C10   T    
C28   O14   A    
Cr3   O5    S    
C29   O17   A    
C41   H20   S    
Cr4   O19   S    
C21   C22   A    
C45   H29   S    
C23   O23   A    
C17   C33   S    
Cr5   O15   S    
Cr6   O10   S    
C44   H26   S    
C39   H11   S    
C4    C34   A    
O27   C37   S    
C25   O7    A    
C16   H4    S    
Cr1   O5    S    
C38   H8    S    
Cr4   O14   S    
C30   O13   A    
C26   O10   A    
C37   H6    S    
Cr5   O9    S    
C11   O28   S    
C40   H18   S    
C22   H1    S    
C5    C23   S    
C42   H21   S    
Cr3   O22   S    
C2    H15   S    
C20   C21   A    
Cr1   O1    S    
C35   H2    S    
C37   H7    S    
C32   O3    A    
Cr1   O12   S    
C34   O27   S    
C26   C36   S    
C31   O25   A    
Cr2   O21   S    
C41   C42   S    
Cr4   O7    S    
Cr1   O24   S    
C45   H30   S    
C22   C24   A    
Cr5   O16   S    
C3    C4    A    
Cr6   O17   S    
C39   H12   S    
C40   C41   S    
C2    C36   A    
C21   H14   S    
C11   C17   A    
C23   O1    A    
C3    H16   S    
C1    C7    S    
C25   O8    A    
C19   H13   S    
C27   O11   A    
C26   O9    A    
C27   O6    A    
Cr5   O19   S    
C33   O4    A    
C2    C3    A    
C24   C31   S    
C13   H3    S    
C11   C13   A    
C10   C29   S    
C40   H17   S    
O29   C43   S    
C1    O20   A    
Cr3   O23   S    
C37   C38   S    
C32   O2    A    
C30   O18   A    
C33   O24   A    
Cr3   O3    S    
Cr2   O20   S    
C43   H25   S    
Cr4   O6    S    
Cr1   O25   S    
Cr6   O19   S    
C8    C27   S    
C14   C15   A    
C43   C44   S    
C14   C28   S    
O28   C40   S    
C13   C14   A    
C44   C45   S    
Cr2   O26   S    
C28   O15   A    
