data_mof_unit_10740.cif
_audit_creation_date              2012-12-11T17:08:31-0500
_audit_creation_method            fapswitch 2.2
_symmetry_space_group_name_H-M    P1
_symmetry_Int_Tables_number       1
_space_group_crystal_system       triclinic
_cell_length_a                    6.977561
_cell_length_b                    14.520044
_cell_length_c                    16.094562
_cell_angle_alpha                 89.997626
_cell_angle_beta                  89.927214
_cell_angle_gamma                 89.955759
_cell_volume                      1630.61058161

loop_
_atom_site_label
_atom_site_type_symbol
_atom_type_description
_atom_site_fract_x
_atom_site_fract_y
_atom_site_fract_z
_atom_type_partial_charge
O1    O     O_R   0.505700 0.583890 0.413310 -0.535579
O2    O     O_R   0.175960 0.594920 0.586080 -0.552297
O3    O     O_R   0.005660 0.416110 0.586690 -0.545180
C1    C     C_R   0.344716 0.616429 0.615170 0.686770
O4    O     O_R   0.175980 0.594920 0.413930 -0.542570
O5    O     O_R   0.005680 0.416110 0.413310 -0.539524
C2    C     C_R   0.344716 0.616911 0.385395 0.715525
O6    O     O_R   0.505680 0.583890 0.586690 -0.539210
O7    O     O_3   0.339200 0.441330 0.500000 -0.371296
V1    V     V_3+5 0.064350 0.510880 0.500000 1.378843
O8    O     O_R   0.675960 0.405080 0.413920 -0.540795
C3    C     C_R   0.845056 0.382985 0.385364 0.697017
O9    O     O_R   0.675940 0.405080 0.586070 -0.537816
C4    C     C_R   0.844525 0.383517 0.614905 0.699733
V2    V     V_3+5 0.564340 0.489120 0.500000 1.404489
O10   O     O_3   0.839360 0.558670 0.500000 -0.376754
C5    C     C_R   0.981794 0.326002 0.749804 0.053415
C6    C     C_R   0.850944 0.317148 0.684535 -0.162630
C7    C     C_R   0.716243 0.245294 0.690026 -0.128904
H1    H     H_    0.608412 0.237808 0.642097 0.136563
C8    C     C_R   0.727592 0.178010 0.753201 0.188156
C9    C     C_R   0.873094 0.183728 0.815439 -0.142753
C10   C     C_R   0.992170 0.261385 0.813447 0.022254
C11   C     C_3   0.204950 0.269532 0.819724 -0.368794
C12   C     C_3   0.194184 0.340220 0.749758 0.041467
H2    H     H_    0.278061 0.205175 0.800831 0.161647
H3    H     H_    0.250951 0.297958 0.880665 0.180787
H4    H     H_    0.266358 0.318285 0.691315 0.144857
C13   C     C_R   0.716528 0.239496 0.195693 0.067778
C14   C     C_R   0.879325 0.184805 0.183500 -0.117175
C15   C     C_R   0.032576 0.197482 0.238639 -0.185865
H5    H     H_    0.154224 0.152490 0.234570 0.176337
C16   C     C_R   0.022712 0.262519 0.303478 -0.167398
H6    H     H_    0.139930 0.266969 0.347092 0.138776
C17   C     C_R   0.857439 0.316597 0.315556 -0.100408
C18   C     C_R   0.707322 0.305746 0.258750 0.046798
C19   C     C_3   0.502919 0.285230 0.277400 -0.386090
C20   C     C_3   0.514361 0.210023 0.212063 0.030368
H7    H     H_    0.407826 0.343264 0.259204 0.144125
H8    H     H_    0.481810 0.259693 0.341945 0.185446
H9    H     H_    0.417456 0.220762 0.158093 0.135396
C21   C     C_R   0.516776 0.740552 0.694462 0.030782
C22   C     C_R   0.354352 0.685644 0.682894 -0.086313
C23   C     C_R   0.204768 0.695716 0.740443 -0.112589
H10   H     H_    0.084677 0.650019 0.737372 0.096969
C24   C     C_R   0.216908 0.759009 0.806509 -0.081206
H11   H     H_    0.102567 0.761345 0.851870 0.130218
C25   C     C_R   0.379257 0.815256 0.816597 -0.114532
C26   C     C_R   0.527022 0.806330 0.758094 0.043846
C27   C     C_3   0.733096 0.784449 0.774360 0.014508
C28   C     C_3   0.718950 0.709872 0.707839 -0.188691
H12   H     H_    0.760769 0.759499 0.838637 0.160376
H13   H     H_    0.810273 0.721732 0.652159 0.123995
C29   C     C_R   0.483174 0.675100 0.251005 0.096236
C30   C     C_R   0.351839 0.683975 0.316237 -0.163557
C31   C     C_R   0.218782 0.756764 0.311405 -0.153298
H14   H     H_    0.111773 0.764768 0.359735 0.143009
C32   C     C_R   0.230964 0.824120 0.248224 0.190698
C33   C     C_R   0.374398 0.817085 0.185132 -0.153182
C34   C     C_R   0.492966 0.739131 0.186963 0.074375
C35   C     C_3   0.705903 0.730866 0.181625 -0.391198
C36   C     C_3   0.694808 0.660813 0.251774 -0.387323
H15   H     H_    0.779448 0.795403 0.199784 0.185429
H16   H     H_    0.753550 0.700545 0.121640 0.174067
H17   H     H_    0.762938 0.685030 0.310257 0.183750
H18   H     H_    0.735286 0.590028 0.232104 0.162953
O11   O     O_R   0.229000 0.916070 0.913330 -0.535182
O12   O     O_R   0.558770 0.905070 0.086080 -0.540558
O13   O     O_R   0.729000 0.083900 0.086690 -0.540907
C37   C     C_R   0.389602 0.884918 0.116258 0.695402
O14   O     O_R   0.558720 0.905070 0.913930 -0.545512
O15   O     O_R   0.728960 0.083900 0.913310 -0.541747
C38   C     C_R   0.390076 0.882566 0.885684 0.700801
O16   O     O_R   0.229050 0.916070 0.086710 -0.541176
O17   O     O_3   0.395460 0.058650 0.000020 -0.372536
V3    V     V_3+5 0.670340 0.989120 0.000000 1.378683
O18   O     O_R   0.058670 0.094960 0.913900 -0.537691
C39   C     C_R   0.889337 0.115236 0.883815 0.704675
O19   O     O_R   0.058720 0.094960 0.086050 -0.543200
C40   C     C_R   0.889681 0.115835 0.115620 0.698397
V4    V     V_3+5 0.170330 0.010930 0.999970 1.387598
O20   O     O_3   0.895340 0.941350 0.999980 -0.372493
N1    N     N_3   0.498929 0.118031 0.249571 -0.683777
H19   H     H_    0.615655 0.104424 0.288482 0.251794
H20   H     H_    0.497844 0.068694 0.202435 0.238464
N2    N     N_3   0.860405 0.859913 0.749877 -0.673627
H21   H     H_    0.854667 0.910228 0.796244 0.235202
H22   H     H_    0.813292 0.890076 0.694457 0.236229
C41   C     C_2   0.731034 0.612529 0.741427 0.379009
H23   H     H_    0.804679 0.560151 0.705474 0.044954
O21   O     O_2   0.655358 0.591179 0.807165 -0.525796
N3    N     N_3   0.601151 0.100546 0.747182 -0.681977
H24   H     H_    0.683466 0.040574 0.744994 0.218004
H25   H     H_    0.512807 0.098016 0.799414 0.241605
N4    N     N_3   0.107816 0.902914 0.254799 -0.676711
H26   H     H_    0.192275 0.962360 0.254810 0.232197
H27   H     H_    0.016122 0.905071 0.203711 0.235580
N5    N     N_3   0.249043 0.432849 0.776643 -0.609376
H28   H     H_    0.166322 0.453055 0.827822 0.244701
H29   H     H_    0.216064 0.478179 0.728356 0.224139

loop_
_geom_bond_atom_site_label_1
_geom_bond_atom_site_label_2
_ccdc_geom_bond_type
C30   C31   A    
C20   N1    S    
C4    C6    S    
N4    H26   S    
C11   H3    S    
C2    C30   S    
C1    O6    A    
V4    O20   S    
C29   C34   A    
O18   C39   A    
C12   H4    S    
C13   C18   A    
C5    C10   A    
C18   C19   S    
C7    C8    A    
C19   C20   S    
C11   H2    S    
C19   H8    S    
O5    C3    A    
C14   C15   A    
N2    H22   S    
V2    O10   S    
N5    H28   S    
C31   H14   S    
O13   V3    S    
C6    C7    A    
C35   H15   S    
O15   C39   A    
C29   C30   A    
O8    V2    S    
C17   C18   A    
C13   C20   S    
C37   O16   A    
C27   H12   S    
C10   C11   S    
C15   C16   A    
O11   C38   A    
C41   O21   D    
O7    V1    S    
O15   V3    S    
C21   C28   S    
C14   C40   S    
C21   C26   A    
C33   C34   A    
O9    C4    A    
C23   C24   A    
C16   H6    S    
C24   C25   A    
C36   H18   S    
C32   N4    S    
C11   C12   S    
C9    C39   S    
C20   H9    S    
V3    O20   S    
O4    C2    A    
N2    H21   S    
O17   V4    S    
C29   C36   S    
C27   C28   S    
C32   C33   A    
C34   C35   S    
C28   H13   S    
C35   H16   S    
O2    C1    A    
O17   V3    S    
C13   C14   A    
N1    H19   S    
O18   V4    S    
N3    H25   S    
C5    C6    A    
C3    C17   S    
O3    C4    A    
O1    V2    S    
C25   C26   A    
N1    H20   S    
O11   V4    S    
O6    V2    S    
N5    H29   S    
O9    V2    S    
C22   C23   A    
C21   C22   A    
O16   V4    S    
O2    V1    S    
C23   H10   S    
O19   V4    S    
C24   H11   S    
C36   H17   S    
O1    C2    A    
C25   C38   S    
C15   H5    S    
O5    V1    S    
O8    C3    A    
N4    H27   S    
C1    C22   S    
O12   V3    S    
C5    C12   S    
C7    H1    S    
O7    V2    S    
O4    V1    S    
C19   H7    S    
O3    V1    S    
V1    O10   S    
C28   C41   S    
O14   V3    S    
N3    H24   S    
C16   C17   A    
C31   C32   A    
C35   C36   S    
C27   N2    S    
C33   C37   S    
O19   C40   A    
C12   N5    S    
O12   C37   A    
C26   C27   S    
O14   C38   A    
C9    C10   A    
O13   C40   A    
C41   H23   S    
C8    C9    A    
C8    N3    S    
