data_mof_unit_36775.cif
_audit_creation_date              2012-12-11T16:26:29-0500
_audit_creation_method            fapswitch 2.2
_symmetry_space_group_name_H-M    P1
_symmetry_Int_Tables_number       1
_space_group_crystal_system       triclinic
_cell_length_a                    14.147429
_cell_length_b                    14.137123
_cell_length_c                    31.689646
_cell_angle_alpha                 90.014383
_cell_angle_beta                  90.000627
_cell_angle_gamma                 120.023992
_cell_volume                      5487.5882125

loop_
_atom_site_label
_atom_site_type_symbol
_atom_type_description
_atom_site_fract_x
_atom_site_fract_y
_atom_site_fract_z
_atom_type_partial_charge
C1    C     C_R   0.565819 0.445990 0.809520 0.556718
C2    C     C_R   0.445100 0.566713 0.189824 0.554839
C3    C     C_R   0.936275 0.843747 0.840905 -0.096081
C4    C     C_R   0.862185 0.773738 0.870654 0.031496
C5    C     C_R   0.854129 0.673008 0.878890 0.037350
C6    C     C_R   0.714151 0.073101 0.638486 0.081184
C7    C     C_R   0.812587 0.136887 0.616518 0.055721
C8    C     C_R   0.902137 0.122706 0.623636 0.037010
C9    C     C_R   0.895895 0.048457 0.653888 -0.096086
C10   C     C_R   0.800829 0.989139 0.677504 -0.109677
C11   C     C_R   0.710004 0.000929 0.669896 -0.048202
C12   C     C_R   0.343601 0.295573 0.852060 0.080236
C13   C     C_R   0.433333 0.879007 0.309964 0.555536
C14   C     C_R   0.289722 0.317974 0.819728 -0.046154
C15   C     C_R   0.194868 0.233820 0.801876 -0.090816
C16   C     C_R   0.154641 0.126416 0.815057 -0.129067
C17   C     C_R   0.205259 0.103660 0.848135 -0.015939
C18   C     C_R   0.299470 0.188024 0.866756 0.066873
C19   C     C_R   0.969942 0.665691 0.656094 0.085472
C20   C     C_R   0.906067 0.711617 0.644652 0.064890
C21   C     C_R   0.913425 0.799442 0.667507 -0.042855
C22   C     C_R   0.986875 0.843939 0.701074 -0.134398
C23   C     C_R   0.054500 0.801570 0.711276 -0.089483
C24   C     C_R   0.119827 0.554010 0.190481 0.556718
C25   C     C_R   0.044866 0.711604 0.689398 -0.044757
C26   C     C_R   0.696951 0.031674 0.842271 0.088153
C27   C     C_R   0.660319 0.949039 0.811617 -0.048347
C28   C     C_R   0.735036 0.939068 0.786052 -0.085005
C29   C     C_R   0.846565 0.013357 0.790067 -0.142350
C30   C     C_R   0.883566 0.094678 0.821030 -0.071324
C31   C     C_R   0.809081 0.103153 0.847478 0.042119
C32   C     C_R   0.338286 0.305738 0.652517 0.083734
C33   C     C_R   0.306911 0.194945 0.654301 0.042501
C34   C     C_R   0.215397 0.122767 0.677906 -0.064899
C35   C     C_1   0.998901 0.486098 0.020191 0.184752
C36   C     C_R   0.153416 0.160694 0.698519 -0.149359
C37   C     C_R   0.181228 0.270041 0.694815 -0.086786
C38   C     C_R   0.274571 0.342921 0.672563 -0.052207
C39   C     C_R   0.641064 0.926924 0.361515 0.081167
C40   C     C_R   0.675729 0.863164 0.383492 0.055766
C41   C     C_R   0.779462 0.877352 0.376378 0.037039
C42   C     C_R   0.847457 0.951580 0.346118 -0.096021
C43   C     C_R   0.811691 0.010866 0.322491 -0.109624
C44   C     C_R   0.709074 0.999071 0.330096 -0.048193
C45   C     C_R   0.048024 0.704433 0.147942 0.080237
C46   C     C_1   0.465109 0.997106 0.481109 0.189687
C47   C     C_R   0.971758 0.682042 0.180279 -0.046141
C48   C     C_R   0.961060 0.766200 0.198127 -0.090819
C49   C     C_R   0.028223 0.873599 0.184939 -0.129028
C50   C     C_R   0.101588 0.896347 0.151859 -0.015906
C51   C     C_R   0.111433 0.811978 0.133240 0.066881
C52   C     C_R   0.304317 0.334283 0.343883 0.085485
C53   C     C_R   0.194498 0.288362 0.355292 0.064830
C54   C     C_R   0.114072 0.200563 0.332413 -0.043017
C55   C     C_R   0.143083 0.156077 0.298861 -0.134458
C56   C     C_R   0.253095 0.198436 0.288695 -0.089463
C57   C     C_1   0.512589 0.517370 0.017630 0.184660
C58   C     C_R   0.333388 0.288385 0.310594 -0.044768
C59   C     C_R   0.665275 0.968329 0.157730 0.088158
C60   C     C_R   0.711320 0.051003 0.188368 -0.048336
C61   C     C_R   0.795999 0.060967 0.213937 -0.085032
C62   C     C_R   0.833189 0.986632 0.209942 -0.142410
C63   C     C_R   0.788830 0.905272 0.178995 -0.071323
C64   C     C_R   0.705877 0.896803 0.152543 0.042106
C65   C     C_R   0.032566 0.694266 0.347491 0.083741
C66   C     C_R   0.111976 0.805060 0.345718 0.042510
C67   C     C_R   0.092641 0.877247 0.322119 -0.064870
C68   C     C_1   0.024158 0.523586 0.483801 0.180774
C69   C     C_R   0.992740 0.839327 0.301499 -0.149337
C70   C     C_R   0.911211 0.729978 0.305193 -0.086797
C71   C     C_R   0.931674 0.657090 0.327440 -0.052239
C72   C     C_R   0.280479 0.356318 0.141400 0.087317
C73   C     C_R   0.283452 0.285668 0.171885 -0.047034
C74   C     C_R   0.189443 0.185871 0.180531 -0.115630
C75   C     C_R   0.092488 0.156279 0.159100 -0.096046
C76   C     C_R   0.088431 0.226274 0.129338 0.031489
C77   C     C_R   0.181116 0.326995 0.121100 0.037299
C78   C     C_1   0.522575 0.997756 0.018936 0.184250
C79   C     C_1   0.498348 0.478711 0.478363 0.183659
C80   C     C_1   0.468041 0.002968 0.518883 0.189686
C81   C     C_R   0.880452 0.434426 0.690551 0.555384
C82   C     C_1   0.995174 0.482605 0.982377 0.184657
C83   C     C_1   0.500524 0.476386 0.516200 0.180774
C84   C     C_1   0.524820 0.002247 0.981064 0.184252
C85   C     C_1   0.019655 0.521260 0.521639 0.183669
C86   C     C_1   0.512828 0.513882 0.979815 0.184758
C87   C     C_R   0.939369 0.471548 0.850846 -0.100225
C88   C     C_R   0.528717 0.058086 0.649777 -0.102216
C89   C     C_R   0.524311 0.470598 0.848823 -0.098528
C90   C     C_R   0.948698 0.478249 0.651762 -0.098256
C91   C     C_R   0.534328 0.057281 0.849695 -0.098727
C92   C     C_R   0.554662 0.120617 0.809786 0.558493
C93   C     C_R   0.528830 0.465619 0.648756 -0.100543
C94   C     C_R   0.470639 0.941930 0.350220 -0.102217
C95   C     C_R   0.053701 0.529401 0.151180 -0.098533
C96   C     C_R   0.470454 0.521755 0.348238 -0.098266
C97   C     C_R   0.477045 0.942718 0.150304 -0.098733
C98   C     C_R   0.063217 0.534376 0.351245 -0.100557
C99   C     C_R   0.467819 0.528438 0.149158 -0.100227
C100  C     C_R   0.938284 0.554327 0.876041 -0.096134
C101  C     C_R   0.610919 0.063092 0.622609 -0.094813
C102  C     C_R   0.438582 0.387565 0.872840 -0.091921
C103  C     C_R   0.566698 0.445270 0.689911 0.558338
C104  C     C_R   0.965403 0.574893 0.631678 -0.093335
C105  C     C_R   0.616275 0.041487 0.868508 -0.092760
C106  C     C_R   0.434435 0.383636 0.628203 -0.097884
C107  C     C_R   0.547845 0.936942 0.377389 -0.094812
C108  C     C_R   0.051002 0.612433 0.127163 -0.091916
C109  C     C_R   0.390530 0.425086 0.368312 -0.093339
C110  C     C_R   0.574786 0.958515 0.131493 -0.092775
C111  C     C_R   0.050811 0.616358 0.371802 -0.097881
C112  C     C_R   0.383954 0.445662 0.123961 -0.096126
C113  C     C_R   0.961847 0.558911 0.919410 0.320613
C114  C     C_R   0.878386 0.433285 0.810177 0.554839
C115  C     C_R   0.587338 0.041494 0.579278 0.317839
C116  C     C_R   0.434558 0.403100 0.916489 0.333342
C117  C     C_R   0.991955 0.590562 0.588547 0.338867
C118  C     C_R   0.612647 0.021679 0.912100 0.338363
C119  C     C_R   0.424757 0.387330 0.584231 0.337023
C120  C     C_R   0.545875 0.958569 0.420717 0.317836
C121  C     C_R   0.031428 0.596890 0.083514 0.333353
C122  C     C_R   0.401391 0.409405 0.411444 0.338909
C123  C     C_R   0.590969 0.978324 0.087901 0.338384
C124  C     C_R   0.037446 0.612656 0.415774 0.337007
C125  C     C_R   0.554327 0.120995 0.690036 0.555537
C126  C     C_R   0.402942 0.441071 0.080593 0.320610
C127  C     C_R   0.987382 0.484693 0.937408 -0.020764
C128  C     C_R   0.484205 0.012383 0.563589 -0.021469
C129  C     C_R   0.508454 0.503168 0.934863 -0.016738
C130  C     C_R   0.009711 0.515149 0.566653 -0.017878
C131  C     C_R   0.524036 0.009488 0.935953 -0.023934
C132  C     C_R   0.504697 0.475850 0.561342 -0.030435
C133  C     C_R   0.471853 0.987681 0.436403 -0.021462
C134  C     C_R   0.005247 0.496818 0.065142 -0.016735
C135  C     C_R   0.494534 0.484834 0.433348 -0.017901
C136  C     C_R   0.446028 0.565574 0.309448 0.555388
C137  C     C_R   0.514548 0.990514 0.064047 -0.023943
C138  C     C_R   0.028867 0.524131 0.438659 -0.030447
C139  C     C_R   0.502701 0.515279 0.062598 -0.020762
C140  C     C_R   0.004091 0.414276 0.911854 0.378438
C141  C     C_R   0.399043 0.989734 0.591219 0.381003
C142  C     C_R   0.575671 0.592156 0.909372 0.346281
C143  C     C_R   0.014582 0.432025 0.588559 0.353837
C144  C     C_R   0.433867 0.004614 0.915769 0.372381
C145  C     C_R   0.587354 0.565825 0.582574 0.373686
C146  C     C_R   0.409328 0.010310 0.408772 0.380995
C147  C     C_R   0.434045 0.879383 0.190214 0.558499
C148  C     C_R   0.983479 0.407833 0.090634 0.346276
C149  C     C_R   0.582524 0.567989 0.411452 0.353846
C150  C     C_R   0.429250 0.995384 0.084229 0.372381
C151  C     C_R   0.021545 0.434159 0.417424 0.373717
C152  C     C_R   0.589826 0.585689 0.088154 0.378454
C153  C     C_R   0.983509 0.410082 0.868658 0.363032
C154  C     C_R   0.420417 0.009077 0.634233 0.358175
C155  C     C_R   0.582285 0.576327 0.866253 0.353511
C156  C     C_R   0.986882 0.415429 0.631229 0.349710
C157  C     C_R   0.438071 0.025696 0.872648 0.360441
C158  C     C_R   0.121429 0.554729 0.310089 0.558333
C159  C     C_R   0.597770 0.561778 0.626151 0.364808
C160  C     C_R   0.411349 0.990946 0.365759 0.358160
C161  C     C_R   0.005937 0.423668 0.133753 0.353519
C162  C     C_R   0.571438 0.584595 0.368781 0.349728
C163  C     C_R   0.412370 0.974298 0.127350 0.360445
C164  C     C_R   0.036001 0.438212 0.373847 0.364831
C165  C     C_R   0.573430 0.589888 0.131349 0.363019
C166  C     C_R   0.924179 0.643684 0.858600 0.087307
C167  C     C_R   0.997838 0.714346 0.828127 -0.047057
C168  C     C_R   0.003652 0.814156 0.819485 -0.115633
Cr1   Cr    Cr6+3 0.504240 0.249200 0.750000 1.056265
Cr2   Cr    Cr6+3 0.744960 0.495760 0.750000 1.064161
Cr3   Cr    Cr6+3 0.750800 0.255040 0.750000 1.060136
Cr4   Cr    Cr6+3 0.249200 0.504240 0.250000 1.064154
Cr5   Cr    Cr6+3 0.495760 0.744960 0.250000 1.060118
Cr6   Cr    Cr6+3 0.255040 0.750800 0.250000 1.056279
F1    F     F_    0.033728 0.677059 0.059072 -0.550400
F2    F     F_    0.694012 0.012724 0.931068 -0.548024
F3    F     F_    0.002205 0.679696 0.568025 -0.541643
F4    F     F_    0.356689 0.322930 0.940930 -0.550406
F5    F     F_    0.981846 0.336313 0.158574 -0.610461
F6    F     F_    0.352233 0.016996 0.339382 -0.611419
F7    F     F_    0.660818 0.656438 0.155590 -0.615517
F8    F     F_    0.023269 0.348025 0.353775 -0.619513
F9    F     F_    0.333354 0.985356 0.146756 -0.622886
F10   F     F_    0.659162 0.661986 0.347490 -0.626601
F11   F     F_    0.335244 0.983012 0.660608 -0.611397
F12   F     F_    0.618551 0.955146 0.447912 -0.562943
F13   F     F_    0.004336 0.343519 0.844420 -0.615499
F14   F     F_    0.675225 0.651969 0.646221 -0.619541
F15   F     F_    0.347995 0.014628 0.853240 -0.622892
F16   F     F_    0.997246 0.338068 0.652529 -0.626623
F17   F     F_    0.645547 0.663684 0.841432 -0.610457
F18   F     F_    0.943461 0.306923 0.073504 -0.571115
F19   F     F_    0.344543 0.048526 0.423466 -0.521917
F20   F     F_    0.689816 0.652308 0.071191 -0.532801
F21   F     F_    0.003047 0.343463 0.439013 -0.532940
F22   F     F_    0.360407 0.017289 0.061946 -0.532836
F23   F     F_    0.324502 0.363084 0.055523 -0.558924
F24   F     F_    0.677548 0.635133 0.431726 -0.563715
F25   F     F_    0.296047 0.951520 0.576522 -0.521919
F26   F     F_    0.037445 0.347646 0.928821 -0.532822
F27   F     F_    0.659547 0.656518 0.560982 -0.532982
F28   F     F_    0.343117 0.982706 0.938051 -0.532838
F29   F     F_    0.042505 0.364901 0.568294 -0.563725
F30   F     F_    0.636573 0.693063 0.926504 -0.571097
F31   F     F_    0.030686 0.693859 0.436037 -0.540596
F32   F     F_    0.681288 0.987277 0.068935 -0.547995
F33   F     F_    0.322513 0.320248 0.431956 -0.541584
F34   F     F_    0.663450 0.044942 0.552084 -0.562939
F35   F     F_    0.961395 0.636901 0.944478 -0.558912
F36   F     F_    0.336787 0.306125 0.563972 -0.540583
H1    H     H_    0.055074 0.695373 0.813047 0.117196
H2    H     H_    0.634674 0.948933 0.686623 0.115622
H3    H     H_    0.319446 0.401034 0.809169 0.121823
H4    H     H_    0.151122 0.252193 0.778514 0.122070
H5    H     H_    0.083245 0.061531 0.799992 0.077201
H6    H     H_    0.171310 0.020769 0.859457 0.198592
H7    H     H_    0.337922 0.169615 0.892513 0.219873
H8    H     H_    0.850769 0.679166 0.618099 0.223941
H9    H     H_    0.862534 0.833018 0.658808 0.176881
H10   H     H_    0.992440 0.911943 0.718742 0.081418
H11   H     H_    0.115518 0.838817 0.735680 0.129203
H12   H     H_    0.063886 0.871354 0.797824 0.107826
H13   H     H_    0.097536 0.679312 0.697721 0.120222
H14   H     H_    0.573897 0.891936 0.807763 0.127195
H15   H     H_    0.705963 0.873575 0.763224 0.138226
H16   H     H_    0.904298 0.006682 0.769685 0.087730
H17   H     H_    0.969852 0.150913 0.824675 0.187390
H18   H     H_    0.838166 0.165982 0.871486 0.204663
H19   H     H_    0.354083 0.165634 0.637800 0.183075
H20   H     H_    0.192144 0.037569 0.680076 0.194474
H21   H     H_    0.083142 0.105417 0.717086 0.089497
H22   H     H_    0.131163 0.298694 0.709554 0.170008
H23   H     H_    0.942995 0.922032 0.835454 0.121145
H24   H     H_    0.296485 0.427988 0.670448 0.134283
H25   H     H_    0.624758 0.806574 0.407722 0.185884
H26   H     H_    0.807765 0.831811 0.394724 0.229975
H27   H     H_    0.928911 0.965151 0.341772 0.121196
H28   H     H_    0.865959 0.069859 0.299768 0.106423
H29   H     H_    0.685727 0.051046 0.313360 0.115614
H30   H     H_    0.918430 0.598985 0.190843 0.121819
H31   H     H_    0.898953 0.747834 0.221494 0.122040
H32   H     H_    0.021710 0.938487 0.200000 0.077210
H33   H     H_    0.150523 0.979235 0.140532 0.198590
H34   H     H_    0.812503 0.798892 0.887837 0.241097
H35   H     H_    0.168285 0.830381 0.107480 0.219881
H36   H     H_    0.171608 0.320802 0.381835 0.223948
H37   H     H_    0.029589 0.167000 0.341081 0.176782
H38   H     H_    0.080675 0.088089 0.281176 0.081434
H39   H     H_    0.276910 0.161204 0.264300 0.129290
H40   H     H_    0.418364 0.320678 0.302296 0.120236
H41   H     H_    0.682038 0.108142 0.192206 0.127232
H42   H     H_    0.832449 0.126487 0.236753 0.138273
H43   H     H_    0.897591 0.993301 0.230326 0.087722
H44   H     H_    0.818845 0.849002 0.175366 0.187420
H45   H     H_    0.797915 0.620679 0.902951 0.162086
H46   H     H_    0.672098 0.833943 0.128548 0.204593
H47   H     H_    0.188453 0.834367 0.362223 0.183055
H48   H     H_    0.154578 0.962446 0.319957 0.194528
H49   H     H_    0.977745 0.894614 0.282938 0.089491
H50   H     H_    0.832496 0.701329 0.290451 0.169961
H51   H     H_    0.868524 0.572021 0.329547 0.134251
H52   H     H_    0.359652 0.304640 0.186973 0.117170
H53   H     H_    0.192456 0.128686 0.202205 0.107782
H54   H     H_    0.020914 0.078003 0.164555 0.121179
H55   H     H_    0.013604 0.201119 0.112148 0.241100
H56   H     H_    0.818213 0.193495 0.592294 0.185824
H57   H     H_    0.177245 0.379317 0.097032 0.162093
H58   H     H_    0.975991 0.168267 0.605298 0.230016
H59   H     H_    0.963783 0.034894 0.658234 0.121197
H60   H     H_    0.796101 0.930125 0.700218 0.106457
O1    O     O_R   0.480350 0.140770 0.796330 -0.434090
O2    O     O_R   0.140770 0.480350 0.203670 -0.440679
O3    O     O_R   0.519650 0.660420 0.296330 -0.434920
O4    O     O_R   0.339580 0.859230 0.203670 -0.434084
O5    O     O_R   0.514930 0.348530 0.793250 -0.507386
O6    O     O_R   0.833600 0.485070 0.706750 -0.509900
O7    O     O_R   0.651470 0.166400 0.793250 -0.513182
O8    O     O_R   0.514930 0.348530 0.706750 -0.516844
O9    O     O_R   0.833600 0.485070 0.793250 -0.511998
O10   O     O_R   0.651470 0.166400 0.706750 -0.506098
O11   O     O_R   0.348530 0.514930 0.293250 -0.509899
O12   O     O_R   0.660420 0.519650 0.703670 -0.434911
O13   O     O_R   0.485070 0.833600 0.206750 -0.513195
O14   O     O_R   0.166400 0.651470 0.293250 -0.516834
O15   O     O_R   0.348530 0.514930 0.206750 -0.511993
O16   O     O_R   0.485070 0.833600 0.293250 -0.506090
O17   O     O_R   0.166400 0.651470 0.206750 -0.507388
O18   O     O_3   0.666667 0.333333 0.750000 -0.271484
O19   O     O_3   0.333333 0.666667 0.250000 -0.271480
O20   O     O_R   0.859230 0.339580 0.796330 -0.444539
O21   O     O_R   0.480350 0.140770 0.703670 -0.455937
O22   O     O_R   0.660420 0.519650 0.796330 -0.440682
O23   O     O_R   0.859230 0.339580 0.703670 -0.434935
O24   O     O_R   0.140770 0.480350 0.296330 -0.434928
O25   O     O_R   0.519650 0.660420 0.203670 -0.444582
O26   O     O_R   0.339580 0.859230 0.296330 -0.455918

loop_
_geom_bond_atom_site_label_1
_geom_bond_atom_site_label_2
_ccdc_geom_bond_type
C71   H51   S    
C62   H43   S    
C143  F29   S    
C55   C56   A    
C44   H29   S    
C148  F18   S    
Cr4   O15   S    
C116  F4    S    
C89   C102  A    
C37   H22   S    
Cr1   O18   S    
C73   C74   A    
C91   C105  A    
C68   C138  S    
C136  O3    A    
Cr1   O5    S    
C108  C121  A    
C8    H58   S    
C66   H47   S    
Cr2   O6    S    
C47   H30   S    
C93   C103  S    
C72   C112  S    
C88   C101  A    
C7    C8    A    
C96   C136  S    
Cr4   O24   S    
C53   C54   A    
C52   C53   A    
C39   C107  S    
C150  C163  A    
Cr5   O25   S    
C27   H14   S    
C37   C38   A    
Cr6   O26   S    
C24   O2    A    
C148  C161  A    
C49   C50   A    
C124  C138  A    
C28   C29   A    
C51   H35   S    
C104  C117  A    
Cr5   O19   S    
Cr1   O21   S    
C30   C31   A    
C145  C159  A    
Cr2   O22   S    
C109  C122  A    
C89   C155  A    
C106  C119  A    
C146  C160  A    
Cr4   O19   S    
Cr6   O17   S    
C15   C16   A    
C139  C152  A    
C59   C110  S    
C57   C86   T    
C57   C139  S    
C100  C166  S    
C120  C133  A    
C41   C42   A    
C6    C101  S    
C151  F21   S    
C92   O7    A    
C93   C159  A    
C81   O23   A    
C53   H36   S    
C65   C111  S    
C87   C114  S    
C9    H59   S    
C118  C131  A    
C72   C77   A    
C21   C22   A    
C75   H54   S    
C35   C82   T    
C160  F6    S    
Cr5   O16   S    
C19   C20   A    
C56   C58   A    
C8    C9    A    
C97   C163  A    
Cr6   O19   S    
C127  C140  A    
C60   H41   S    
C1    C89   S    
C134  C148  A    
C87   C153  A    
C121  F1    S    
C70   C71   A    
C32   C38   A    
C121  C134  A    
C161  F5    S    
C29   C30   A    
C9    C10   A    
C103  O12   A    
C112  C126  A    
C61   C62   A    
Cr3   O7    S    
C45   C108  S    
Cr4   O2    S    
C149  F24   S    
C69   H49   S    
C141  F25   S    
C74   H53   S    
C63   H44   S    
C158  O14   A    
C66   C67   A    
C24   O17   A    
C118  F2    S    
C26   C31   A    
C167  C168  A    
C32   C106  S    
C76   H55   S    
C68   C85   T    
C97   C147  S    
C34   H20   S    
C29   H16   S    
C15   H4    S    
C33   H19   S    
C119  F36   S    
C30   H17   S    
C26   C105  S    
C22   C23   A    
C42   H27   S    
C117  F3    S    
C3    C168  A    
C49   H32   S    
C6    C7    A    
Cr3   O23   S    
C11   H2    S    
C152  C165  A    
C126  C139  A    
C154  F11   S    
C94   C107  A    
C114  O20   A    
C1    O5    A    
C74   C75   A    
C116  C129  A    
C163  F9    S    
C147  O4    A    
C98   C158  S    
C33   C34   A    
C76   C77   A    
C158  O24   A    
C72   C73   A    
C83   C132  S    
Cr3   O18   S    
C10   C11   A    
C24   C95   S    
C39   C40   A    
C92   O1    A    
C132  C145  A    
C16   C17   A    
C129  C142  A    
C80   C128  S    
C40   H25   S    
C135  C149  A    
C4    C5    A    
C78   C84   T    
C115  C128  A    
C77   H57   S    
C1    O22   A    
C120  F12   S    
C60   C61   A    
C67   C69   A    
C142  F30   S    
C159  F14   S    
C16   H5    S    
C75   C76   A    
C162  F10   S    
C88   C125  S    
Cr2   O9    S    
C43   H28   S    
C115  F34   S    
C110  C123  A    
C147  O13   A    
C19   C104  S    
C47   C48   A    
C12   C102  S    
C35   C134  S    
C5    C166  A    
C48   C49   A    
Cr1   O8    S    
C90   C104  A    
C56   H39   S    
C62   C63   A    
C17   C18   A    
C26   C27   A    
C50   C51   A    
C117  C130  A    
C54   H37   S    
C141  C154  A    
C146  F19   S    
C130  C143  A    
C150  F22   S    
C125  O21   A    
C52   C58   A    
C114  O9    A    
C2    O15   A    
Cr5   O13   S    
C81   C90   S    
C126  F23   S    
C40   C41   A    
C41   H26   S    
C12   C14   A    
C2    C99   S    
C50   H33   S    
C55   H38   S    
C6    C11   A    
C93   C106  A    
C21   H9    S    
C166  C167  A    
C142  C155  A    
C7    H56   S    
Cr5   O3    S    
C105  C118  A    
C58   H40   S    
C124  F31   S    
C42   C43   A    
Cr4   O11   S    
C90   C156  A    
C3    C4    A    
C17   H6    S    
C78   C137  S    
C107  C120  A    
C91   C92   S    
Cr6   O14   S    
C73   H52   S    
C123  F32   S    
C87   C100  A    
C128  C141  A    
C82   C127  S    
C22   H10   S    
C54   C55   A    
C36   C37   A    
C13   O26   A    
C94   C160  A    
C98   C111  A    
Cr2   O12   S    
C111  C124  A    
C144  F28   S    
C20   H8    S    
C122  F33   S    
C164  F8    S    
Cr2   O18   S    
C100  C113  A    
C2    O25   A    
C168  H12   S    
C48   H31   S    
C119  C132  A    
C28   H15   S    
C38   H24   S    
C98   C164  A    
C86   C129  S    
Cr1   O1    S    
C39   C44   A    
C113  C127  A    
C125  O10   A    
C138  C151  A    
C153  F13   S    
C96   C109  A    
C123  C137  A    
C84   C131  S    
C155  F17   S    
C103  O8    A    
C85   C130  S    
C152  F20   S    
C13   C94   S    
C81   O6    A    
C165  F7    S    
C32   C33   A    
C133  C146  A    
C95   C161  A    
C140  F26   S    
C113  F35   S    
C79   C135  S    
C59   C64   A    
C65   C71   A    
C3    H23   S    
C46   C133  S    
C145  F27   S    
C97   C110  A    
C5    H45   S    
C143  C156  A    
Cr6   O4    S    
C52   C109  S    
C43   C44   A    
C36   H21   S    
C101  C115  A    
C99   C112  A    
C70   H50   S    
C96   C162  A    
C25   H13   S    
C34   C36   A    
C65   C66   A    
C69   C70   A    
C137  C150  A    
C157  F15   S    
C122  C135  A    
C91   C157  A    
C67   H48   S    
C102  C116  A    
C95   C108  A    
Cr3   O10   S    
C19   C25   A    
C167  H1    S    
C63   C64   A    
C79   C83   T    
Cr3   O20   S    
C23   H11   S    
C13   O16   A    
C59   C60   A    
C23   C25   A    
C45   C47   A    
C20   C21   A    
C14   H3    S    
C151  C164  A    
C10   H60   S    
C12   C18   A    
C27   C28   A    
C61   H42   S    
C45   C51   A    
C14   C15   A    
C149  C162  A    
C46   C80   T    
C140  C153  A    
C99   C165  A    
C144  C157  A    
C31   H18   S    
C18   H7    S    
C136  O11   A    
C4    H34   S    
C131  C144  A    
C88   C154  A    
C64   H46   S    
C156  F16   S    
