data_mof_unit_46546.cif
_audit_creation_date              2012-12-11T18:59:02-0500
_audit_creation_method            fapswitch 2.2
_symmetry_space_group_name_H-M    P1
_symmetry_Int_Tables_number       1
_space_group_crystal_system       triclinic
_cell_length_a                    8.585403
_cell_length_b                    15.343105
_cell_length_c                    17.574816
_cell_angle_alpha                 101.421804
_cell_angle_beta                  97.334735
_cell_angle_gamma                 99.552304
_cell_volume                      2206.68594473

loop_
_atom_site_label
_atom_site_type_symbol
_atom_type_description
_atom_site_fract_x
_atom_site_fract_y
_atom_site_fract_z
_atom_type_partial_charge
Ba1   Ba    Ba6+2 0.844370 0.541120 0.463210 1.832285
Ba2   Ba    Ba6+2 0.345470 0.458960 0.536800 1.801898
C1    C     C_3   0.463756 0.784705 0.187522 -0.342279
C2    C     C_3   0.351998 0.504234 0.215575 0.148414
C3    C     C_2   0.290864 0.499843 0.130148 0.092865
C4    C     C_3   0.080995 0.762678 0.260564 0.387986
C5    C     C_2   0.128270 0.479481 0.105418 -0.022833
C6    C     C_2   0.022097 0.455896 0.165063 -0.115388
C7    C     C_1   0.084148 0.464860 0.241138 0.029165
C8    C     C_R   0.884841 0.479389 0.860863 -0.139831
C9    C     C_R   0.822965 0.471149 0.782079 -0.017146
C10   C     C_R   0.084126 0.540530 0.757319 0.096658
C11   C     C_R   0.144104 0.555809 0.839841 0.060596
C12   C     C_3   0.537978 0.742593 0.251697 0.366841
C13   C     C_R   0.044887 0.521934 0.891475 0.051521
C14   C     C_2   0.053504 0.473930 0.021900 -0.114990
C15   C     C_2   0.108558 0.531741 0.977239 -0.069862
C16   C     C_3   0.033075 0.805476 0.190625 -0.193984
C17   C     C_R   0.921212 0.504036 0.732546 -0.255320
C18   C     C_R   0.335765 0.818563 0.451177 -0.029083
C19   C     C_R   0.586408 0.788306 0.515263 0.081119
C20   C     C_R   0.769655 0.223556 0.509664 -0.350281
C21   C     C_R   0.870288 0.169132 0.535853 0.071325
C22   C     C_R   0.815079 0.074921 0.521369 0.130142
C23   C     C_3   0.562994 0.243149 0.286016 0.120531
C24   C     C_R   0.646712 0.037174 0.497623 -0.010603
C25   C     C_R   0.545194 0.097099 0.474781 -0.025540
C26   C     C_R   0.574676 0.942774 0.492767 0.001459
C27   C     C_R   0.409428 0.910689 0.459260 0.011794
C28   C     C_3   0.245984 0.767530 0.673591 0.366474
C29   C     C_R   0.317595 0.972231 0.438116 -0.002583
C30   C     C_R   0.383509 0.062450 0.445978 0.027541
C31   C     C_R   0.655986 0.880521 0.524555 -0.053261
C32   C     C_R   0.424777 0.758694 0.479510 -0.320628
C33   C     C_R   0.608206 0.189973 0.477747 -0.062230
C34   C     C_3   0.568652 0.158348 0.223091 -0.194687
C35   C     C_3   0.215692 0.859829 0.719517 -0.236001
C36   C     C_3   0.063715 0.248350 0.282225 0.236085
C37   C     C_3   0.055938 0.195249 0.196726 -0.238741
C38   C     C_3   0.731109 0.728060 0.734494 0.383423
C39   C     C_3   0.663104 0.783833 0.801875 -0.083432
C40   C     C_2   0.672794 0.809635 0.306633 0.831187
C41   C     C_2   0.328648 0.897986 0.797678 0.919051
C42   C     C_2   0.214128 0.930472 0.671255 0.752309
C43   C     C_2   0.052579 0.180649 0.333865 0.935944
C44   C     C_2   0.033483 0.247605 0.134466 0.852053
C45   C     C_3   0.051536 0.248736 0.734720 0.420988
C46   C     C_2   0.897289 0.723491 0.761258 0.778446
C47   C     C_2   0.528948 0.318010 0.246514 0.922669
C48   C     C_2   0.613064 0.082973 0.258126 0.897648
C49   C     C_2   0.920637 0.106543 0.775058 0.941314
C50   C     C_2   0.342542 0.665953 0.479083 0.877657
C51   C     C_2   0.838119 0.317563 0.512683 0.923061
C52   C     C_2   0.116612 0.901749 0.200012 0.950689
C53   C     C_3   0.029989 0.198148 0.801538 -0.175333
C54   C     C_3   0.547365 0.237111 0.704249 0.313521
C55   C     C_3   0.515655 0.148478 0.730306 -0.323762
C56   C     C_2   0.223449 0.519792 0.264286 -0.234812
H1    H     H_    0.093419 0.848755 0.733311 0.094805
H2    H     H_    0.680469 0.265474 0.324904 0.044898
H3    H     H_    0.449979 0.133285 0.184512 0.091115
H4    H     H_    0.658137 0.176365 0.185379 0.121315
H5    H     H_    0.358059 0.735863 0.150845 0.074238
H6    H     H_    0.062027 0.765372 0.136147 0.012197
H7    H     H_    0.931471 0.257694 0.709103 -0.044345
H8    H     H_    0.149018 0.189013 0.828349 0.097842
H9    H     H_    0.979683 0.239738 0.848034 0.008782
H10   H     H_    0.653238 0.238645 0.673863 -0.045471
H11   H     H_    0.440241 0.239985 0.662879 0.104628
H12   H     H_    0.181184 0.295292 0.301736 -0.066454
H13   H     H_    0.494237 0.090859 0.678315 0.090048
H14   H     H_    0.409763 0.145603 0.760527 0.169500
H15   H     H_    0.619595 0.143903 0.772636 0.150230
H16   H     H_    0.207488 0.587496 0.004028 0.109827
H17   H     H_    0.893136 0.438540 0.146959 0.163631
H18   H     H_    0.805558 0.454487 0.898269 0.099212
H19   H     H_    0.951142 0.419438 0.997297 0.110206
H20   H     H_    0.215584 0.589919 0.283242 0.035294
H21   H     H_    0.867580 0.507783 0.675182 0.126542
H22   H     H_    0.212274 0.768246 0.270228 -0.027822
H23   H     H_    0.957051 0.134806 0.181351 0.145039
H24   H     H_    0.191186 0.952352 0.415775 0.110414
H25   H     H_    0.770215 0.902362 0.561722 0.077774
H26   H     H_    0.305818 0.104601 0.426505 0.143476
H27   H     H_    0.901762 0.802629 0.181376 0.118245
H28   H     H_    0.144399 0.739720 0.624537 0.158108
H29   H     H_    0.832874 0.927166 0.327925 0.327376
H30   H     H_    0.500027 0.972126 0.753577 0.258173
H31   H     H_    0.184897 0.054814 0.666866 0.338023
H32   H     H_    0.054782 0.053115 0.345850 0.312775
H33   H     H_    0.127260 0.297761 0.048863 0.315181
H34   H     H_    0.169673 0.170247 0.193170 0.081435
H35   H     H_    0.084324 0.738865 0.847512 0.336953
H36   H     H_    0.690468 0.595279 0.670398 0.172632
H37   H     H_    0.646696 0.607965 0.760598 0.165752
H38   H     H_    0.567053 0.757548 0.897891 0.203799
H39   H     H_    0.764666 0.781599 0.913972 0.252968
H40   H     H_    0.430305 0.382851 0.336400 0.281823
H41   H     H_    0.550751 0.989792 0.320363 0.315948
H42   H     H_    0.108945 0.370663 0.813818 0.121935
H43   H     H_    0.267744 0.328463 0.789593 0.220130
H44   H     H_    0.770818 0.013258 0.688023 0.299263
H45   H     H_    0.551556 0.801421 0.148715 0.163934
H46   H     H_    0.032741 0.636390 0.187835 0.121644
H47   H     H_    0.880115 0.663381 0.231873 0.237482
H48   H     H_    0.435609 0.567718 0.069157 0.183633
H49   H     H_    0.357781 0.457121 0.022592 0.199597
H50   H     H_    0.303290 0.674266 0.862622 0.193474
H51   H     H_    0.385218 0.581581 0.845283 0.233746
H52   H     H_    0.390228 0.620213 0.379475 0.215097
H53   H     H_    0.826180 0.353068 0.625745 0.198689
H54   H     H_    0.968317 0.005295 0.570471 0.224922
H55   H     H_    0.898949 0.963303 0.470502 0.200896
H56   H     H_    0.729771 0.855429 0.817825 0.168255
H57   H     H_    0.154009 0.009147 0.150116 0.329122
H58   H     H_    0.477085 0.838230 0.675289 0.143598
H59   H     H_    0.442996 0.725256 0.642592 0.197993
H60   H     H_    0.537958 0.785018 0.780431 0.122263
H61   H     H_    0.443241 0.722473 0.285993 -0.180816
H62   H     H_    0.425059 0.847615 0.214055 0.116789
N1    N     N_3   0.640114 0.636124 0.711106 -0.446421
N2    N     N_3   0.666413 0.745106 0.871891 -0.502035
N3    N     N_3   0.154802 0.337726 0.766550 -0.467921
N4    N     N_3   0.003195 0.667275 0.241134 -0.476770
N5    N     N_3   0.404882 0.501653 0.076868 -0.450151
N6    N     N_3   0.299659 0.609519 0.873142 -0.507800
N7    N     N_3   0.935810 0.020791 0.516377 -0.489187
N8    N     N_3   0.393570 0.782449 0.641865 -0.508871
O1    O     O_2   0.823670 0.438410 0.305690 -0.425865
O2    O     O_2   0.203223 0.182526 0.541682 -0.473566
O3    O     O_3   0.124482 0.198273 0.678759 -0.610521
O4    O     O_3   0.097540 0.445020 0.403910 -0.383862
O5    O     O_3   0.591400 0.612970 0.544220 -0.468479
O6    O     O_2   0.325880 0.273340 0.453540 -0.438032
O7    O     O_3   0.438500 0.223252 0.328095 -0.654598
O8    O     O_2   0.492634 0.463217 0.778226 -0.485342
O9    O     O_3   0.574826 0.308502 0.770966 -0.601161
O10   O     O_3   0.626660 0.608370 0.360070 -0.436267
O11   O     O_2   0.678204 0.520536 0.223105 -0.415092
O12   O     O_3   0.730884 0.773532 0.671298 -0.675483
O13   O     O_3   0.933306 0.293018 0.289577 -0.645170
O14   O     O_3   0.599776 0.669403 0.214405 -0.642996
O15   O     O_2   0.863840 0.726690 0.546510 -0.423353
O16   O     O_3   0.059500 0.657930 0.401470 -0.434596
O17   O     O_2   0.026384 0.818691 0.476019 -0.410981
O18   O     O_2   0.723688 0.793538 0.369305 -0.601557
O19   O     O_R   0.744033 0.887995 0.285441 -0.747263
O20   O     O_2   0.289512 0.877855 0.857232 -0.529765
O21   O     O_R   0.475226 0.957231 0.804710 -0.712578
O22   O     O_2   0.251008 0.918201 0.605684 -0.621412
O23   O     O_3   0.032975 0.808355 0.328612 -0.573463
O24   O     O_R   0.171372 0.011698 0.703035 -0.746131
O25   O     O_2   0.015161 0.201573 0.398462 -0.610191
O26   O     O_R   0.079126 0.093119 0.307698 -0.721251
O27   O     O_2   0.900956 0.262370 0.113411 -0.585207
O28   O     O_R   0.160699 0.271537 0.095538 -0.728724
O29   O     O_2   0.963119 0.687507 0.711123 -0.690800
O30   O     O_R   0.975718 0.755709 0.838959 -0.738579
O31   O     O_2   0.558460 0.319026 0.180430 -0.539842
O32   O     O_R   0.467310 0.389082 0.285497 -0.771702
O33   O     O_2   0.736327 0.056441 0.246906 -0.584666
O34   O     O_2   0.366040 0.561620 0.694360 -0.452400
O35   O     O_R   0.509690 0.040608 0.300393 -0.706812
O36   O     O_2   0.900253 0.059329 0.822769 -0.552851
O37   O     O_R   0.841765 0.075426 0.697301 -0.791838
O38   O     O_2   0.251802 0.652679 0.524455 -0.562309
O39   O     O_R   0.356517 0.593454 0.422978 -0.684661
O40   O     O_2   0.883432 0.339352 0.455304 -0.531400
O41   O     O_R   0.849434 0.382385 0.580600 -0.721133
O42   O     O_2   0.210438 0.941164 0.259732 -0.588530
O43   O     O_R   0.087237 0.945647 0.138761 -0.704468
O44   O     O_3   0.092170 0.555060 0.596100 -0.388223
O45   O     O_3   0.563060 0.391710 0.639940 -0.481556
O46   O     O_3   0.257630 0.707251 0.724269 -0.634082
O47   O     O_3   0.598320 0.387100 0.455790 -0.446445
O48   O     O_3   0.130210 0.342150 0.598540 -0.435344
P1    P     P_3+3 0.993950 0.412000 0.316970 1.118209
P2    P     P_3+3 0.694070 0.714570 0.569730 1.038362
P3    P     P_3+3 0.116754 0.775582 0.412734 1.045698
P4    P     P_3+3 0.195760 0.588070 0.683040 1.115150
P5    P     P_3+3 0.079816 0.223410 0.586556 1.037868
P6    P     P_3+3 0.558340 0.575979 0.256836 1.048155
P7    P     P_3+3 0.497076 0.268478 0.429996 0.963321
P8    P     P_3+3 0.614693 0.411544 0.742144 0.943139

loop_
_geom_bond_atom_site_label_1
_geom_bond_atom_site_label_2
_ccdc_geom_bond_type
C12   O14   S    
O11   P6    D    
H30   O21   S    
C52   O42   D    
O7    P7    S    
O6    P7    D    
Ba1   O4    S    
C16   H6    S    
C50   O39   S    
Ba2   O34   S    
Ba1   P1    S    
C36   H12   S    
C34   C48   S    
C5    C6    S    
O9    P8    S    
C32   C50   S    
C38   N1    S    
H48   N5    S    
C9    C17   A    
C24   C25   A    
H43   N3    S    
C29   H24   S    
H29   O19   S    
O13   P1    S    
O47   P7    S    
C26   C27   A    
C22   C24   A    
C21   P5    S    
Ba1   O1    S    
C8    C13   A    
Ba2   O45   S    
C36   C37   S    
C34   H4    S    
O5    P2    S    
C19   C31   A    
C33   P7    S    
C54   C55   S    
C38   C46   S    
Ba1   Ba2   S    
H52   O39   S    
O15   P2    D    
C55   H15   S    
C36   C43   S    
C41   O20   D    
Ba2   O48   S    
C4    H22   S    
H31   O24   S    
H47   N4    S    
O45   P8    S    
C50   O38   D    
C6    C7    D    
H54   N7    S    
C22   N7    S    
O12   P2    S    
C21   C22   A    
C47   O32   S    
C23   H2    S    
C4    N4    S    
C39   H60   S    
H32   O26   S    
C39   H56   S    
O34   P4    D    
C41   O21   S    
C51   O41   S    
O4    P1    S    
C12   C40   S    
C18   C32   A    
O44   P4    S    
C25   C30   A    
C48   O33   D    
C44   O27   D    
Ba2   P4    S    
Ba1   O5    S    
C40   O19   S    
C52   O43   S    
Ba2   O4    S    
C20   C51   S    
C18   C27   A    
O48   P5    S    
C4    C16   S    
C28   N8    S    
C16   H27   S    
Ba2   O5    S    
C37   H23   S    
H57   O43   S    
C1    H62   S    
C3    C5    D    
C56   H20   S    
C14   C15   D    
C19   C32   A    
C25   C33   A    
C54   H10   S    
O1    P1    D    
C6    H17   S    
C42   O22   D    
C28   C35   S    
C45   O3    S    
H53   O41   S    
C39   N2    S    
C35   C41   S    
H39   N2    S    
C20   C33   A    
Ba2   O47   S    
Ba1   P2    S    
C51   O40   D    
C45   N3    S    
C29   C30   A    
O16   P3    S    
O8    P8    D    
C49   O36   D    
Ba2   O6    S    
C55   H13   S    
C17   H21   S    
C31   H25   S    
H49   N5    S    
C35   H1    S    
C1    C12   S    
C37   C44   S    
H41   O35   S    
C4    O23   S    
C38   C39   S    
C10   P4    S    
H40   O32   S    
C26   C31   A    
C54   H11   S    
H44   O37   S    
C11   C13   A    
O23   P3    S    
C36   O13   S    
C49   O37   S    
C43   O25   D    
C11   N6    S    
C3    N5    S    
C34   H3    S    
C40   O18   D    
C28   H28   S    
O46   P4    S    
C37   H34   S    
C53   H8    S    
C7    P1    S    
C45   C53   S    
C1    H45   S    
C13   C15   S    
Ba1   O47   S    
O14   P6    S    
C48   O35   S    
C8    H18   S    
O17   P3    D    
C5    C14   S    
C9    P8    S    
C30   H26   S    
C2    C3    S    
O2    P5    D    
C53   H9    S    
H55   N7    S    
C1    H5    S    
Ba1   O15   S    
C44   O28   S    
C46   O29   D    
Ba1   O44   S    
C24   C26   A    
C42   O24   S    
H38   N2    S    
C18   P3    S    
H42   N3    S    
H50   N6    S    
C35   C42   S    
H33   O28   S    
C27   C29   A    
Ba1   O16   S    
C54   O9    S    
O3    P5    S    
H37   N1    S    
C15   H16   S    
C46   O30   S    
C38   O12   S    
C10   C17   A    
C45   H7    S    
C49   C53   S    
C19   P2    S    
C55   H14   S    
H35   O30   S    
O10   P6    S    
H59   N8    S    
C23   C47   S    
C8    C9    A    
C16   C52   S    
C23   C34   S    
H36   N1    S    
H51   N6    S    
C10   C11   A    
C7    C56   D    
C12   H61   S    
H58   N8    S    
C23   O7    S    
C2    C56   S    
C20   C21   A    
C14   H19   S    
C43   O26   S    
C2    P6    S    
H46   N4    S    
C47   O31   D    
C28   O46   S    
Ba1   O10   S    
Ba2   O44   S    
