data_mof_unit_67015.cif
_audit_creation_date              2013-03-05T15:58:14-0500
_audit_creation_method            fapswitch 2.2
_symmetry_space_group_name_H-M    P1
_symmetry_Int_Tables_number       1
_space_group_crystal_system       triclinic
_cell_length_a                    8.380533
_cell_length_b                    13.064073
_cell_length_c                    14.178127
_cell_angle_alpha                 94.311033
_cell_angle_beta                  91.113795
_cell_angle_gamma                 98.152875
_cell_volume                      1531.52804521

loop_
_atom_site_label
_atom_site_type_symbol
_atom_site_description
_atom_site_fract_x
_atom_site_fract_y
_atom_site_fract_z
_atom_type_partial_charge
P1    P     P_3+3 0.054400 0.427280 0.286870 0.440091
O1    O     O_2   0.887370 0.460630 0.272300 -0.376556
O2    O     O_3   0.129410 0.451380 0.388510 -0.395243
O3    O     O_3   0.670210 0.653170 0.329170 -0.399720
O4    O     O_2   0.791877 0.585117 0.167266 -0.383334
O5    O     O_3   0.005766 0.292693 0.264532 -0.588586
O6    O     O_3   0.704371 0.767091 0.166564 -0.525106
H1    H     H_    0.751599 0.856402 0.292987 0.145687
C1    C     C_3   0.639890 0.937376 0.189292 -1.075123
H2    H     H_    0.609548 0.995869 0.244172 0.273484
H3    H     H_    0.753815 0.966973 0.155516 0.275572
P2    P     P_3+3 0.668300 0.742890 0.573060 0.429815
P3    P     P_3+3 0.148642 0.840020 0.378627 0.435685
O7    O     O_2   0.845380 0.761330 0.544970 -0.387836
O8    O     O_3   0.088930 0.704860 0.376040 -0.374458
O9    O     O_2   0.026182 0.889355 0.441519 -0.367100
O10   O     O_3   0.675998 0.761270 0.697178 -0.604155
O11   O     O_3   0.108247 0.879700 0.266614 -0.525700
C2    C     C_3   0.150220 0.805424 0.198171 0.491020
H4    H     H_    0.065189 0.731980 0.198539 0.145661
H5    H     H_    0.275457 0.789671 0.210352 0.014889
C3    C     C_3   0.139226 0.845973 0.100964 -1.007935
H6    H     H_    0.015326 0.863398 0.087397 0.278782
H7    H     H_    0.226347 0.918094 0.097346 0.245609
C4    C     C_3   0.284112 0.758442 0.696871 0.641856
H8    H     H_    0.393015 0.719433 0.692549 0.143743
C5    C     C_3   0.331768 0.866196 0.747111 -1.019250
H9    H     H_    0.383349 0.858298 0.818620 0.254779
H10   H     H_    0.424563 0.911823 0.706130 0.232884
H11   H     H_    0.223520 0.907448 0.754058 0.269801
Ba1   Ba    Ba6+2 0.855630 0.555280 0.454520 1.501766
C6    C     C_3   0.956024 0.246561 0.347170 0.369787
H12   H     H_    0.840015 0.270673 0.367605 0.108301
H13   H     H_    0.045714 0.267825 0.406583 0.142609
C7    C     C_3   0.935636 0.129180 0.326661 -0.926086
H14   H     H_    0.876414 0.107575 0.256188 0.265086
H15   H     H_    0.861216 0.089117 0.380099 0.234685
H16   H     H_    0.054841 0.101613 0.327416 0.268036
C8    C     C_3   0.759704 0.692210 0.741905 0.382892
H17   H     H_    0.844836 0.658510 0.694004 0.097808
C9    C     C_3   0.857691 0.750961 0.827816 -0.329352
H18   H     H_    0.950402 0.810922 0.802070 0.216866
H19   H     H_    0.921104 0.696348 0.865561 0.187161
P4    P     P_3+3 0.135310 0.572810 0.713130 0.427149
O12   O     O_2   0.302330 0.539400 0.727760 -0.395337
O13   O     O_3   0.060300 0.548700 0.611500 -0.387793
O14   O     O_3   0.519500 0.346920 0.670840 -0.394382
O15   O     O_3   0.167520 0.704790 0.750081 -0.618646
P5    P     P_3+3 0.065615 0.163966 0.637281 0.452181
O16   O     O_3   0.614310 0.373510 0.452640 -0.409912
O17   O     O_3   0.100780 0.295230 0.623970 -0.370931
O18   O     O_2   0.194515 0.117707 0.577460 -0.379661
O19   O     O_3   0.119971 0.147159 0.756410 -0.551406
Ba2   Ba    Ba6+2 0.334200 0.444810 0.545490 1.496540
P6    P     P_3+3 0.656168 0.643359 0.205505 0.438149
C10   C     C_3   0.657747 0.838980 0.235258 0.497324
H20   H     H_    0.539476 0.811317 0.265391 0.034893
H21   H     H_    0.541644 0.921352 0.134260 0.268589
O20   O     O_3   0.575400 0.626570 0.547370 -0.408505
C11   C     C_3   0.492957 0.229013 0.234808 0.801590
C12   C     C_3   0.530273 0.163908 0.144458 -1.042898
H22   H     H_    0.451506 0.087766 0.137238 0.268501
H23   H     H_    0.511341 0.204718 0.080179 0.236313
H24   H     H_    0.658055 0.150315 0.146334 0.255260
P7    P     P_3+3 0.528351 0.238581 0.430227 0.411380
O21   O     O_2   0.344320 0.238700 0.455090 -0.384503
O22   O     O_3   0.536539 0.177866 0.313579 -0.596247
H25   H     H_    0.167271 0.786618 0.045800 0.235216
C13   C     C_3   0.053718 0.214513 0.823450 0.737421
H26   H     H_    0.091078 0.296826 0.808123 0.093254
C14   C     C_3   0.109013 0.198641 0.926869 -0.254673
H27   H     H_    0.012767 0.211312 0.978158 0.119188
P8    P     P_3+3 0.541376 0.355389 0.793721 0.426007
C15   C     C_3   0.490064 0.150244 0.784254 0.560307
H28   H     H_    0.584843 0.163840 0.732499 0.029158
O23   O     O_2   0.425764 0.429324 0.831871 -0.392613
O24   O     O_3   0.461159 0.239178 0.839406 -0.508070
H29   H     H_    0.382798 0.116881 0.740331 0.151466
H30   H     H_    0.597834 0.109678 0.915230 0.287009
C16   C     C_3   0.524213 0.071028 0.853152 -1.088654
H31   H     H_    0.590159 0.012257 0.818514 0.229626
H32   H     H_    0.410617 0.031995 0.880261 0.281192
C17   C     C_R   0.985194 0.454395 0.062014 -0.121056
C18   C     C_R   0.188845 0.489932 0.196087 0.213616
C19   C     C_R   0.351981 0.524252 0.224018 -0.313389
C20   C     C_R   0.455661 0.579357 0.162394 0.224507
C21   C     C_R   0.403071 0.593294 0.070946 -0.319890
C22   C     C_R   0.247276 0.551508 0.037869 0.055494
C23   C     C_R   0.138349 0.498643 0.099797 -0.049005
C24   C     C_R   0.052940 0.509611 0.903408 -0.068599
C25   C     C_R   0.940947 0.461722 0.966456 0.066868
C26   C     C_R   0.011993 0.502098 0.803896 0.253696
C27   C     C_R   0.863937 0.445938 0.771984 -0.324362
C28   C     C_R   0.746307 0.411723 0.836463 0.235695
C29   C     C_R   0.784956 0.420151 0.933142 -0.318352
C30   C     C_R   0.202591 0.559245 0.942140 -0.135130
H33   H     H_    0.485424 0.635665 0.024875 0.155781
H34   H     H_    0.695359 0.389224 0.981662 0.154992
H35   H     H_    0.900109 0.410449 0.105090 0.159423
H36   H     H_    0.288621 0.600519 0.897673 0.166055
C31   C     C_R   0.769654 0.175992 0.542675 -0.585673
C32   C     C_R   0.457719 0.820236 0.453112 -0.509666
C33   C     C_R   0.410709 0.996107 0.442183 -0.133912
C34   C     C_R   0.358888 0.889811 0.424287 0.173701
C35   C     C_R   0.587245 0.851808 0.517661 0.342830
C36   C     C_R   0.644924 0.962265 0.537491 -0.105035
C37   C     C_R   0.556721 0.034477 0.493680 -0.103802
C38   C     C_R   0.616268 0.143320 0.501850 0.313775
C39   C     C_R   0.856844 0.109628 0.588493 0.256792
C40   C     C_R   0.787544 0.005482 0.594808 0.173329
H37   H     H_    0.334009 0.047898 0.415801 0.192286
H38   H     H_    0.826554 0.253609 0.533091 0.162683
H39   H     H_    0.422146 0.738490 0.433245 0.176398
N1    N     N_3   0.644566 0.608964 0.774072 -0.220871
H40   H     H_    0.587471 0.568266 0.714116 0.174801
H41   H     H_    0.555412 0.640955 0.811854 0.141584
C41   C     C_3   0.755998 0.804538 0.899545 -0.846697
H42   H     H_    0.683918 0.856688 0.864285 0.261974
H43   H     H_    0.673854 0.746623 0.936203 0.251929
H44   H     H_    0.836796 0.852014 0.954682 0.250800
C42   C     C_3   0.312716 0.234616 0.231717 -0.869609
H45   H     H_    0.241710 0.156876 0.213118 0.247190
H46   H     H_    0.274766 0.263015 0.300820 0.260725
H47   H     H_    0.282756 0.288625 0.179835 0.188966
N2    N     N_3   0.588466 0.331056 0.235155 -0.195307
H48   H     H_    0.555912 0.367439 0.175810 0.046767
H49   H     H_    0.706698 0.318040 0.224721 0.158722
C43   C     C_3   0.871821 0.191620 0.818820 -1.188051
H50   H     H_    0.828942 0.218941 0.752531 0.241346
H51   H     H_    0.834872 0.107384 0.823322 0.276253
H52   H     H_    0.818210 0.232735 0.878508 0.251359
N3    N     N_3   0.249102 0.274368 0.957077 -0.129260
H53   H     H_    0.280669 0.264085 0.026718 0.114805
H54   H     H_    0.216112 0.348320 0.957977 0.133017
N4    N     N_3   0.145747 0.093000 0.933860 -0.159454
H55   H     H_    0.191819 0.087116 0.002489 0.124743
H56   H     H_    0.036871 0.041470 0.927079 0.126759
N5    N     N_3   0.412661 0.502138 0.315193 -0.133743
H57   H     H_    0.371206 0.425587 0.325997 0.139941
H58   H     H_    0.533437 0.493663 0.311747 0.187585
N6    N     N_3   0.836545 0.422273 0.672650 -0.140502
H59   H     H_    0.799022 0.343247 0.661089 0.123437
H60   H     H_    0.752017 0.465160 0.646805 0.165644
C44   C     C_3   0.851281 0.952380 0.674953 -0.843605
H61   H     H_    0.936138 0.001516 0.723574 0.233732
H62   H     H_    0.750845 0.931376 0.721486 0.245634
H63   H     H_    0.924422 0.892301 0.652716 0.278343
C45   C     C_3   0.212470 0.766448 0.599491 -0.768243
H64   H     H_    0.233082 0.846653 0.578459 0.217363
H65   H     H_    0.254327 0.707836 0.548706 0.216544
H66   H     H_    0.083064 0.745075 0.602124 0.283031

loop_
_geom_bond_atom_site_label_1
_geom_bond_atom_site_label_2
_geom_bond_distance
_ccdc_geom_bond_type
O5    C6    1.401306 S    
C21   C22   1.399359 A    
C22   C30   1.415699 A    
C27   C28   1.406709 A    
C5    H10   1.111677 S    
C9    H18   1.109922 S    
C2    H4    1.111488 S    
C45   H66   1.082931 S    
O6    P6    1.743141 S    
O7    Ba1   2.906701 S    
O19   C13   1.421042 S    
C43   H50   1.101612 S    
H1    C10   1.111999 S    
N1    H40   1.038427 S    
C29   H34   1.084489 S    
N4    H55   1.052064 S    
C8    C9    1.545600 S    
C19   C20   1.408284 A    
P1    C18   1.883969 S    
O16   Ba2   2.944018 S    
P3    O11   1.748757 S    
P8    C28   1.841848 S    
C11   N2    1.453986 S    
C2    H5    1.110551 S    
C45   H65   1.109469 S    
O11   C2    1.405516 S    
C41   H43   1.114350 S    
C14   N4    1.466000 S    
P2    C35   1.877362 S    
O2    Ba2   2.797953 S    
C36   C37   1.445773 A    
C31   C39   1.397663 A    
P1    Ba1   3.401105 S    
C10   H20   1.110689 S    
C32   C35   1.401293 A    
C33   H37   1.078390 S    
P1    O1    1.538573 D    
O10   C8    1.398725 S    
Ba1   O20   2.944822 S    
C13   C14   1.566617 S    
C42   H47   1.105940 S    
C14   N3    1.458704 S    
P2    O20   1.618096 S    
C7    H14   1.105870 S    
C13   C43   1.510418 S    
N3    H53   1.040585 S    
P5    O17   1.723555 S    
C15   O24   1.403780 S    
P2    O10   1.756775 S    
C37   C38   1.433905 A    
C1    H2    1.107894 S    
P7    C38   1.882499 S    
P4    C26   1.880733 S    
O2    Ba1   2.959478 S    
C8    N1    1.454591 S    
C31   C38   1.395685 A    
C15   C16   1.527157 S    
C5    H11   1.121269 S    
C9    H19   1.109839 S    
C11   C42   1.522563 S    
C13   H26   1.115296 S    
O6    C10   1.401657 S    
C44   H63   1.094495 S    
P4    O13   1.552749 S    
Ba2   O20   2.889999 S    
C17   C23   1.408836 A    
C15   H28   1.096890 S    
P1    O5    1.750963 S    
C6    C7    1.523809 S    
C2    C3    1.518970 S    
C45   H64   1.101944 S    
C11   O22   1.411639 S    
C16   H32   1.104560 S    
C41   H44   1.114321 S    
C8    H17   1.107731 S    
C20   C21   1.394454 A    
C16   H31   1.100162 S    
P7    O22   1.786538 S    
C4    H8    1.107169 S    
C24   C30   1.408531 A    
Ba1   O13   2.797370 S    
N3    H54   1.041163 S    
C11   C12   1.545760 S    
C31   H38   1.077101 S    
C6    H13   1.110273 S    
C12   H24   1.110209 S    
C40   C44   1.502588 S    
C17   H35   1.079163 S    
C24   C26   1.438341 A    
P5    O18   1.547654 D    
O13   Ba2   2.960259 S    
C12   H23   1.109691 S    
C28   C29   1.394946 A    
C1    C10   1.508714 S    
C18   C19   1.416122 A    
P3    C34   1.874568 S    
C32   C34   1.391195 A    
C1    H3    1.109635 S    
C4    O15   1.388907 S    
C3    H25   1.111710 S    
C42   H45   1.112343 S    
N5    H58   1.035384 S    
O14   Ba2   2.828990 S    
C44   H62   1.096513 S    
P2    O7    1.534595 D    
O12   Ba2   2.813722 S    
P3    O8    1.763111 S    
P2    Ba1   3.445452 S    
N2    H48   1.047031 S    
P8    O23   1.539976 D    
C3    H7    1.112222 S    
C18   C23   1.438881 A    
Ba1   O16   2.890679 S    
C43   H52   1.105175 S    
C5    H9    1.112107 S    
C27   N6    1.426055 S    
P4    O12   1.538942 D    
P5    C39   1.889552 S    
O14   P8    1.741856 S    
N4    H56   1.052437 S    
C1    H21   1.110007 S    
C7    H15   1.105590 S    
C3    H6    1.110331 S    
O4    P6    1.540689 D    
C44   H61   1.085328 S    
C43   H51   1.107091 S    
N1    H41   1.044185 S    
O8    Ba1   2.864828 S    
Ba2   O21   2.906955 S    
C4    C5    1.525539 S    
C17   C25   1.411477 A    
C35   C36   1.459749 A    
O17   Ba2   2.865425 S    
C9    C41   1.531785 S    
C6    H12   1.101122 S    
P6    C20   1.838758 S    
N6    H60   1.040849 S    
C14   H27   1.117751 S    
O3    P6    1.748830 S    
C32   H39   1.081622 S    
N6    H59   1.035412 S    
C24   C25   1.421803 A    
P5    O19   1.778409 S    
C30   H36   1.080065 S    
C26   C27   1.397357 A    
C4    C45   1.511611 S    
Ba1   Ba2   4.642440 S    
C12   H22   1.109742 S    
O16   P7    1.809372 S    
C42   H46   1.090706 S    
O3    Ba1   2.829594 S    
N5    H57   1.034822 S    
C25   C29   1.401107 A    
H30   C16   1.110854 S    
P4    Ba2   3.401587 S    
C22   C23   1.422935 A    
C36   C40   1.452442 A    
P7    O21   1.588910 D    
C15   H29   1.100993 S    
P3    O9    1.549366 D    
C39   C40   1.411622 A    
C33   C34   1.397521 A    
N2    H49   1.040328 S    
P8    O24   1.746903 S    
C7    H16   1.109068 S    
O1    Ba1   2.813205 S    
C33   C37   1.420560 A    
P1    O2    1.552868 S    
C41   H42   1.111388 S    
C19   N5    1.444086 S    
P4    O15   1.745535 S    
C21   H33   1.083020 S    
