data_mof_unit_12609.cif
_audit_creation_date              2012-12-10T17:18:55-0500
_audit_creation_method            fapswitch 2.2
_symmetry_space_group_name_H-M    P1
_symmetry_Int_Tables_number       1
_space_group_crystal_system       triclinic
_cell_length_a                    9.636756
_cell_length_b                    10.758529
_cell_length_c                    13.517462
_cell_angle_alpha                 92.751682
_cell_angle_beta                  75.880518
_cell_angle_gamma                 88.056445
_cell_volume                      1356.04122162

loop_
_atom_site_label
_atom_site_type_symbol
_atom_type_description
_atom_site_fract_x
_atom_site_fract_y
_atom_site_fract_z
_atom_type_partial_charge
C1    C     C_R   0.497299 0.737543 0.496445 0.817646
C2    C     C_R   0.422105 0.490673 0.983650 0.058972
C3    C     C_R   0.466557 0.461340 0.876592 -0.011399
C4    C     C_R   0.506023 0.440839 0.045857 0.062105
C5    C     C_R   0.596915 0.333908 0.008500 0.133756
C6    C     C_R   0.610649 0.288864 0.907827 -0.298779
C7    C     C_R   0.588808 0.378188 0.841204 0.363494
C8    C     C_R   0.510756 0.499531 0.139136 -0.207614
C9    C     C_R   0.694045 0.348686 0.157260 -0.207615
C10   C     C_R   0.386873 0.515463 0.811817 -0.081186
C11   C     C_R   0.400997 0.881914 0.334321 0.369449
C12   C     C_R   0.426065 0.499019 0.699180 0.782855
C13   C     C_R   0.433340 0.932863 0.238273 -0.171263
C14   C     C_R   0.488945 0.050529 0.227294 -0.187980
C15   C     C_R   0.509009 0.118358 0.312650 -0.169449
C16   C     C_R   0.492022 0.062349 0.406652 0.098311
C17   C     C_R   0.459172 0.936010 0.412529 -0.014039
C18   C     C_R   0.484636 0.872615 0.496910 -0.059215
C19   C     C_R   0.505043 0.940275 0.582705 -0.095876
C20   C     C_R   0.508842 0.068596 0.583659 -0.136644
C21   C     C_R   0.506439 0.129146 0.495292 0.016343
C22   C     C_R   0.906227 0.298692 0.398829 0.426146
C23   C     C_R   0.501884 0.263026 0.500338 0.748033
C24   C     C_R   0.990491 0.264042 0.300964 -0.242287
C25   C     C_R   0.137564 0.279144 0.282124 -0.207788
C26   C     C_R   0.192169 0.343899 0.355245 -0.072725
C27   C     C_R   0.098837 0.415928 0.436105 0.164304
C28   C     C_R   0.948402 0.405562 0.446840 0.043630
C29   C     C_R   0.909622 0.591746 0.552425 0.549936
C30   C     C_R   0.054305 0.583277 0.557846 0.001206
C31   C     C_R   0.573845 0.493102 0.302012 0.754268
C32   C     C_R   0.688646 0.287116 0.065358 -0.119420
C33   C     C_R   0.603727 0.453893 0.194693 -0.031899
C34   C     C_R   0.263652 0.591731 0.855961 -0.161142
C35   C     C_R   0.220290 0.617570 0.960834 -0.111998
C36   C     C_R   0.299005 0.568736 0.024413 -0.165080
Cu1   Cu    Cu3+1 0.359340 0.500010 0.500010 1.008952
Cu2   Cu    Cu3+1 0.640660 0.499990 0.499990 1.081623
H1    H     H_    0.761943 0.309909 0.202082 0.136315
H2    H     H_    0.396164 0.890174 0.175809 0.166369
H3    H     H_    0.540268 0.213383 0.304693 0.109574
H4    H     H_    0.953531 0.195892 0.252836 0.176404
H5    H     H_    0.209600 0.232001 0.215752 0.171735
H6    H     H_    0.305326 0.337574 0.344220 0.187244
H7    H     H_    0.687138 0.211737 0.877589 0.181578
H8    H     H_    0.095913 0.650124 0.603984 0.203411
H9    H     H_    0.759662 0.206114 0.037030 0.150115
H10   H     H_    0.445231 0.582859 0.169041 0.175437
H11   H     H_    0.200915 0.633628 0.808682 0.167279
H12   H     H_    0.258933 0.588732 0.105745 0.152591
H13   H     H_    0.124923 0.676272 0.993077 0.163315
N1    N     N_R   0.852480 0.498790 0.499000 -0.253045
N2    N     N_R   0.148360 0.498710 0.498970 -0.220048
O1    O     O_R   0.381190 0.680360 0.500010 -0.532417
O2    O     O_R   0.618760 0.680340 0.500000 -0.507983
O3    O     O_R   0.323240 0.499990 0.650990 -0.598955
O4    O     O_R   0.560820 0.499960 0.650980 -0.481923
O5    O     O_R   0.381240 0.319660 0.500000 -0.592679
O6    O     O_R   0.618810 0.319640 0.499990 -0.540153
O7    O     O_R   0.439180 0.500040 0.349020 -0.569392
O8    O     O_R   0.676760 0.500010 0.349010 -0.606813
S1    S     S_3+6 0.229402 0.818726 0.366704 0.033077
O9    O     O_2   0.166043 0.834237 0.479950 -0.228887
O10   O     O_2   0.132456 0.887838 0.313916 -0.247603
O11   O     O_3   0.239338 0.667907 0.326967 -0.562294
H14   H     H_    0.141386 0.649316 0.321588 0.351175
H15   H     H_    0.504202 0.093302 0.154832 0.154815
H16   H     H_    0.516143 0.120616 0.652741 0.136635
S2    S     S_3+6 0.819172 0.732562 0.614005 0.064858
O12   O     O_2   0.819936 0.825099 0.534031 -0.239293
O13   O     O_2   0.668450 0.714809 0.672554 -0.277454
O14   O     O_3   0.906815 0.793460 0.697133 -0.535417
H17   H     H_    0.861807 0.877984 0.717409 0.371861
S3    S     S_3+6 0.885636 0.163170 0.470788 0.070996
O15   O     O_2   0.818378 0.064950 0.417474 -0.264853
O16   O     O_2   0.031812 0.114209 0.475500 -0.215657
O17   O     O_3   0.787305 0.191334 0.591045 -0.498132
H18   H     H_    0.799804 0.114605 0.626261 0.370118
S4    S     S_3+6 0.755498 0.444914 0.793698 0.035456
O18   O     O_2   0.809634 0.406131 0.683277 -0.264848
O19   O     O_2   0.738797 0.583946 0.809886 -0.229669
O20   O     O_3   0.878366 0.394918 0.854461 -0.537025
H19   H     H_    0.966868 0.436818 0.822571 0.371106
H20   H     H_    0.513556 0.894204 0.650398 0.175443

loop_
_geom_bond_atom_site_label_1
_geom_bond_atom_site_label_2
_ccdc_geom_bond_type
C23   O5    A    
C16   C21   A    
C6    H7    S    
C24   H4    S    
C31   O8    A    
C35   C36   A    
C4    C8    A    
C11   S1    S    
C25   H5    S    
C26   H6    S    
O17   H18   S    
C23   O6    A    
C26   C27   A    
S1    O9    D    
S3    O16   D    
Cu1   Cu2   S    
C18   C19   A    
C3    C7    A    
C5    C6    A    
Cu2   N1    S    
C15   C16   A    
C9    H1    S    
C34   C35   A    
S2    O13   D    
C13   H2    S    
S1    O10   D    
C9    C32   A    
Cu1   O3    S    
Cu2   O2    S    
C19   C20   A    
C16   C17   A    
S3    O17   S    
C14   H15   S    
C31   C33   S    
Cu1   O5    S    
Cu2   O8    S    
Cu1   N2    S    
C22   C28   A    
C13   C14   A    
C9    C33   A    
C30   H8    S    
C29   S2    S    
C30   N2    A    
S3    O15   D    
C24   C25   A    
C15   H3    S    
S4    O19   D    
C4    C5    A    
C25   C26   A    
S4    O18   D    
C31   O7    A    
S2    O14   S    
C2    C4    A    
C1    O1    A    
C8    H10   S    
C29   C30   A    
Cu2   O4    S    
C17   C18   A    
C1    C18   S    
C10   C34   A    
C12   O3    A    
C10   C12   S    
Cu1   O1    S    
O20   H19   S    
C21   C23   S    
C35   H13   S    
C32   H9    S    
C22   C24   A    
C12   O4    A    
C19   H20   S    
C36   H12   S    
C7    S4    S    
C2    C36   A    
C11   C17   A    
C34   H11   S    
S1    O11   S    
C20   H16   S    
O14   H17   S    
S4    O20   S    
C27   N2    A    
C6    C7    A    
C28   N1    A    
C5    C32   A    
C2    C3    A    
C1    O2    A    
C3    C10   A    
C11   C13   A    
C8    C33   A    
S2    O12   D    
Cu1   O7    S    
Cu2   O6    S    
C20   C21   A    
O11   H14   S    
C27   C28   A    
C22   S3    S    
C14   C15   A    
C29   N1    A    
