data_mof_unit_45251.cif
_audit_creation_date              2012-12-10T19:07:54-0500
_audit_creation_method            fapswitch 2.2
_symmetry_space_group_name_H-M    P1
_symmetry_Int_Tables_number       1
_space_group_crystal_system       triclinic
_cell_length_a                    13.013465
_cell_length_b                    13.593006
_cell_length_c                    23.376386
_cell_angle_alpha                 89.663596
_cell_angle_beta                  92.324473
_cell_angle_gamma                 85.240861
_cell_volume                      4117.27361144

loop_
_atom_site_label
_atom_site_type_symbol
_atom_type_description
_atom_site_fract_x
_atom_site_fract_y
_atom_site_fract_z
_atom_type_partial_charge
C1    C     C_R   0.480719 0.685278 0.499073 0.871049
C2    C     C_R   0.519196 0.314745 0.500673 0.882136
C3    C     C_R   0.573663 0.468751 0.767438 0.372469
C4    C     C_R   0.577136 0.551211 0.238756 0.392108
C5    C     C_R   0.577620 0.460606 0.707961 0.301008
C6    C     C_R   0.573994 0.555900 0.298424 0.324531
C7    C     C_R   0.494753 0.503783 0.672991 -0.420809
C8    C     C_R   0.501062 0.503558 0.326777 -0.432122
C9    C     C_R   0.406828 0.550633 0.697884 0.286498
C10   C     C_R   0.425956 0.455471 0.294894 0.288933
C11   C     C_R   0.398241 0.546858 0.757038 0.354963
C12   C     C_R   0.420400 0.464421 0.235511 0.351072
C13   C     C_R   0.482386 0.507775 0.791675 -0.050138
C14   C     C_R   0.498115 0.508801 0.207435 -0.075806
C15   C     C_1   0.534733 0.211523 0.502790 -0.188277
C16   C     C_1   0.464484 0.788531 0.497430 -0.191838
C17   C     C_2   0.543197 0.019072 0.507050 0.397690
C18   C     C_2   0.452376 0.981363 0.496335 0.397863
C19   C     C_1   0.454582 0.876126 0.496371 -0.085477
C20   C     C_1   0.542965 0.123980 0.504857 -0.067791
C21   C     C_2   0.033220 0.465279 0.487267 0.327847
C22   C     C_2   0.966495 0.535386 0.510136 0.326923
C23   C     C_R   0.498817 0.500522 0.610829 0.968000
C24   C     C_R   0.500851 0.500141 0.389133 0.962944
C25   C     C_1   0.854237 0.522500 0.509421 0.069383
C26   C     C_1   0.145704 0.477655 0.489541 0.058944
C27   C     C_R   0.501614 0.422758 0.118300 0.637145
C28   C     C_R   0.466742 0.596087 0.879901 0.627265
C29   C     C_R   0.473015 0.598633 0.118101 0.610686
C30   C     C_R   0.469365 0.420173 0.880418 0.607088
C31   C     C_R   0.453495 0.600531 0.058571 -0.202280
C32   C     C_R   0.458329 0.418804 0.939806 -0.203747
C33   C     C_R   0.459799 0.509862 0.029206 -0.142204
C34   C     C_R   0.454157 0.509366 0.969148 -0.140364
C35   C     C_R   0.476869 0.419620 0.059593 -0.198947
C36   C     C_R   0.448898 0.599377 0.938561 -0.202141
C37   C     C_R   0.426498 0.689562 0.027542 0.414264
C38   C     C_R   0.452254 0.330064 0.970890 0.425748
C39   C     C_R   0.426092 0.689309 0.967518 0.405362
C40   C     C_R   0.465897 0.329606 0.030635 0.400178
N1    N     N_R   0.494838 0.510671 0.146307 -0.305324
N2    N     N_R   0.474259 0.507820 0.852305 -0.304911
N3    N     N_1   0.234540 0.484780 0.490870 -0.084907
N4    N     N_1   0.765460 0.515220 0.509130 -0.085907
O1    O     O_R   0.402510 0.634760 0.496660 -0.614297
O2    O     O_R   0.597490 0.365240 0.503340 -0.614944
O3    O     O_R   0.572960 0.644530 0.502520 -0.615429
O4    O     O_R   0.427040 0.355470 0.497480 -0.609002
O5    O     O_R   0.414760 0.495140 0.580910 -0.570560
O6    O     O_R   0.585240 0.504860 0.419090 -0.587520
O7    O     O_R   0.585200 0.504910 0.586770 -0.586678
O8    O     O_R   0.414800 0.495090 0.413230 -0.572580
O9    O     O_2   0.532854 0.339120 0.147662 -0.545282
O10   O     O_2   0.479464 0.679667 0.850584 -0.546713
O11   O     O_2   0.471415 0.683469 0.147775 -0.528400
O12   O     O_2   0.478419 0.335023 0.850947 -0.532010
Zn1   Zn    Zn3+2 0.386190 0.493470 0.496090 0.999758
Zn2   Zn    Zn3+2 0.613810 0.506530 0.503910 0.992062
O13   O     O_3   0.405255 0.778519 0.054961 -0.567322
C41   C     C_3   0.302915 0.783144 0.073768 0.133936
H1    H     H_    0.291104 0.720185 0.102813 0.133232
H2    H     H_    0.246590 0.781441 0.036905 0.090362
C42   C     C_3   0.280523 0.879210 0.106244 -0.283731
H3    H     H_    0.337948 0.882928 0.142541 0.245297
H4    H     H_    0.287496 0.942946 0.077046 0.222421
C43   C     C_3   0.172279 0.886010 0.129518 -0.991021
H5    H     H_    0.113428 0.884652 0.093820 0.269405
H6    H     H_    0.158295 0.956018 0.153218 0.273207
H7    H     H_    0.164096 0.823455 0.159336 0.265730
O14   O     O_3   0.432484 0.242863 0.943927 -0.563870
C44   C     C_3   0.325763 0.246746 0.928454 0.119821
H8    H     H_    0.307800 0.295023 0.890181 0.154391
H9    H     H_    0.276798 0.276061 0.963619 0.074983
C45   C     C_3   0.296678 0.143009 0.914127 -0.299316
H10   H     H_    0.342114 0.114234 0.877666 0.238661
H11   H     H_    0.315566 0.093505 0.951789 0.228694
C46   C     C_3   0.181776 0.143105 0.898099 -0.991785
H12   H     H_    0.134948 0.170964 0.934199 0.267985
H13   H     H_    0.162541 0.066850 0.888379 0.277345
H14   H     H_    0.161674 0.190354 0.859673 0.269070
O15   O     O_3   0.407779 0.778419 0.938167 -0.571741
C47   C     C_3   0.307761 0.784654 0.911319 0.129353
H15   H     H_    0.249344 0.807429 0.942927 0.104953
H16   H     H_    0.287572 0.713520 0.892120 0.148087
C48   C     C_3   0.301723 0.862690 0.863720 -0.252349
H17   H     H_    0.314400 0.935473 0.882734 0.212613
H18   H     H_    0.363235 0.844555 0.832993 0.265985
C49   C     C_3   0.197212 0.868939 0.831260 -0.990243
H19   H     H_    0.194295 0.928299 0.798257 0.268811
H20   H     H_    0.133937 0.886102 0.861044 0.260707
H21   H     H_    0.185627 0.797925 0.809621 0.293392
O16   O     O_3   0.471811 0.239982 0.059708 -0.568012
C50   C     C_3   0.376042 0.227271 0.084223 0.133992
H22   H     H_    0.320139 0.204193 0.050835 0.113562
H23   H     H_    0.342606 0.295955 0.104628 0.161120
C51   C     C_3   0.391518 0.145980 0.129972 -0.255392
H24   H     H_    0.416090 0.074741 0.109494 0.220874
H25   H     H_    0.453160 0.163669 0.161621 0.262165
C52   C     C_3   0.292508 0.135262 0.161416 -1.011569
H26   H     H_    0.269954 0.204166 0.184763 0.294192
H27   H     H_    0.305190 0.073511 0.192890 0.267964
H28   H     H_    0.228931 0.119355 0.130600 0.266844
O17   O     O_3   0.656190 0.431295 0.802273 -0.570797
C53   C     C_3   0.724092 0.506006 0.810958 0.134510
H29   H     H_    0.684957 0.571019 0.832365 0.154132
H30   H     H_    0.754171 0.529983 0.769606 0.164164
C54   C     C_3   0.815318 0.465917 0.849342 -0.814927
H31   H     H_    0.856668 0.401441 0.828884 0.256648
H32   H     H_    0.869577 0.523984 0.856416 0.203619
H33   H     H_    0.787963 0.442720 0.891353 0.264311
O18   O     O_3   0.652689 0.595607 0.210675 -0.551490
C55   C     C_3   0.736920 0.524878 0.204072 0.131584
H34   H     H_    0.713207 0.460891 0.178588 0.150219
H35   H     H_    0.770426 0.498101 0.246535 0.160222
C56   C     C_3   0.820262 0.572083 0.172378 -0.807712
H36   H     H_    0.846505 0.635643 0.197021 0.258839
H37   H     H_    0.887185 0.517171 0.167005 0.200681
H38   H     H_    0.789518 0.598348 0.129454 0.263961
O19   O     O_3   0.665660 0.415788 0.684643 -0.603303
C57   C     C_3   0.649270 0.317595 0.668975 0.123340
H39   H     H_    0.703029 0.296360 0.634560 0.168008
H40   H     H_    0.569941 0.309596 0.650584 0.096291
C58   C     C_3   0.673188 0.246625 0.719933 -0.292882
H41   H     H_    0.749231 0.260152 0.740451 0.251511
H42   H     H_    0.612982 0.259733 0.752003 0.263781
C59   C     C_3   0.675696 0.139148 0.701308 -0.999175
H43   H     H_    0.601479 0.124451 0.679120 0.263769
H44   H     H_    0.688112 0.090010 0.739502 0.286682
H45   H     H_    0.740044 0.122063 0.672257 0.260417
O20   O     O_3   0.647480 0.606082 0.328120 -0.596811
C60   C     C_3   0.602089 0.696052 0.349854 0.162661
H46   H     H_    0.652978 0.716972 0.386317 0.142519
H47   H     H_    0.525524 0.689193 0.368474 0.100988
C61   C     C_3   0.596387 0.780020 0.305078 -0.371506
H48   H     H_    0.617579 0.848959 0.326260 0.179227
H49   H     H_    0.652767 0.762674 0.271395 0.282203
C62   C     C_3   0.487997 0.800067 0.277622 -0.814832
H50   H     H_    0.460723 0.732171 0.258290 0.281653
H51   H     H_    0.488630 0.857330 0.243593 0.267115
H52   H     H_    0.433127 0.827298 0.310310 0.225208
O21   O     O_3   0.327193 0.598052 0.664575 -0.556810
C63   C     C_3   0.349942 0.696666 0.655653 0.171438
H53   H     H_    0.422440 0.699727 0.632165 0.106294
H54   H     H_    0.357631 0.735958 0.697149 0.158699
C64   C     C_3   0.262524 0.750610 0.619868 -0.792444
H55   H     H_    0.190201 0.752571 0.643536 0.256028
H56   H     H_    0.280891 0.827484 0.611190 0.184429
H57   H     H_    0.251406 0.712417 0.578468 0.280057
O22   O     O_3   0.354177 0.403382 0.321613 -0.568141
C65   C     C_3   0.394123 0.303860 0.327522 0.170963
H58   H     H_    0.469798 0.297584 0.351965 0.111277
H59   H     H_    0.403734 0.269296 0.284752 0.167555
C66   C     C_3   0.319311 0.246806 0.360268 -0.825439
H60   H     H_    0.243618 0.249139 0.336363 0.244455
H61   H     H_    0.350666 0.168671 0.365718 0.217918
H62   H     H_    0.308189 0.279547 0.403219 0.268713
O23   O     O_3   0.310323 0.588777 0.781565 -0.580343
C67   C     C_3   0.239311 0.516213 0.785320 0.136269
H63   H     H_    0.273716 0.449983 0.809727 0.122045
H64   H     H_    0.212938 0.493469 0.741810 0.178609
C68   C     C_3   0.145723 0.558724 0.816600 -0.864917
H65   H     H_    0.108712 0.624513 0.793155 0.265407
H66   H     H_    0.088858 0.502494 0.819433 0.212855
H67   H     H_    0.169534 0.580440 0.860591 0.237918
O24   O     O_3   0.342868 0.422826 0.204261 -0.585115
C69   C     C_3   0.257897 0.493986 0.197160 0.127971
H68   H     H_    0.280929 0.564257 0.178583 0.119328
H69   H     H_    0.222002 0.509477 0.238954 0.175149
C70   C     C_3   0.177676 0.454296 0.156304 -0.876507
H70   H     H_    0.153298 0.383657 0.173136 0.265283
H71   H     H_    0.109129 0.508534 0.151618 0.213236
H72   H     H_    0.210503 0.441596 0.113586 0.236555
O25   O     O_3   0.363093 0.044867 0.485074 -0.671716
C71   C     C_3   0.270349 0.997129 0.482759 0.095520
H73   H     H_    0.207172 0.052488 0.494453 0.164152
H74   H     H_    0.270016 0.936306 0.514872 0.133456
C72   C     C_3   0.245974 0.962161 0.421845 -0.356826
H75   H     H_    0.237676 0.026864 0.392237 0.222754
H76   H     H_    0.309983 0.910358 0.407330 0.220576
C73   C     C_3   0.146315 0.910354 0.418889 -0.952872
H77   H     H_    0.154469 0.843240 0.446572 0.270298
H78   H     H_    0.129431 0.887882 0.374125 0.268356
H79   H     H_    0.080709 0.960734 0.432982 0.262154
O26   O     O_3   0.633711 0.956615 0.515425 -0.667036
C74   C     C_3   0.708080 0.997510 0.552070 0.081621
H80   H     H_    0.746945 0.936326 0.578719 0.161619
H81   H     H_    0.673609 0.051753 0.582885 0.132404
C75   C     C_3   0.789817 0.042567 0.517084 -0.348700
H82   H     H_    0.830203 0.983863 0.491383 0.222592
H83   H     H_    0.752683 0.099740 0.487088 0.233496
C76   C     C_3   0.868658 0.089664 0.555997 -0.956617
H84   H     H_    0.830716 0.153177 0.578973 0.268847
H85   H     H_    0.930057 0.116764 0.529951 0.268206
H86   H     H_    0.904989 0.034933 0.587715 0.259093
O27   O     O_3   0.007650 0.616677 0.536128 -0.626675
C77   C     C_3   0.934335 0.699227 0.538282 0.121786
H87   H     H_    0.872826 0.684983 0.568273 0.152026
H88   H     H_    0.899373 0.717837 0.494848 0.140188
C78   C     C_3   0.987452 0.787965 0.560124 -0.832502
H89   H     H_    0.052963 0.801786 0.533016 0.258317
H90   H     H_    0.931655 0.854273 0.558897 0.207785
H91   H     H_    0.016427 0.774454 0.605001 0.254664
O28   O     O_3   0.991700 0.383298 0.462022 -0.628009
C79   C     C_3   0.066858 0.317732 0.437058 0.105173
H92   H     H_    0.123550 0.285382 0.470391 0.148332
H93   H     H_    0.107443 0.356186 0.403539 0.158120
C80   C     C_3   0.014389 0.233768 0.408583 -0.815517
H94   H     H_    0.959031 0.263364 0.374048 0.260714
H95   H     H_    0.073214 0.181030 0.389741 0.205702
H96   H     H_    0.972170 0.193964 0.440550 0.254641

loop_
_geom_bond_atom_site_label_1
_geom_bond_atom_site_label_2
_ccdc_geom_bond_type
C24   O8    A    
C43   H6    S    
C21   C26   S    
C42   H4    S    
O24   C69   S    
C58   H42   S    
C70   H71   S    
C70   H70   S    
C21   O28   S    
C2    O4    A    
O18   C55   S    
C6    O20   S    
C60   C61   S    
C64   H57   S    
C61   C62   S    
C55   H35   S    
O15   C47   S    
C9    O21   S    
C58   H41   S    
C46   H12   S    
C2    O2    A    
C62   H51   S    
O1    Zn1   S    
C50   H22   S    
C45   H11   S    
C5    O19   S    
C41   C42   S    
C41   H2    S    
C38   C40   A    
C16   C19   T    
C10   O22   S    
C33   C35   A    
C23   O5    A    
C43   H7    S    
C56   H36   S    
C51   C52   S    
C17   C20   S    
O5    Zn1   S    
O26   C74   S    
C75   H83   S    
C18   C19   S    
C71   H73   S    
C53   H29   S    
C67   C68   S    
C64   H56   S    
C75   H82   S    
C67   H64   S    
O23   C67   S    
N4    Zn2   S    
C72   H76   S    
C65   C66   S    
C51   H25   S    
C80   H96   S    
C54   H31   S    
C49   H21   S    
O14   C44   S    
C32   C38   A    
C66   H61   S    
C3    C13   A    
C73   H79   S    
C49   H19   S    
C72   C73   S    
C48   H18   S    
C43   H5    S    
C42   C43   S    
C1    C16   S    
O13   C41   S    
C50   H23   S    
O25   C71   S    
C21   C22   D    
O2    Zn2   S    
C69   H69   S    
C54   H32   S    
C63   C64   S    
C77   C78   S    
C25   N4    T    
C53   H30   S    
C13   N2    S    
C68   H66   S    
C57   H40   S    
C26   N3    T    
C64   H55   S    
C46   H13   S    
C24   O6    A    
C15   C20   T    
C62   H52   S    
C45   H10   S    
C35   C40   A    
C80   H94   S    
O6    Zn2   S    
O4    Zn1   S    
C39   O15   S    
C77   H88   S    
C12   O24   S    
C5    C7    A    
C28   O10   S    
C1    O3    A    
C74   C75   S    
C6    C8    A    
O27   C77   S    
C29   O11   S    
C59   H45   S    
C56   H37   S    
C48   H17   S    
C30   O12   S    
C22   C25   S    
C31   C37   A    
C41   H1    S    
C32   C34   A    
C76   H85   S    
C80   H95   S    
C78   H91   S    
C27   N1    A    
C23   O7    A    
C52   H26   S    
C79   C80   S    
C56   H38   S    
C51   H24   S    
C45   C46   S    
C31   C33   A    
C17   C18   D    
O7    Zn2   S    
C40   O16   S    
C66   H62   S    
C2    C15   S    
C9    C11   A    
C71   C72   S    
C37   O13   S    
C10   C12   A    
C14   N1    S    
C4    C6    A    
C38   O14   S    
C52   H27   S    
C4    O18   S    
C79   H93   S    
C47   H15   S    
C50   C51   S    
C47   H16   S    
C75   C76   S    
C69   H68   S    
C54   H33   S    
C65   H59   S    
C22   O27   S    
C8    C10   A    
C60   H46   S    
C3    C5    A    
C68   H67   S    
C57   H39   S    
C11   O23   S    
C44   H9    S    
C48   C49   S    
C3    O17   S    
C76   H84   S    
C7    C9    A    
C59   H44   S    
C73   H78   S    
C29   N1    A    
C65   H58   S    
C36   C39   A    
C12   C14   A    
C77   H87   S    
C60   H47   S    
C44   C45   S    
C61   H49   S    
O19   C57   S    
C57   C58   S    
C61   H48   S    
C47   C48   S    
C62   H50   S    
C27   C35   A    
C49   H20   S    
C76   H86   S    
C44   H8    S    
C29   C31   A    
C4    C14   A    
C68   H65   S    
O22   C65   S    
O3    Zn2   S    
C30   C32   A    
C11   C13   A    
C17   O26   S    
C1    O1    A    
C74   H80   S    
C67   H63   S    
C46   H14   S    
C59   H43   S    
C7    C23   S    
C28   N2    A    
O16   C50   S    
C8    C24   S    
C33   C34   A    
O20   C60   S    
C34   C36   A    
C55   C56   S    
C58   C59   S    
C71   H74   S    
C74   H81   S    
O8    Zn1   S    
N3    Zn1   S    
C42   H3    S    
C18   O25   S    
C55   H34   S    
C78   H89   S    
C52   H28   S    
C79   H92   S    
C28   C36   A    
C69   C70   S    
C37   C39   A    
C72   H75   S    
O17   C53   S    
C78   H90   S    
C63   H53   S    
C30   N2    A    
C27   O9    S    
C70   H72   S    
O28   C79   S    
C66   H60   S    
O21   C63   S    
C53   C54   S    
C63   H54   S    
C73   H77   S    
