data_mof_unit_35556.cif
_audit_creation_date              2012-10-26T19:25:54-0400
_audit_creation_method            fapswitch 2.2
_symmetry_space_group_name_H-M    P1
_symmetry_Int_Tables_number       1
_space_group_crystal_system       triclinic
_cell_length_a                    15.111252
_cell_length_b                    13.726659
_cell_length_c                    11.704424
_cell_angle_alpha                 90.404284
_cell_angle_beta                  87.863824
_cell_angle_gamma                 89.416368
_cell_volume                      2425.93337091

loop_
_atom_site_label
_atom_site_type_symbol
_atom_type_description
_atom_site_fract_x
_atom_site_fract_y
_atom_site_fract_z
_atom_type_partial_charge
C1    C     C_R   0.328874 0.500243 0.495512 0.558468
C2    C     C_R   0.562695 0.205146 0.434110 0.108339
C3    C     C_R   0.560856 0.793760 0.433708 0.109137
C4    C     C_R   0.449248 0.206902 0.579965 0.106651
C5    C     C_R   0.577638 0.894749 0.454203 -0.029316
C6    C     C_R   0.464364 0.105557 0.601726 -0.032486
C7    C     C_R   0.461376 0.897444 0.603827 -0.025931
C8    C     C_R   0.578387 0.101996 0.450077 -0.025936
C9    C     C_R   0.518929 0.947967 0.527255 0.002337
C10   C     C_R   0.519950 0.051829 0.525546 0.002522
C11   C     C_R   0.655916 0.943126 0.414593 0.015641
C12   C     C_R   0.671127 0.499855 0.500901 0.553408
C13   C     C_R   0.432875 0.057265 0.702485 0.015626
C14   C     C_R   0.424951 0.952683 0.701147 0.024958
C15   C     C_R   0.654746 0.047802 0.405703 0.017511
C16   C     C_R   0.500049 0.499734 0.283867 0.566344
C17   C     C_R   0.499772 0.500275 0.716134 0.565299
C18   C     C_1   0.499940 0.499355 0.162263 0.024230
C19   C     C_1   0.499735 0.500718 0.837732 0.002751
C20   C     C_1   0.499850 0.499722 0.059846 -0.013633
C21   C     C_1   0.499760 0.500422 0.940150 -0.023809
C22   C     C_R   0.815067 0.435468 0.430335 -0.146428
C23   C     C_R   0.907710 0.436231 0.423392 0.001335
C24   C     C_R   0.184023 0.571314 0.550144 -0.134933
C25   C     C_R   0.767665 0.500860 0.501620 -0.018253
C26   C     C_R   0.232269 0.500771 0.487767 -0.012739
C27   C     C_R   0.812147 0.569611 0.567954 -0.027166
C28   C     C_R   0.188261 0.432789 0.419677 -0.020929
C29   C     C_R   0.905327 0.571795 0.562098 -0.008171
C30   C     C_R   0.094771 0.434999 0.418429 -0.005705
C31   C     C_R   0.953151 0.503910 0.491054 0.039604
C32   C     C_R   0.046574 0.503981 0.487535 0.039079
C33   C     C_1   0.762045 0.635641 0.644177 0.200151
C34   C     C_R   0.091754 0.573177 0.553104 0.000794
C35   C     C_1   0.239221 0.363554 0.348884 0.209856
C36   C     C_1   0.086741 0.715583 0.688306 0.194118
C37   C     C_1   0.913350 0.307161 0.271109 0.181304
C38   C     C_1   0.387231 0.738407 0.649877 0.255684
C39   C     C_1   0.605015 0.255705 0.339880 0.248503
C40   C     C_1   0.600461 0.746415 0.333464 0.243932
C41   C     C_1   0.371932 0.254957 0.631300 0.254883
C42   C     C_3   0.743412 0.884532 0.406137 -0.265260
C43   C     C_3   0.805158 0.908229 0.503458 -0.421701
C44   C     C_3   0.422701 0.116616 0.814614 -0.266191
C45   C     C_R   0.951726 0.640691 0.625417 -0.132410
C46   C     C_3   0.488765 0.086789 0.904727 -0.425967
C47   C     C_3   0.383265 0.903236 0.806538 -0.262288
C48   C     C_3   0.450184 0.841338 0.871272 -0.407658
C49   C     C_3   0.739125 0.100079 0.365535 -0.261172
C50   C     C_3   0.777827 0.160583 0.462173 -0.420796
C51   C     C_R   0.048340 0.370470 0.349162 -0.125353
C52   C     C_R   0.043711 0.642283 0.620993 -0.011562
C53   C     C_R   0.956103 0.371669 0.349698 -0.014700
C54   C     C_R   0.450893 0.793681 0.584043 0.107850
Cu1   Cu    Cu3+1 0.500000 0.597420 0.500000 1.002909
Cu2   Cu    Cu3+1 0.500000 0.402580 0.500000 1.002810
H1    H     H_    0.778775 0.385019 0.378713 0.152190
H2    H     H_    0.458674 0.034860 0.966401 0.149110
H3    H     H_    0.550361 0.055414 0.864046 0.166557
H4    H     H_    0.507422 0.151476 0.955855 0.155091
H5    H     H_    0.437728 0.194298 0.801378 0.155021
H6    H     H_    0.353506 0.114753 0.849809 0.152845
H7    H     H_    0.480980 0.782477 0.817949 0.175038
H8    H     H_    0.505070 0.886371 0.901414 0.151399
H9    H     H_    0.416220 0.807653 0.946675 0.155471
H10   H     H_    0.352977 0.955627 0.868607 0.147244
H11   H     H_    0.324358 0.861573 0.783867 0.175269
H12   H     H_    0.219016 0.623742 0.599170 0.171658
H13   H     H_    0.739738 0.228928 0.478134 0.160432
H14   H     H_    0.777287 0.118846 0.543036 0.155813
H15   H     H_    0.847320 0.179846 0.439410 0.155247
H16   H     H_    0.791555 0.049718 0.332901 0.152063
H17   H     H_    0.728514 0.144159 0.288937 0.178234
H18   H     H_    0.916716 0.694292 0.678960 0.132832
H19   H     H_    0.083565 0.318895 0.293116 0.137822
H20   H     H_    0.846852 0.972082 0.483741 0.151357
H21   H     H_    0.766577 0.920975 0.584943 0.173472
H22   H     H_    0.851311 0.845974 0.516065 0.147433
H23   H     H_    0.733175 0.805612 0.415851 0.160409
H24   H     H_    0.777295 0.892816 0.321069 0.146637
N1    N     N_R   0.500000 0.743810 0.500000 -0.264390
N2    N     N_1   0.309645 0.292166 0.673342 -0.296905
N3    N     N_R   0.500000 0.256190 0.500000 -0.261963
N4    N     N_1   0.722079 0.688252 0.704697 -0.296702
N5    N     N_1   0.279945 0.308429 0.292484 -0.285060
N6    N     N_1   0.121104 0.774218 0.742123 -0.289293
N7    N     N_1   0.879365 0.255744 0.207803 -0.296625
N8    N     N_1   0.337562 0.693540 0.705145 -0.319406
N9    N     N_1   0.638638 0.296257 0.263683 -0.308581
N10   N     N_1   0.632871 0.709652 0.252743 -0.303936
O1    O     O_R   0.370260 0.582280 0.500020 -0.504017
O2    O     O_R   0.629740 0.417720 0.499980 -0.513519
O3    O     O_R   0.629740 0.582280 0.499980 -0.490767
O4    O     O_R   0.370260 0.417720 0.500020 -0.478442
O5    O     O_R   0.500010 0.582270 0.337200 -0.493239
O6    O     O_R   0.499990 0.417730 0.662800 -0.504505
O7    O     O_R   0.499990 0.582270 0.662800 -0.486764
O8    O     O_R   0.500010 0.417730 0.337200 -0.480068

loop_
_geom_bond_atom_site_label_1
_geom_bond_atom_site_label_2
_ccdc_geom_bond_type
Cu1   Cu2   S    
C42   H24   S    
C46   H3    S    
C27   C29   A    
Cu2   O8    S    
C30   C51   A    
C22   H1    S    
C27   C33   S    
C43   H22   S    
Cu2   O4    S    
C19   C21   T    
C50   H13   S    
C24   C26   A    
C5    C11   A    
C48   H8    S    
C4    C41   S    
C11   C42   S    
C7    C9    A    
Cu1   O1    S    
C11   C15   A    
C2    C39   S    
C7    C14   A    
C47   C48   S    
C28   C35   S    
C44   C46   S    
C1    O4    A    
C49   H16   S    
C3    N1    A    
C48   H9    S    
Cu1   N1    S    
C9    C10   A    
C47   H10   S    
C36   C52   S    
Cu1   O3    S    
C37   C53   S    
C42   H23   S    
C1    O1    A    
C13   C14   A    
C46   H2    S    
C2    N3    A    
C47   H11   S    
C12   O2    A    
C23   C53   A    
C4    C6    A    
C48   H7    S    
C45   C52   A    
C44   H6    S    
C22   C25   A    
C24   C34   A    
C29   C45   A    
C45   H18   S    
C51   C53   A    
C32   C34   A    
C50   H15   S    
C5    C9    A    
C31   C32   A    
C38   C54   S    
Cu1   O7    S    
C17   O6    A    
C13   C44   S    
Cu1   O5    S    
C3    C40   S    
C8    C15   A    
C1    C26   S    
C49   H17   S    
C12   O3    A    
C25   C27   A    
C42   C43   S    
Cu2   N3    S    
C43   H20   S    
Cu2   O6    S    
C16   O5    A    
C46   H4    S    
C26   C28   A    
C37   N7    T    
C16   C18   S    
C2    C8    A    
C51   H19   S    
C3    C5    A    
C6    C10   A    
C14   C47   S    
C44   H5    S    
C43   H21   S    
C34   C52   A    
C12   C25   S    
C36   N6    T    
C28   C30   A    
C50   H14   S    
C29   C31   A    
C6    C13   A    
C30   C32   A    
C35   N5    T    
C16   O8    A    
C4    N3    A    
C41   N2    T    
C17   C19   S    
C18   C20   T    
C15   C49   S    
C33   N4    T    
C24   H12   S    
Cu2   O2    S    
C20   C21   S    
C8    C10   A    
C49   C50   S    
C38   N8    T    
C22   C23   A    
C7    C54   A    
C40   N10   T    
C17   O7    A    
C39   N9    T    
C54   N1    A    
C23   C31   A    
