data_mof_unit_34747.cif
_audit_creation_date              2012-12-10T17:55:49-0500
_audit_creation_method            fapswitch 2.2
_symmetry_space_group_name_H-M    P1
_symmetry_Int_Tables_number       1
_space_group_crystal_system       triclinic
_cell_length_a                    18.31421
_cell_length_b                    18.296096
_cell_length_c                    26.097353
_cell_angle_alpha                 89.996787
_cell_angle_beta                  90.112886
_cell_angle_gamma                 89.784302
_cell_volume                      8744.584097

loop_
_atom_site_label
_atom_site_type_symbol
_atom_type_description
_atom_site_fract_x
_atom_site_fract_y
_atom_site_fract_z
_atom_type_partial_charge
C1    C     C_R   0.139765 0.859568 0.249796 1.053144
C2    C     C_R   0.196857 0.751838 0.206136 0.278094
C3    C     C_R   0.795831 0.760515 0.797769 0.275433
C4    C     C_R   0.729323 0.827681 0.259630 0.275160
C5    C     C_R   0.755793 0.307874 0.285655 0.304624
C6    C     C_R   0.684843 0.240189 0.715016 0.236763
C7    C     C_R   0.287664 0.269483 0.297742 0.283936
C8    C     C_R   0.251321 0.300386 0.708948 0.301445
C9    C     C_R   0.794529 0.242948 0.292890 0.243942
C10   C     C_R   0.741503 0.186503 0.712990 0.278953
C11   C     C_R   0.225880 0.223739 0.299928 0.236243
C12   C     C_R   0.140888 0.860635 0.749232 1.031715
C13   C     C_R   0.211710 0.235661 0.704683 0.240312
C14   C     C_R   0.317199 0.761329 0.716811 0.276121
C15   C     C_R   0.253252 0.697813 0.205274 0.241433
C16   C     C_R   0.737185 0.709445 0.799817 0.249163
C17   C     C_R   0.672767 0.775923 0.252480 0.242759
C18   C     C_R   0.802866 0.195395 0.251017 -0.260315
C19   C     C_R   0.801533 0.193645 0.746913 -0.230012
C20   C     C_R   0.197848 0.195323 0.253133 -0.232917
C21   C     C_R   0.196966 0.195302 0.749167 -0.271296
C22   C     C_R   0.306399 0.698163 0.747122 -0.247153
C23   C     C_R   0.860413 0.859243 0.249806 0.985029
C24   C     C_R   0.301606 0.693825 0.247595 -0.216555
C25   C     C_R   0.699077 0.693511 0.753679 -0.235639
C26   C     C_R   0.692156 0.700457 0.252259 -0.236263
C27   C     C_R   0.951651 0.047199 0.027509 0.075238
C28   C     C_R   0.953544 0.051281 0.973400 0.075232
C29   C     C_R   0.050776 0.957863 0.026283 0.061116
C30   C     C_R   0.049639 0.957703 0.972841 0.090273
C31   C     C_R   0.461719 0.555167 0.527694 0.077554
C32   C     C_R   0.462850 0.557607 0.473547 0.068749
C33   C     C_R   0.537842 0.445617 0.526742 0.068261
C34   C     C_R   0.860031 0.859721 0.749961 1.043775
C35   C     C_R   0.537672 0.446249 0.473045 0.113838
C36   C     C_R   0.000927 0.003840 0.945699 -0.125205
C37   C     C_R   0.000551 0.001130 0.054126 -0.119894
C38   C     C_R   0.500247 0.501969 0.445857 -0.112084
C39   C     C_R   0.499805 0.500002 0.554302 -0.114254
C40   C     C_R   0.858805 0.138996 0.251110 0.881555
C41   C     C_R   0.859502 0.139589 0.749419 0.920579
C42   C     C_R   0.140975 0.139474 0.251290 0.902557
C43   C     C_R   0.140898 0.139272 0.749251 0.934097
C44   C     C_R   0.360078 0.640092 0.749878 0.937254
C45   C     C_R   0.639468 0.359362 0.749496 1.018971
C46   C     C_R   0.359939 0.640020 0.249866 0.939987
C47   C     C_R   0.641019 0.639204 0.751191 0.947913
C48   C     C_R   0.638401 0.641836 0.251162 0.910571
C49   C     C_R   0.000075 0.999776 0.110863 0.823680
C50   C     C_R   0.000140 0.001290 0.889063 0.767634
C51   C     C_R   0.499940 0.499669 0.610937 0.852815
C52   C     C_R   0.500072 0.500677 0.389114 0.770599
C53   C     C_R   0.000813 0.999616 0.388563 0.954361
C54   C     C_R   0.999670 0.000083 0.611745 0.999342
C55   C     C_R   0.498848 0.500194 0.888617 0.990882
C56   C     C_R   0.642956 0.362619 0.247661 0.911059
C57   C     C_R   0.500878 0.500234 0.111327 0.981065
C58   C     C_2   0.041737 0.031180 0.527146 0.337113
C59   C     C_2   0.019572 0.050036 0.475783 0.337796
C60   C     C_2   0.507767 0.559323 0.026546 0.377838
C61   C     C_2   0.484584 0.557830 0.973040 0.381889
C62   C     C_2   0.990897 0.001979 0.557302 -0.404642
C63   C     C_2   0.018019 0.994854 0.442466 -0.383170
C64   C     C_2   0.492231 0.501044 0.056119 -0.424887
C65   C     C_2   0.506223 0.501134 0.943830 -0.428113
C66   C     C_R   0.762581 0.206221 0.206183 -0.249546
C67   C     C_R   0.357583 0.361864 0.751451 0.922305
C68   C     C_R   0.807988 0.253346 0.779577 -0.278322
C69   C     C_R   0.223911 0.220689 0.206242 -0.258174
C70   C     C_R   0.232049 0.211888 0.795161 -0.278157
C71   C     C_R   0.242891 0.688039 0.775198 -0.245252
C72   C     C_R   0.295318 0.740778 0.289222 -0.239764
C73   C     C_R   0.715503 0.729321 0.708167 -0.243860
C74   C     C_R   0.764963 0.678702 0.253383 -0.257830
C75   C     C_R   0.188449 0.740602 0.775334 0.409322
C76   C     C_R   0.242917 0.795390 0.289745 0.401228
C77   C     C_R   0.766675 0.784705 0.706992 0.402340
C78   C     C_R   0.359715 0.360224 0.249353 1.018916
C79   C     C_R   0.820440 0.729553 0.251156 0.400687
C80   C     C_R   0.711813 0.262438 0.202740 0.421216
C81   C     C_R   0.755345 0.307822 0.780146 0.415290
C82   C     C_R   0.274212 0.277062 0.204286 0.408231
C83   C     C_R   0.283588 0.267304 0.797483 0.429358
C84   C     C_R   0.198725 0.805933 0.747741 -0.340422
C85   C     C_R   0.193912 0.801397 0.248261 -0.331232
C86   C     C_R   0.806664 0.800943 0.751791 -0.333432
C87   C     C_R   0.802675 0.804757 0.253099 -0.320808
C88   C     C_R   0.704776 0.311597 0.244505 -0.325564
C89   C     C_R   0.263348 0.817809 0.718573 0.229132
C90   C     C_R   0.693797 0.301391 0.748094 -0.331133
C91   C     C_R   0.306283 0.301709 0.250377 -0.326368
C92   C     C_R   0.296450 0.310181 0.753101 -0.331694
H1    H     H_    0.935892 0.992972 0.542839 0.157776
H2    H     H_    0.333047 0.735444 0.321063 0.214158
H3    H     H_    0.685554 0.715703 0.673622 0.223853
H4    H     H_    0.778372 0.621000 0.253034 0.230537
H5    H     H_    0.233028 0.991227 0.503981 0.413474
H6    H     H_    0.954659 0.229956 0.514270 0.409244
H7    H     H_    0.621566 0.721041 0.009777 0.395030
H8    H     H_    0.352848 0.706574 0.987922 0.396197
H9    H     H_    0.067636 0.638440 0.861001 0.417477
H10   H     H_    0.307370 0.877869 0.409494 0.411203
H11   H     H_    0.720511 0.843655 0.576724 0.407888
H12   H     H_    0.035440 0.940912 0.455560 0.186733
H13   H     H_    0.963283 0.592884 0.227958 0.414088
H14   H     H_    0.680591 0.235804 0.065364 0.400591
H15   H     H_    0.847622 0.418997 0.877367 0.413628
H16   H     H_    0.248904 0.311657 0.067244 0.400470
H17   H     H_    0.300082 0.259788 0.937261 0.399319
H18   H     H_    0.249062 0.994088 0.730086 0.363569
H19   H     H_    0.025679 0.808643 0.140491 0.379684
H20   H     H_    0.955670 0.832402 0.867946 0.376158
H21   H     H_    0.793929 0.997167 0.304128 0.358977
H22   H     H_    0.795614 0.502392 0.303693 0.391160
H23   H     H_    0.465843 0.453536 0.039336 0.163422
H24   H     H_    0.508666 0.256368 0.721231 0.372153
H25   H     H_    0.465731 0.288543 0.361312 0.372191
H26   H     H_    0.221496 0.489498 0.667808 0.390400
H27   H     H_    0.758134 0.116050 0.356461 0.363066
H28   H     H_    0.842287 0.102676 0.632303 0.368318
H29   H     H_    0.102876 0.300818 0.342212 0.357803
H30   H     H_    0.266035 0.101915 0.654537 0.375970
H31   H     H_    0.470562 0.796107 0.739961 0.351807
H32   H     H_    0.333175 0.713217 0.109893 0.379561
H33   H     H_    0.631176 0.753367 0.877229 0.362935
H34   H     H_    0.536773 0.456137 0.960820 0.158872
H35   H     H_    0.591901 0.793077 0.158472 0.362638
H36   H     H_    0.914691 0.146923 0.050318 0.197346
H37   H     H_    0.848715 0.082745 0.042333 0.242299
H38   H     H_    0.920775 0.156123 0.963312 0.190189
H39   H     H_    0.920506 0.110474 0.909517 0.196524
H40   H     H_    0.139196 0.941977 0.072282 0.240079
H41   H     H_    0.073536 0.876083 0.075710 0.234386
H42   H     H_    0.066940 0.875801 0.921745 0.229089
H43   H     H_    0.136872 0.937135 0.926743 0.234750
H44   H     H_    0.446163 0.660974 0.548568 0.231150
H45   H     H_    0.770646 0.170270 0.173705 0.242128
H46   H     H_    0.368643 0.610746 0.544021 0.244371
H47   H     H_    0.454985 0.665735 0.458580 0.203461
H48   H     H_    0.430685 0.615634 0.408616 0.201824
H49   H     H_    0.617566 0.409019 0.574477 0.233644
H50   H     H_    0.538144 0.361307 0.577127 0.239905
H51   H     H_    0.538156 0.362971 0.421669 0.186970
H52   H     H_    0.617712 0.410302 0.425679 0.255306
H53   H     H_    0.855098 0.257350 0.804598 0.205457
H54   H     H_    0.201273 0.199298 0.170924 0.222961
H55   H     H_    0.219393 0.180874 0.829338 0.234145
H56   H     H_    0.236035 0.638217 0.797105 0.224793
N1    N     N_3   0.901575 0.091999 0.056014 -0.413179
N2    N     N_3   0.907842 0.104899 0.948179 -0.410656
N3    N     N_3   0.102170 0.910586 0.051316 -0.353987
N4    N     N_3   0.097608 0.907680 0.946978 -0.365225
N5    N     N_3   0.423032 0.610021 0.556263 -0.379185
N6    N     N_3   0.427033 0.618191 0.448372 -0.411299
N7    N     N_3   0.575066 0.387150 0.552639 -0.343001
N8    N     N_3   0.574789 0.388138 0.446768 -0.358740
O1    O     O_3   0.000000 1.000000 0.250030 -0.558162
O2    O     O_R   0.585480 0.353820 0.219950 -0.577365
O3    O     O_3   0.783713 0.948195 0.318517 -0.561946
O4    O     O_2   0.734862 0.400325 0.364848 -0.258429
O5    O     O_2   0.861586 0.377578 0.339652 -0.199026
O6    O     O_3   0.783521 0.460474 0.281249 -0.518459
O7    O     O_2   0.624020 0.254902 0.622074 -0.216885
O8    O     O_2   0.578024 0.154858 0.674724 -0.176932
O9    O     O_3   0.534352 0.285384 0.694813 -0.599298
O10   O     O_2   0.327726 0.340780 0.383499 -0.226990
O11   O     O_2   0.347732 0.207799 0.382104 -0.181186
O12   O     O_3   0.435261 0.288915 0.329936 -0.593182
O13   O     O_R   0.414520 0.353820 0.780050 -0.593708
O14   O     O_2   0.295274 0.378362 0.626899 -0.234507
O15   O     O_2   0.163800 0.356849 0.634051 -0.184156
O16   O     O_3   0.220716 0.451554 0.694879 -0.513845
O17   O     O_2   0.899355 0.235402 0.364836 -0.120348
O18   O     O_2   0.774359 0.253152 0.395461 -0.204209
O19   O     O_3   0.810900 0.124930 0.361921 -0.519373
O20   O     O_2   0.689630 0.052353 0.693912 -0.167929
O21   O     O_2   0.705787 0.130866 0.619153 -0.169964
O22   O     O_3   0.819647 0.071585 0.658942 -0.551655
O23   O     O_2   0.169160 0.131332 0.369649 -0.215429
O24   O     O_R   0.414520 0.353820 0.219950 -0.573560
O25   O     O_2   0.211251 0.247917 0.404145 -0.141092
O26   O     O_3   0.093637 0.248908 0.350713 -0.444392
O27   O     O_2   0.118811 0.208270 0.626935 -0.148862
O28   O     O_2   0.246879 0.227710 0.603872 -0.173023
O29   O     O_3   0.212912 0.106022 0.647866 -0.468078
O30   O     O_2   0.433428 0.695618 0.668043 -0.356183
O31   O     O_2   0.379801 0.801169 0.626504 -0.153327
O32   O     O_3   0.458447 0.822296 0.707806 -0.447773
O33   O     O_2   0.282876 0.560395 0.173679 -0.269292
O34   O     O_2   0.208119 0.629803 0.114440 -0.139123
O35   O     O_R   0.914530 0.146170 0.280090 -0.575635
O36   O     O_3   0.344380 0.662926 0.121645 -0.461160
O37   O     O_2   0.699648 0.585770 0.849246 -0.238576
O38   O     O_2   0.754465 0.677680 0.904148 -0.154455
O39   O     O_3   0.623650 0.700189 0.872609 -0.461467
O40   O     O_2   0.531339 0.769246 0.280056 -0.277522
O41   O     O_2   0.567880 0.884684 0.241083 -0.156657
O42   O     O_3   0.554378 0.773954 0.182190 -0.453224
O43   O     O_R   0.914530 0.146170 0.719910 -0.630866
O44   O     O_R   0.085470 0.146170 0.280090 -0.571867
O45   O     O_R   0.085470 0.146170 0.719910 -0.583954
O46   O     O_R   0.414530 0.646170 0.780090 -0.623575
O47   O     O_R   0.414530 0.646170 0.219910 -0.557335
O48   O     O_R   0.585470 0.646170 0.780090 -0.588469
O49   O     O_3   0.000000 1.000000 0.749970 -0.542817
O50   O     O_R   0.585470 0.646170 0.219910 -0.561855
O51   O     O_R   0.146180 0.085440 0.219990 -0.641680
O52   O     O_R   0.146180 0.085440 0.780010 -0.659833
O53   O     O_R   0.853820 0.085440 0.219990 -0.647567
O54   O     O_R   0.853820 0.085440 0.780010 -0.621979
O55   O     O_R   0.646180 0.585440 0.719990 -0.625193
O56   O     O_R   0.646180 0.585440 0.280010 -0.644471
O57   O     O_R   0.353820 0.585440 0.719990 -0.611517
O58   O     O_R   0.353820 0.585440 0.280010 -0.639729
O59   O     O_R   0.853820 0.914550 0.219980 -0.626683
O60   O     O_3   0.500000 0.500000 0.750030 -0.557699
O61   O     O_R   0.853820 0.914550 0.780020 -0.599937
O62   O     O_R   0.146180 0.914550 0.219980 -0.602246
O63   O     O_R   0.146180 0.914550 0.780020 -0.625597
O64   O     O_R   0.353820 0.414550 0.719980 -0.578709
O65   O     O_R   0.353820 0.414550 0.280020 -0.603364
O66   O     O_R   0.646180 0.414550 0.719980 -0.607011
O67   O     O_R   0.646180 0.414550 0.280020 -0.583059
O68   O     O_R   0.060720 0.999990 0.135450 -0.649946
O69   O     O_R   0.060720 0.999990 0.864550 -0.654366
O70   O     O_R   0.939280 0.999990 0.135450 -0.607973
O71   O     O_3   0.500000 0.500000 0.249970 -0.569342
O72   O     O_R   0.939280 0.999990 0.864550 -0.616417
O73   O     O_R   0.560720 0.499990 0.635450 -0.654174
O74   O     O_R   0.560720 0.499990 0.364550 -0.639249
O75   O     O_R   0.439280 0.499990 0.635450 -0.581875
O76   O     O_R   0.439280 0.499990 0.364550 -0.605330
O77   O     O_R   0.000000 0.939270 0.364600 -0.625915
O78   O     O_R   0.000000 0.939270 0.635400 -0.599845
O79   O     O_R   0.500000 0.439270 0.864600 -0.607269
O80   O     O_R   0.500000 0.439270 0.135400 -0.596870
O81   O     O_R   1.000000 0.060730 0.364620 -0.542259
O82   O     O_R   0.085480 0.853820 0.280050 -0.576052
O83   O     O_R   1.000000 0.060730 0.635380 -0.592576
O84   O     O_R   0.500000 0.560730 0.864620 -0.556326
O85   O     O_R   0.500000 0.560730 0.135380 -0.556522
O86   O     O_2   0.161815 0.110221 0.540965 -0.131007
O87   O     O_2   0.151896 0.997554 0.592261 -0.215630
O88   O     O_3   0.180620 0.986135 0.495285 -0.514372
O89   O     O_2   0.021962 0.178913 0.427299 -0.126285
O90   O     O_2   0.902265 0.127001 0.448607 -0.208383
O91   O     O_3   0.979776 0.183204 0.522046 -0.502751
O92   O     O_2   0.511574 0.688118 0.075758 -0.197164
O93   O     O_R   0.085480 0.853820 0.719950 -0.590132
O94   O     O_2   0.621370 0.611035 0.081267 -0.292963
O95   O     O_3   0.594976 0.678488 0.995669 -0.461073
O96   O     O_2   0.467788 0.685539 0.923525 -0.200881
O97   O     O_2   0.367590 0.597347 0.916583 -0.293505
O98   O     O_3   0.383806 0.667184 0.002471 -0.475191
O99   O     O_2   0.097520 0.783703 0.849370 -0.331863
O100  O     O_2   0.043697 0.721195 0.775417 -0.232674
O101  O     O_3   0.114436 0.643105 0.842337 -0.502570
O102  O     O_2   0.239496 0.933738 0.324132 -0.289388
O103  O     O_2   0.172731 0.841880 0.373550 -0.256711
O104  O     O_R   0.914520 0.853820 0.280050 -0.572949
O105  O     O_3   0.314183 0.843427 0.380593 -0.510445
O106  O     O_2   0.781148 0.913633 0.658733 -0.244377
O107  O     O_2   0.849077 0.809030 0.624251 -0.259430
O108  O     O_3   0.709275 0.815230 0.608019 -0.509857
O109  O     O_2   0.948910 0.736638 0.203351 -0.286180
O110  O     O_2   0.951067 0.707473 0.295027 -0.233087
O111  O     O_3   0.911048 0.606259 0.231320 -0.514668
O112  O     O_2   0.589698 0.243177 0.147685 -0.217024
O113  O     O_2   0.661899 0.352885 0.129089 -0.283175
O114  O     O_3   0.710158 0.227743 0.096697 -0.550399
O115  O     O_R   0.914520 0.853820 0.719950 -0.578907
O116  O     O_2   0.772738 0.452269 0.789979 -0.254205
O117  O     O_2   0.703780 0.389769 0.857226 -0.279882
O118  O     O_3   0.844839 0.374146 0.856203 -0.532848
O119  O     O_2   0.297868 0.396742 0.146805 -0.269114
O120  O     O_2   0.368504 0.286407 0.126452 -0.235150
O121  O     O_3   0.231821 0.290549 0.100037 -0.538843
O122  O     O_2   0.399445 0.253746 0.859610 -0.247670
O123  O     O_2   0.327367 0.366700 0.867026 -0.284859
O124  O     O_3   0.273909 0.247456 0.905169 -0.542752
O125  O     O_2   0.352104 0.926590 0.685017 -0.188508
O126  O     O_R   0.585480 0.353820 0.780050 -0.610685
O127  O     O_2   0.255377 0.885101 0.627571 -0.164374
O128  O     O_3   0.220936 0.969715 0.702533 -0.546644
O129  O     O_2   0.165256 0.768455 0.106267 -0.259763
O130  O     O_2   0.089910 0.682862 0.155594 -0.185021
O131  O     O_3   0.064910 0.820406 0.165278 -0.593003
O132  O     O_2   0.821990 0.807302 0.893594 -0.260107
O133  O     O_2   0.884092 0.694453 0.866414 -0.182312
O134  O     O_3   0.934988 0.816473 0.834701 -0.543629
O135  O     O_2   0.693568 0.968315 0.242497 -0.251348
O136  O     O_2   0.648036 0.913549 0.322118 -0.165525
S1    S     S_3+6 0.136046 0.032442 0.541345 0.143813
S2    S     S_3+6 0.767855 0.383748 0.821546 0.069021
S3    S     S_3+6 0.295320 0.314774 0.143432 0.069829
S4    S     S_3+6 0.323683 0.285583 0.858173 0.068546
S5    S     S_3+6 0.274419 0.900642 0.682506 0.118224
S6    S     S_3+6 0.128651 0.755151 0.156894 0.092422
S7    S     S_3+6 0.859392 0.769236 0.849782 0.112334
S8    S     S_3+6 0.711259 0.916476 0.285545 0.109115
S9    S     S_3+6 0.784881 0.387144 0.320187 0.124250
S10   S     S_3+6 0.604524 0.232502 0.675683 0.094050
S11   S     S_3+6 0.349233 0.276701 0.350714 0.106496
S12   S     S_3+6 0.979573 0.136782 0.466412 0.144269
S13   S     S_3+6 0.232551 0.371827 0.663706 0.132256
S14   S     S_3+6 0.820781 0.215867 0.355791 0.154858
S15   S     S_3+6 0.737472 0.109607 0.670185 0.138241
S16   S     S_3+6 0.176954 0.211547 0.358559 0.160779
S17   S     S_3+6 0.196565 0.196073 0.643481 0.160719
S18   S     S_3+6 0.397761 0.768396 0.677777 0.105100
S19   S     S_3+6 0.268925 0.635704 0.152745 0.129450
S20   S     S_3+6 0.706658 0.666615 0.858119 0.133903
S21   S     S_3+6 0.579985 0.803533 0.240530 0.124729
S22   S     S_3+6 0.559915 0.635753 0.047047 0.122078
S23   S     S_3+6 0.424857 0.628387 0.951656 0.123301
S24   S     S_3+6 0.108154 0.723329 0.811116 0.075437
S25   S     S_3+6 0.240603 0.856039 0.342881 0.073254
S26   S     S_3+6 0.778558 0.832860 0.648540 0.078724
S27   S     S_3+6 0.910953 0.696002 0.245393 0.080229
S28   S     S_3+6 0.665684 0.273282 0.143230 0.081066
Zn1   Zn    Zn3+2 0.000000 0.086760 0.292960 1.151541
Zn2   Zn    Zn3+2 0.586770 0.499990 0.292890 1.041864
Zn3   Zn    Zn3+2 0.413230 0.499990 0.707110 1.102201
Zn4   Zn    Zn3+2 0.413230 0.499990 0.292890 1.078216
Zn5   Zn    Zn3+2 0.000000 0.913240 0.292940 1.150533
Zn6   Zn    Zn3+2 0.000000 0.913240 0.707060 1.183095
Zn7   Zn    Zn3+2 0.500000 0.413240 0.792940 1.123960
Zn8   Zn    Zn3+2 0.500000 0.413240 0.207060 1.158230
Zn9   Zn    Zn3+2 0.000000 0.086760 0.707040 1.114636
Zn10  Zn    Zn3+2 0.500000 0.586760 0.792960 1.138171
Zn11  Zn    Zn3+2 0.500000 0.586760 0.207040 1.167058
Zn12  Zn    Zn3+2 0.086770 0.999990 0.207110 1.050476
Zn13  Zn    Zn3+2 0.086770 0.999990 0.792890 1.029006
Zn14  Zn    Zn3+2 0.913230 0.999990 0.207110 1.038142
Zn15  Zn    Zn3+2 0.913230 0.999990 0.792890 1.077662
Zn16  Zn    Zn3+2 0.586770 0.499990 0.707110 1.085925

loop_
_geom_bond_atom_site_label_1
_geom_bond_atom_site_label_2
_ccdc_geom_bond_type
C44   O46   A    
C50   O72   A    
H41   N3    S    
O84   Zn10  S    
O64   Zn3   S    
C79   C87   A    
C89   S5    S    
C4    C87   A    
C23   O59   A    
C67   O13   A    
O17   S14   D    
C45   O66   A    
C67   O64   A    
O67   Zn2   S    
O48   Zn10  S    
O14   S13   D    
O128  S5    S    
C12   C84   S    
C18   C40   S    
O34   S19   D    
C5    C88   A    
C48   O56   A    
H9    O101  S    
C43   O45   A    
C8    C92   A    
O5    S9    D    
O4    S9    D    
O102  S25   D    
C72   H2    S    
O77   Zn5   S    
C64   H23   S    
O60   Zn16  S    
H8    O98   S    
C55   C65   S    
C11   C20   A    
H7    O95   S    
O70   Zn14  S    
C60   S22   S    
H47   N6    S    
C40   O53   A    
C12   O93   A    
C17   S21   S    
O21   S15   D    
O8    S10   D    
O121  S3    S    
O122  S4    D    
C13   C21   A    
C19   C68   A    
C45   C90   S    
C3    S7    S    
C32   N6    S    
C81   C90   A    
O89   S12   D    
C46   O47   A    
O40   S21   D    
C74   C79   A    
C49   O68   A    
C68   C81   A    
O23   S16   D    
H35   O42   S    
H17   O124  S    
C36   C50   S    
C16   C25   A    
C43   O52   A    
C63   H12   S    
O71   Zn8   S    
C20   C42   S    
C59   C63   D    
C30   C36   A    
C60   C64   D    
C24   C46   S    
C80   C88   A    
H44   N5    S    
O61   Zn15  S    
O75   Zn3   S    
O1    Zn1   S    
C77   S26   S    
C67   C92   S    
C47   O48   A    
C13   S17   S    
O85   Zn11  S    
O39   S20   S    
C61   C65   D    
O11   S11   D    
C62   H1    S    
C73   C77   A    
C4    S8    S    
O60   Zn10  S    
C5    S9    S    
C76   C85   A    
H29   O26   S    
C7    S11   S    
C39   C51   S    
O131  S6    S    
C47   O55   A    
O129  S6    D    
O99   S24   D    
C34   O61   A    
H37   N1    S    
O60   Zn7   S    
O98   S23   S    
C75   C84   A    
C56   C88   S    
H18   O128  S    
H33   O39   S    
H25   O12   S    
H43   N4    S    
C69   C82   A    
O71   Zn11  S    
O100  S24   D    
C9    S14   S    
H38   N2    S    
C1    O62   A    
O1    Zn12  S    
O82   Zn5   S    
O79   Zn7   S    
O104  Zn5   S    
O68   Zn12  S    
O103  S25   D    
C51   O75   A    
O133  S7    D    
C74   H4    S    
C35   C38   A    
C53   O81   A    
C76   S25   S    
C6    C90   A    
O49   Zn9   S    
O37   S20   D    
H52   N8    S    
O31   S18   D    
C81   S2    S    
O107  S26   D    
C5    C9    A    
C29   C30   A    
O124  S4    S    
C29   N3    S    
C83   S4    S    
O127  S5    D    
C30   N4    S    
C31   C32   A    
O13   Zn7   S    
O114  S28   S    
H21   O3    S    
O135  S8    D    
O119  S3    D    
C41   O54   A    
C15   C24   A    
C23   O104  A    
O19   S14   S    
O28   S17   D    
C54   O78   A    
H16   O121  S    
C24   C72   A    
O86   S1    D    
C45   O126  A    
C50   O69   A    
C56   O67   A    
C33   N7    S    
H13   O111  S    
C66   C80   A    
C65   H34   S    
C14   C22   A    
H5    O88   S    
C53   C63   S    
C10   S15   S    
O63   Zn13  S    
C25   C73   A    
O32   S18   S    
O93   Zn6   S    
O33   S19   D    
C9    C18   A    
O51   Zn12  S    
O3    S8    S    
O46   Zn10  S    
O71   Zn4   S    
C3    C16   A    
O116  S2    D    
O53   Zn14  S    
C58   C62   D    
C8    C13   A    
O126  Zn7   S    
C51   O73   A    
O2    Zn8   S    
O110  S27   D    
C41   O43   A    
C78   O24   A    
C14   S18   S    
C54   O83   A    
C82   S3    S    
O112  S28   D    
O88   S1    S    
H22   O6    S    
O25   S16   D    
C2    C85   A    
H31   O32   S    
H28   O22   S    
C57   O85   A    
C6    S10   S    
H27   O19   S    
O9    S10   S    
O7    S10   D    
O56   Zn2   S    
O92   S22   D    
O16   S13   S    
H11   O108  S    
O81   Zn1   S    
C55   O84   A    
C25   C47   S    
C26   C48   S    
O78   Zn6   S    
O95   S22   S    
O90   S12   D    
C3    C86   A    
C69   H54   S    
O60   Zn3   S    
C44   O57   A    
O101  S24   S    
O125  S5    D    
O44   Zn1   S    
C58   S1    S    
O47   Zn11  S    
H49   N7    S    
C54   C62   S    
C58   C59   S    
C60   C61   S    
C14   C89   A    
C37   C49   S    
H26   O16   S    
C10   C19   A    
C7    C91   A    
O29   S17   S    
O76   Zn4   S    
H10   O105  S    
O105  S25   S    
C2    C15   A    
O71   Zn2   S    
C4    C17   A    
H46   N5    S    
C1    O82   A    
H24   O9    S    
O136  S8    D    
O65   Zn4   S    
C18   C66   A    
C53   O77   A    
H32   O36   S    
C57   O80   A    
C8    S13   S    
O115  Zn6   S    
O42   S21   S    
C55   O79   A    
C6    C10   A    
O97   S23   D    
O22   S15   S    
O118  S2    S    
C52   O74   A    
O10   S11   D    
C40   O35   A    
O74   Zn2   S    
O54   Zn15  S    
O132  S7    D    
O94   S22   D    
C82   C91   A    
H36   N1    S    
C61   S23   S    
O66   Zn16  S    
C28   C36   A    
C29   C37   A    
H40   N3    S    
H19   O131  S    
O57   Zn3   S    
H39   N2    S    
C70   H55   S    
O69   Zn13  S    
C68   H53   S    
C19   C41   S    
O108  S26   S    
O80   Zn8   S    
C16   S20   S    
C28   N2    S    
O55   Zn16  S    
O49   Zn13  S    
O91   S12   S    
H20   O134  S    
O18   S14   D    
C72   C76   A    
O59   Zn14  S    
C7    C11   A    
C83   C92   A    
C66   H45   S    
C33   C39   A    
C17   C26   A    
O111  S27   S    
C38   C52   S    
O123  S4    D    
O41   S21   D    
C34   C86   S    
H15   O118  S    
O38   S20   D    
C56   O2    A    
C33   C35   A    
C21   C43   S    
C22   C44   S    
O26   S16   S    
C46   O58   A    
O96   S23   D    
O35   Zn1   S    
C32   C38   A    
H50   N7    S    
C12   O63   A    
C75   S24   S    
O52   Zn13  S    
H42   N4    S    
C27   N1    S    
C23   C87   S    
C2    S6    S    
C31   N5    S    
O72   Zn15  S    
C1    C85   S    
C42   O51   A    
C35   N8    S    
O120  S3    D    
C52   O76   A    
H30   O29   S    
O20   S15   D    
O1    Zn14  S    
C70   C83   A    
O73   Zn16  S    
O12   S11   S    
O83   Zn9   S    
O27   S17   D    
C79   S27   S    
C80   S28   S    
C77   C86   A    
H14   O114  S    
O1    Zn5   S    
O49   Zn15  S    
C20   C69   A    
C84   C89   A    
C22   C71   A    
C57   C64   S    
C59   S12   S    
O43   Zn9   S    
O15   S13   D    
C11   S16   S    
O58   Zn4   S    
O109  S27   D    
O36   S19   S    
O134  S7    S    
O24   Zn8   S    
C78   C91   S    
O87   S1    D    
O49   Zn6   S    
C21   C70   A    
O30   S18   D    
O106  S26   D    
C42   O44   A    
H6    O91   S    
O6    S9    S    
C71   C75   A    
H51   N8    S    
O113  S28   D    
C27   C37   A    
C26   C74   A    
C31   C39   A    
C71   H56   S    
O62   Zn12  S    
O117  S2    D    
C34   O115  A    
C78   O65   A    
O50   Zn11  S    
C48   O50   A    
C27   C28   A    
C73   H3    S    
O130  S6    D    
C49   O70   A    
O45   Zn9   S    
H48   N6    S    
C15   S19   S    
