data_mof_unit_17535.cif
_audit_creation_date              2012-12-11T17:41:49-0500
_audit_creation_method            fapswitch 2.2
_symmetry_space_group_name_H-M    P1
_symmetry_Int_Tables_number       1
_space_group_crystal_system       triclinic
_cell_length_a                    7.253676
_cell_length_b                    23.61202
_cell_length_c                    26.363289
_cell_angle_alpha                 90.000017
_cell_angle_beta                  89.99913
_cell_angle_gamma                 89.999876
_cell_volume                      4515.34445129

loop_
_atom_site_label
_atom_site_type_symbol
_atom_type_description
_atom_site_fract_x
_atom_site_fract_y
_atom_site_fract_z
_atom_type_partial_charge
O1    O     O_R   0.607880 0.800910 0.198150 -0.545628
O2    O     O_R   0.392120 0.199090 0.801850 -0.547039
O3    O     O_R   0.392120 0.199090 0.698150 -0.545627
O4    O     O_R   0.607880 0.800910 0.301850 -0.547038
O5    O     O_R   0.107880 0.699090 0.301850 -0.545627
O6    O     O_R   0.892120 0.300910 0.698150 -0.547037
O7    O     O_R   0.892120 0.300910 0.801850 -0.545627
O8    O     O_R   0.107880 0.699090 0.198150 -0.547039
O9    O     O_R   0.278160 0.807580 0.301500 -0.519818
O10   O     O_R   0.721840 0.192420 0.698500 -0.502074
O11   O     O_R   0.721840 0.192420 0.801500 -0.519817
O12   O     O_R   0.278160 0.807580 0.198500 -0.502074
O13   O     O_R   0.778160 0.692420 0.198500 -0.519817
O14   O     O_R   0.221840 0.307580 0.801500 -0.502072
O15   O     O_R   0.221840 0.307580 0.698500 -0.519820
O16   O     O_R   0.778160 0.692420 0.301500 -0.502077
C1    C     C_R   0.446755 0.821140 0.318331 0.736371
C2    C     C_R   0.553832 0.179649 0.680737 0.727486
C3    C     C_R   0.553243 0.178859 0.818330 0.736371
C4    C     C_R   0.446169 0.820351 0.180737 0.727488
C5    C     C_R   0.946757 0.678859 0.181670 0.736371
C6    C     C_R   0.053831 0.320351 0.819263 0.727489
C7    C     C_R   0.053245 0.321142 0.681671 0.736367
C8    C     C_R   0.946167 0.679649 0.319263 0.727487
O17   O     O_3   0.441370 0.714400 0.250000 -0.371879
O18   O     O_3   0.558630 0.285600 0.750000 -0.371878
O19   O     O_3   0.941370 0.785600 0.250000 -0.371878
O20   O     O_3   0.058630 0.214400 0.750000 -0.371879
V1    V     V_3+5 0.166530 0.756600 0.250000 1.465036
V2    V     V_3+5 0.833470 0.243400 0.750000 1.465041
V3    V     V_3+5 0.666530 0.743400 0.250000 1.465034
V4    V     V_3+5 0.333470 0.256600 0.750000 1.465040
C9    C     C_R   0.156153 0.444770 0.592365 -0.283887
C10   C     C_R   0.805122 0.577700 0.425972 -0.271668
C11   C     C_R   0.843843 0.555243 0.092353 -0.283899
C12   C     C_R   0.194868 0.422304 0.925967 -0.271662
C13   C     C_R   0.656158 0.055239 0.907643 -0.283895
C14   C     C_R   0.305135 0.922306 0.074033 -0.271671
C15   C     C_R   0.343842 0.944751 0.407654 -0.283897
C16   C     C_R   0.694876 0.077692 0.574035 -0.271663
H1    H     H_    0.253662 0.479310 0.588843 0.141896
H2    H     H_    0.680084 0.560477 0.442214 0.192165
H3    H     H_    0.746326 0.520707 0.088827 0.141886
H4    H     H_    0.319906 0.439528 0.942207 0.192153
H5    H     H_    0.753672 0.020701 0.911167 0.141885
H6    H     H_    0.180099 0.939529 0.057792 0.192151
H7    H     H_    0.246328 0.979289 0.411181 0.141883
H8    H     H_    0.819914 0.060468 0.557795 0.192150
C17   C     C_R   0.175300 0.405680 0.632475 0.458284
C18   C     C_R   0.792489 0.619401 0.388057 0.494424
C19   C     C_R   0.824699 0.594329 0.132467 0.458286
C20   C     C_R   0.207502 0.380600 0.888055 0.494437
C21   C     C_R   0.675302 0.094326 0.867530 0.458289
C22   C     C_R   0.292499 0.880602 0.111945 0.494436
C23   C     C_R   0.324696 0.905668 0.367539 0.458286
C24   C     C_R   0.707508 0.119397 0.611945 0.494438
C25   C     C_R   0.042400 0.362602 0.639013 -0.180137
C26   C     C_R   0.953979 0.639133 0.363256 -0.240434
C27   C     C_R   0.957607 0.637403 0.139010 -0.180134
C28   C     C_R   0.046013 0.360868 0.863255 -0.240440
C29   C     C_R   0.542396 0.137401 0.860989 -0.180138
C30   C     C_R   0.453986 0.860870 0.136746 -0.240435
C31   C     C_R   0.457602 0.862594 0.360993 -0.180130
C32   C     C_R   0.546018 0.139130 0.636746 -0.240439
C33   C     C_R   0.895540 0.359023 0.604289 -0.377853
C34   C     C_R   0.125448 0.621929 0.383016 -0.295514
C35   C     C_R   0.104478 0.640982 0.104288 -0.377860
C36   C     C_R   0.874543 0.378076 0.883013 -0.295494
C37   C     C_R   0.395532 0.140981 0.895714 -0.377859
C38   C     C_R   0.625457 0.878080 0.116991 -0.295509
C39   C     C_R   0.604472 0.859012 0.395714 -0.377863
C40   C     C_R   0.374549 0.121921 0.616989 -0.295493
H9    H     H_    0.790649 0.327188 0.610000 0.132495
H10   H     H_    0.251672 0.638054 0.366767 0.210129
H11   H     H_    0.209377 0.672812 0.110006 0.132493
H12   H     H_    0.748319 0.361954 0.866762 0.210135
H13   H     H_    0.290636 0.172814 0.889999 0.132494
H14   H     H_    0.751681 0.861958 0.133243 0.210134
H15   H     H_    0.709371 0.827182 0.389994 0.132492
H16   H     H_    0.248323 0.138044 0.633240 0.210135
C41   C     C_R   0.880187 0.396799 0.562990 0.452207
C42   C     C_R   0.137665 0.586279 0.425581 0.489814
C43   C     C_R   0.119839 0.603207 0.062987 0.452204
C44   C     C_R   0.862321 0.413731 0.925575 0.489798
C45   C     C_R   0.380179 0.103208 0.937015 0.452210
C46   C     C_R   0.637682 0.913736 0.074430 0.489812
C47   C     C_R   0.619834 0.896784 0.437017 0.452199
C48   C     C_R   0.362329 0.086264 0.574428 0.489801
C49   C     C_R   0.010124 0.440548 0.557769 -0.021376
C50   C     C_R   0.976414 0.560306 0.444671 -0.081657
C51   C     C_R   0.989884 0.559465 0.057759 -0.021357
C52   C     C_R   0.023577 0.439702 0.944665 -0.081656
C53   C     C_R   0.510125 0.059462 0.942239 -0.021371
C54   C     C_R   0.476428 0.939704 0.055337 -0.081659
C55   C     C_R   0.489882 0.940527 0.442246 -0.021352
C56   C     C_R   0.523585 0.060293 0.555338 -0.081658
C57   C     C_1   0.994017 0.481964 0.517285 0.025587
C58   C     C_1   0.984049 0.517215 0.483949 0.007884
C59   C     C_1   0.005991 0.518051 0.017274 0.025578
C60   C     C_1   0.015953 0.482798 0.983939 0.007871
C61   C     C_1   0.494021 0.018049 0.982725 0.025582
C62   C     C_1   0.484057 0.982798 0.016061 0.007879
C63   C     C_1   0.505996 0.981942 0.482731 0.025577
C64   C     C_1   0.515961 0.017195 0.516066 0.007871
O21   O     O_3   0.311128 0.413356 0.668666 -0.550272
C65   C     C_3   0.484077 0.401444 0.646814 -0.148011
H17   H     H_    0.484272 0.359662 0.627167 0.111472
H18   H     H_    0.588389 0.399369 0.677533 0.165463
H19   H     H_    0.526763 0.435622 0.620323 0.145482
O22   O     O_3   0.621062 0.641375 0.376740 -0.529532
C66   C     C_3   0.597393 0.691070 0.405885 -0.190211
H20   H     H_    0.460715 0.709690 0.397170 0.130747
H21   H     H_    0.702689 0.723645 0.396485 0.094587
H22   H     H_    0.602987 0.681690 0.447216 0.118116
O23   O     O_3   0.688870 0.586649 0.168659 -0.550273
C67   C     C_3   0.515921 0.598561 0.146808 -0.148012
H23   H     H_    0.515729 0.640341 0.127158 0.111459
H24   H     H_    0.411612 0.600639 0.177528 0.165465
H25   H     H_    0.473231 0.564380 0.120321 0.145500
O24   O     O_3   0.378928 0.358624 0.876740 -0.529530
C68   C     C_3   0.402595 0.308932 0.905889 -0.190242
H26   H     H_    0.539277 0.290312 0.897178 0.130765
H27   H     H_    0.297300 0.276357 0.896492 0.094594
H28   H     H_    0.396993 0.318318 0.947220 0.118097
O25   O     O_3   0.811133 0.086648 0.831338 -0.550271
C69   C     C_3   0.984081 0.098560 0.853190 -0.148010
H29   H     H_    0.984272 0.140342 0.872838 0.111464
H30   H     H_    0.088394 0.100636 0.822471 0.165464
H31   H     H_    0.026768 0.064382 0.879680 0.145482
O26   O     O_3   0.121072 0.858627 0.123261 -0.529531
C70   C     C_3   0.097400 0.808935 0.094112 -0.190240
H32   H     H_    0.960722 0.790314 0.102827 0.130761
H33   H     H_    0.202700 0.776360 0.103507 0.094590
H34   H     H_    0.102987 0.818321 0.052781 0.118118
O27   O     O_3   0.188870 0.913350 0.331348 -0.550274
C71   C     C_3   0.015918 0.901442 0.353199 -0.148013
H35   H     H_    0.015718 0.859662 0.372851 0.111463
H36   H     H_    0.911611 0.899364 0.322480 0.165464
H37   H     H_    0.973230 0.935624 0.379685 0.145504
O28   O     O_3   0.878934 0.141373 0.623260 -0.529529
C72   C     C_3   0.902600 0.191066 0.594113 -0.190239
H38   H     H_    0.039274 0.209689 0.602828 0.130766
H39   H     H_    0.797294 0.223640 0.603509 0.094586
H40   H     H_    0.897016 0.181681 0.552782 0.118097
O29   O     O_3   0.727952 0.396055 0.531026 -0.576139
C73   C     C_3   0.711662 0.343627 0.505308 0.069830
H41   H     H_    0.572291 0.342503 0.487850 0.149585
H42   H     H_    0.718004 0.306428 0.531054 0.089352
C74   C     C_3   0.855411 0.338192 0.462897 -0.306789
H43   H     H_    0.847479 0.375802 0.437630 0.213118
H44   H     H_    0.995979 0.336278 0.479590 0.182192
C75   C     C_3   0.822934 0.284730 0.431662 -0.834752
H45   H     H_    0.827072 0.246763 0.456518 0.224671
H46   H     H_    0.932038 0.280766 0.402335 0.239187
H47   H     H_    0.686736 0.286768 0.412481 0.235244
O30   O     O_3   0.310294 0.578038 0.446984 -0.562464
C76   C     C_3   0.320192 0.598730 0.497694 0.089042
H48   H     H_    0.468525 0.600083 0.508059 0.138464
H49   H     H_    0.256875 0.568501 0.524664 0.122232
C77   C     C_3   0.239831 0.658750 0.505771 -0.372445
H50   H     H_    0.300250 0.688757 0.478070 0.190057
H51   H     H_    0.087985 0.658423 0.500255 0.183859
C78   C     C_3   0.278361 0.679980 0.559379 -0.817949
H52   H     H_    0.208435 0.652419 0.587592 0.236747
H53   H     H_    0.225379 0.723859 0.563601 0.232671
H54   H     H_    0.428756 0.679967 0.567077 0.231650
O31   O     O_3   0.272108 0.603940 0.031034 -0.576147
C79   C     C_3   0.288520 0.656373 0.005328 0.069818
H55   H     H_    0.427912 0.657477 0.987882 0.149595
H56   H     H_    0.282216 0.693566 0.031082 0.089337
C80   C     C_3   0.144830 0.661842 0.962908 -0.306779
H57   H     H_    0.152696 0.624232 0.937640 0.213123
H58   H     H_    0.004252 0.663788 0.979592 0.182183
C81   C     C_3   0.177471 0.715298 0.931676 -0.834745
H59   H     H_    0.173403 0.753266 0.956534 0.224641
H60   H     H_    0.068408 0.719288 0.902342 0.239182
H61   H     H_    0.313682 0.713229 0.912505 0.235244
O32   O     O_3   0.689677 0.421988 0.946967 -0.562462
C82   C     C_3   0.679721 0.401333 0.997688 0.089069
H62   H     H_    0.531376 0.399986 0.008042 0.138444
H63   H     H_    0.742996 0.431583 0.024646 0.122251
C83   C     C_3   0.760070 0.341319 0.005807 -0.372438
H64   H     H_    0.699631 0.311288 0.978130 0.190056
H65   H     H_    0.911917 0.341635 0.000288 0.183868
C84   C     C_3   0.721541 0.320142 0.059433 -0.817956
H66   H     H_    0.791566 0.347711 0.087621 0.236755
H67   H     H_    0.774421 0.276255 0.063679 0.232684
H68   H     H_    0.571152 0.320195 0.067145 0.231640
O33   O     O_3   0.227936 0.103951 0.968977 -0.576140
C85   C     C_3   0.211605 0.156383 0.994688 0.069835
H69   H     H_    0.072233 0.157500 0.012147 0.149587
H70   H     H_    0.217913 0.193577 0.968935 0.089347
C86   C     C_3   0.355351 0.161837 0.037096 -0.306794
H71   H     H_    0.347455 0.124232 0.062368 0.213119
H72   H     H_    0.495917 0.163761 0.020401 0.182188
C87   C     C_3   0.322826 0.215301 0.068325 -0.834754
H73   H     H_    0.326950 0.253265 0.043464 0.224669
H74   H     H_    0.431917 0.219276 0.097653 0.239185
H75   H     H_    0.186622 0.213258 0.087503 0.235245
O34   O     O_3   0.810326 0.921994 0.053039 -0.562458
C88   C     C_3   0.820293 0.901327 0.002321 0.089064
H76   H     H_    0.968641 0.899973 0.991971 0.138456
H77   H     H_    0.757034 0.931572 0.975357 0.122234
C89   C     C_3   0.739923 0.841314 0.994211 -0.372458
H78   H     H_    0.800272 0.811292 0.021910 0.190061
H79   H     H_    0.588067 0.841646 0.999705 0.183866
C90   C     C_3   0.778553 0.820107 0.940600 -0.817937
H80   H     H_    0.708694 0.847684 0.912387 0.236752
H81   H     H_    0.725569 0.776232 0.936355 0.232678
H82   H     H_    0.928964 0.820120 0.932924 0.231640
O35   O     O_3   0.772107 0.896051 0.468967 -0.576149
C91   C     C_3   0.788529 0.843617 0.494669 0.069805
H83   H     H_    0.927937 0.842508 0.512105 0.149595
H84   H     H_    0.782192 0.806424 0.468917 0.089332
C92   C     C_3   0.644876 0.838151 0.537100 -0.306761
H85   H     H_    0.652758 0.875764 0.562364 0.213129
H86   H     H_    0.504286 0.836201 0.520425 0.182184
C93   C     C_3   0.677550 0.784699 0.568334 -0.834741
H87   H     H_    0.673443 0.746728 0.543482 0.224638
H88   H     H_    0.568527 0.780715 0.597682 0.239180
H89   H     H_    0.813787 0.786768 0.587491 0.235242
O36   O     O_3   0.189685 0.078007 0.553037 -0.562460
C94   C     C_3   0.179729 0.098662 0.502316 0.089072
H90   H     H_    0.031383 0.100012 0.491965 0.138441
H91   H     H_    0.242996 0.068410 0.475358 0.122251
C95   C     C_3   0.260090 0.158674 0.494195 -0.372443
H92   H     H_    0.199664 0.188706 0.521874 0.190057
H93   H     H_    0.411938 0.158354 0.499711 0.183868
C96   C     C_3   0.221554 0.179852 0.440570 -0.817958
H94   H     H_    0.291575 0.152284 0.412381 0.236758
H95   H     H_    0.274434 0.223740 0.436324 0.232686
H96   H     H_    0.071164 0.179800 0.432861 0.231635

loop_
_geom_bond_atom_site_label_1
_geom_bond_atom_site_label_2
_ccdc_geom_bond_type
O17   V3    S    
C80   H57   S    
C48   C56   A    
O18   V4    S    
C61   C62   T    
O12   V1    S    
O19   V1    S    
C88   H76   S    
C37   H13   S    
C94   H90   S    
C10   H2    S    
C18   O22   S    
C70   H34   S    
C39   H15   S    
O32   C82   S    
C89   H79   S    
C94   C95   S    
C17   C25   A    
O27   C71   S    
O16   V3    S    
C35   C43   A    
C80   H58   S    
O11   C3    A    
C85   H69   S    
O8    V1    S    
O30   C76   S    
C78   H53   S    
C46   C54   A    
C5    C27   S    
C96   H96   S    
C72   H39   S    
C6    C28   S    
C83   H65   S    
C24   O28   S    
C79   H56   S    
C84   H67   S    
C38   H14   S    
C65   H17   S    
C9    C17   A    
O23   C67   S    
C34   H10   S    
O1    V3    S    
C40   H16   S    
C33   H9    S    
C67   H23   S    
C30   C38   A    
O3    C2    A    
O2    V4    S    
C95   C96   S    
C16   H8    S    
C83   H64   S    
C68   H28   S    
C20   C28   A    
C85   C86   S    
C27   C35   A    
C81   H59   S    
C45   C53   A    
C26   C34   A    
C76   H48   S    
C15   C23   A    
C84   H66   S    
C78   H52   S    
O11   V2    S    
O34   C88   S    
C16   C24   A    
C23   C31   A    
C90   H82   S    
C69   H30   S    
C75   H47   S    
C11   H3    S    
C73   H42   S    
C12   C20   A    
O9    V1    S    
C82   C83   S    
C42   O30   S    
C12   C52   A    
O15   C7    A    
O16   C8    A    
O7    V2    S    
C13   C21   A    
C88   H77   S    
C74   H44   S    
O12   C4    A    
O3    V4    S    
C21   C29   A    
C16   C56   A    
C87   H75   S    
C46   O34   S    
C40   C48   A    
C55   C63   S    
C57   C58   T    
O5    V1    S    
C79   C80   S    
C22   O26   S    
C80   C81   S    
C10   C18   A    
C68   H27   S    
O13   C5    A    
C90   H80   S    
C36   C44   A    
C77   C78   S    
O15   V4    S    
C78   H54   S    
O28   C72   S    
C87   H74   S    
C74   C75   S    
C53   C61   S    
O31   C79   S    
C87   H73   S    
C84   H68   S    
C17   O21   S    
C22   C30   A    
C69   H31   S    
C86   H72   S    
C43   O31   S    
C19   O23   S    
O22   C66   S    
C49   C57   S    
C83   C84   S    
C71   H37   S    
C76   H49   S    
C92   H85   S    
C10   C50   A    
O35   C91   S    
C96   H94   S    
C9    C49   A    
C34   C42   A    
C73   C74   S    
O10   V2    S    
C93   H88   S    
C59   C60   T    
C14   C22   A    
C89   C90   S    
C86   C87   S    
C25   C33   A    
C14   C54   A    
C24   C32   A    
O8    C5    A    
C18   C26   A    
C13   C53   A    
C66   H21   S    
C91   H83   S    
C44   O32   S    
C81   H61   S    
C15   C55   A    
C68   H26   S    
C21   O25   S    
C39   C47   A    
O4    C1    A    
C20   O24   S    
O9    C1    A    
C79   H55   S    
O6    V2    S    
C31   C39   A    
C95   H92   S    
C76   C77   S    
C41   O29   S    
C56   C64   S    
C11   C19   A    
O25   C69   S    
C88   C89   S    
C48   O36   S    
C92   C93   S    
C19   C27   A    
C13   H5    S    
C70   H32   S    
C38   C46   A    
C3    C29   S    
O29   C73   S    
C37   C45   A    
O24   C68   S    
C52   C60   S    
C93   H89   S    
C15   H7    S    
C73   H41   S    
C75   H46   S    
C29   C37   A    
C7    C25   S    
C47   C55   A    
O1    C4    A    
C85   H70   S    
C66   H20   S    
O2    C3    A    
C91   C92   S    
C47   O35   S    
O13   V3    S    
O14   V4    S    
C71   H35   S    
C70   H33   S    
C94   H91   S    
C72   H40   S    
C36   H12   S    
O7    C6    A    
C43   C51   A    
O21   C65   S    
C95   H93   S    
C42   C50   A    
C67   H25   S    
C9    H1    S    
C77   H50   S    
O14   C6    A    
C92   H86   S    
O26   C70   S    
C41   C49   A    
C96   H95   S    
C74   H43   S    
C1    C31   S    
C2    C32   S    
C93   H87   S    
O5    C8    A    
C65   H18   S    
O10   C2    A    
C69   H29   S    
C23   O27   S    
O6    C7    A    
O20   V2    S    
C67   H24   S    
C66   H22   S    
C32   C40   A    
C4    C30   S    
O33   C85   S    
C81   H60   S    
C14   H6    S    
O4    V3    S    
C12   H4    S    
C91   H84   S    
C82   H62   S    
C35   H11   S    
C89   H78   S    
C28   C36   A    
C8    C26   S    
C86   H71   S    
C71   H36   S    
C63   C64   T    
C90   H81   S    
C33   C41   A    
C75   H45   S    
C44   C52   A    
C51   C59   S    
C72   H38   S    
C45   O33   S    
O36   C94   S    
C50   C58   S    
C54   C62   S    
C77   H51   S    
C82   H63   S    
C65   H19   S    
C11   C51   A    
