data_mof_unit_49113.cif
_audit_creation_date              2012-12-10T17:46:24-0500
_audit_creation_method            fapswitch 2.2
_symmetry_space_group_name_H-M    P1
_symmetry_Int_Tables_number       1
_space_group_crystal_system       triclinic
_cell_length_a                    20.797156
_cell_length_b                    21.251199
_cell_length_c                    14.792603
_cell_angle_alpha                 89.876178
_cell_angle_beta                  128.004242
_cell_angle_gamma                 90.084877
_cell_volume                      5151.55081825

loop_
_atom_site_label
_atom_site_type_symbol
_atom_type_description
_atom_site_fract_x
_atom_site_fract_y
_atom_site_fract_z
_atom_type_partial_charge
C1    C     C_R   0.602379 0.913448 0.630961 0.809719
C2    C     C_R   0.396278 0.085456 0.367369 0.808123
C3    C     C_R   0.396611 0.914247 0.367899 0.806892
C4    C     C_R   0.602652 0.086317 0.631194 0.809026
C5    C     C_R   0.102378 0.413448 0.630961 0.809723
C6    C     C_R   0.896276 0.585454 0.367365 0.808124
C7    C     C_R   0.896612 0.414247 0.367900 0.806890
C8    C     C_R   0.102653 0.586316 0.631195 0.809016
C9    C     C_R   0.297026 0.796986 0.887960 -0.185192
C10   C     C_R   0.664125 0.230034 0.068418 -0.196449
C11   C     C_R   0.653678 0.760840 0.055033 -0.212212
C12   C     C_R   0.296907 0.202126 0.886587 -0.208551
C13   C     C_R   0.796944 0.297033 0.887884 -0.185230
C14   C     C_R   0.164111 0.730058 0.068386 -0.196551
C15   C     C_R   0.153864 0.261017 0.055296 -0.212187
C16   C     C_R   0.797103 0.702233 0.886770 -0.208565
C17   C     C_R   0.322549 0.992272 0.665327 -0.256426
C18   C     C_R   0.676698 0.009612 0.333435 -0.248834
C19   C     C_R   0.822543 0.492333 0.665323 -0.256400
C20   C     C_R   0.176709 0.509545 0.333445 -0.248840
C21   C     C_R   0.351965 0.996769 0.602928 -0.073105
C22   C     C_R   0.647895 0.003802 0.396457 -0.071726
C23   C     C_R   0.851962 0.496806 0.602926 -0.073095
C24   C     C_R   0.147899 0.503765 0.396461 -0.071732
C25   C     C_R   0.488343 0.001339 0.775061 0.737941
C26   C     C_R   0.511215 0.999333 0.224949 0.738523
C27   C     C_R   0.988346 0.501319 0.775061 0.737940
C28   C     C_R   0.011215 0.499346 0.224949 0.738523
C29   C     C_R   0.461836 0.000997 0.844484 -0.172144
C30   C     C_R   0.537028 0.001270 0.154684 -0.171901
C31   C     C_R   0.961840 0.500994 0.844486 -0.172151
C32   C     C_R   0.037030 0.501260 0.154686 -0.171922
C33   C     C_R   0.376944 0.993107 0.785760 -0.031619
C34   C     C_R   0.621842 0.009645 0.212983 -0.034863
C35   C     C_R   0.876939 0.493150 0.785756 -0.031618
C36   C     C_R   0.121854 0.509590 0.212992 -0.034876
C37   C     C_R   0.515149 0.005991 0.968294 -0.014087
C38   C     C_R   0.483301 0.997193 0.030624 -0.009212
C39   C     C_R   0.015159 0.505967 0.968301 -0.014099
C40   C     C_R   0.983300 0.497201 0.030623 -0.009214
C41   C     C_R   0.399376 0.983446 0.966508 -0.249740
C42   C     C_R   0.598608 0.021084 0.031896 -0.229090
C43   C     C_R   0.899360 0.483504 0.966497 -0.249738
C44   C     C_R   0.098637 0.521007 0.031915 -0.229148
C45   C     C_R   0.347107 0.983836 0.847388 0.586517
C46   C     C_R   0.651144 0.020453 0.150996 0.601767
C47   C     C_R   0.847092 0.483911 0.847377 0.586527
C48   C     C_R   0.151171 0.520360 0.151015 0.601743
C49   C     C_R   0.657471 0.138605 0.700632 -0.058712
C50   C     C_R   0.335425 0.866781 0.290845 -0.056287
C51   C     C_R   0.333397 0.131405 0.288019 -0.057499
C52   C     C_R   0.656388 0.860515 0.699474 -0.059282
C53   C     C_R   0.157481 0.638599 0.700642 -0.058709
C54   C     C_R   0.835426 0.366779 0.290847 -0.056286
C55   C     C_R   0.833373 0.631383 0.287985 -0.057492
C56   C     C_R   0.156373 0.360506 0.699458 -0.059299
C57   C     C_R   0.746616 0.223778 0.733007 -0.179020
C58   C     C_R   0.226072 0.795567 0.236058 -0.178057
C59   C     C_R   0.218507 0.197689 0.226423 -0.183736
C60   C     C_R   0.748079 0.777080 0.733881 -0.183728
C61   C     C_R   0.246683 0.723736 0.733075 -0.179027
C62   C     C_R   0.726086 0.295550 0.236085 -0.178031
C63   C     C_R   0.718333 0.697533 0.226189 -0.183742
C64   C     C_R   0.247905 0.276973 0.733705 -0.183727
C65   C     C_R   0.699682 0.171515 0.669728 -0.189173
C66   C     C_R   0.283090 0.840848 0.310505 -0.190301
C67   C     C_R   0.278281 0.154817 0.304283 -0.190112
C68   C     C_R   0.701122 0.829504 0.671052 -0.188015
C69   C     C_R   0.199727 0.671485 0.669775 -0.189177
C70   C     C_R   0.783100 0.340838 0.310521 -0.190288
C71   C     C_R   0.778154 0.654706 0.304118 -0.190115
C72   C     C_R   0.201001 0.329424 0.670923 -0.188023
C73   C     C_R   0.663514 0.157847 0.795830 -0.225454
C74   C     C_R   0.329195 0.847875 0.195305 -0.218879
C75   C     C_R   0.327387 0.150514 0.192624 -0.216042
C76   C     C_R   0.659332 0.838806 0.791140 -0.226010
C77   C     C_R   0.163506 0.657852 0.795818 -0.225461
C78   C     C_R   0.829186 0.347878 0.195298 -0.218876
C79   C     C_R   0.827429 0.650542 0.192663 -0.215938
C80   C     C_R   0.159385 0.338848 0.791205 -0.226035
C81   C     C_R   0.707011 0.212133 0.857562 0.081996
C82   C     C_R   0.270315 0.804036 0.116661 0.083840
C83   C     C_R   0.265879 0.191854 0.110689 0.082742
C84   C     C_R   0.703065 0.784427 0.852347 0.081523
C85   C     C_R   0.207030 0.712125 0.857574 0.082004
C86   C     C_R   0.770303 0.304038 0.116656 0.083837
C87   C     C_R   0.765869 0.691826 0.110650 0.082756
C88   C     C_R   0.203057 0.284440 0.852362 0.081513
C89   C     C_R   0.750462 0.244385 0.826295 0.155363
C90   C     C_R   0.219892 0.776513 0.140216 0.163696
C91   C     C_R   0.212450 0.216868 0.130637 0.163354
C92   C     C_R   0.749599 0.754450 0.824352 0.161662
C93   C     C_R   0.250517 0.744353 0.826346 0.155364
C94   C     C_R   0.719896 0.276500 0.140234 0.163677
C95   C     C_R   0.712328 0.716749 0.130460 0.163341
C96   C     C_R   0.249475 0.254384 0.824240 0.161649
C97   C     C_R   0.709249 0.234641 0.950045 0.069373
C98   C     C_R   0.261948 0.785567 0.017440 0.060631
C99   C     C_R   0.257979 0.210597 0.011896 0.063024
C100  C     C_R   0.703298 0.760096 0.942195 0.068677
C101  C     C_R   0.209262 0.734642 0.950047 0.069384
C102  C     C_R   0.761918 0.285579 0.017419 0.060616
C103  C     C_R   0.758018 0.710597 0.011905 0.063049
C104  C     C_R   0.203333 0.260149 0.942270 0.068652
C105  C     C_R   0.303247 0.817092 0.982170 -0.189656
C106  C     C_R   0.659241 0.208926 0.975732 -0.194600
C107  C     C_R   0.649612 0.782763 0.963260 -0.198113
C108  C     C_R   0.301845 0.180818 0.979402 -0.199132
C109  C     C_R   0.803177 0.317130 0.982109 -0.189690
C110  C     C_R   0.159233 0.708945 0.975707 -0.194640
C111  C     C_R   0.149757 0.282908 0.963475 -0.198103
C112  C     C_R   0.802000 0.680895 0.979537 -0.199107
Cu1   Cu    Cu3+1 0.526640 1.000000 0.436960 0.990548
Cu2   Cu    Cu3+1 0.473360 0.000000 0.563040 0.990343
Cu3   Cu    Cu3+1 0.026640 0.500000 0.436960 0.990542
Cu4   Cu    Cu3+1 0.973360 0.500000 0.563040 0.990347
H1    H     H_    0.329402 0.822678 0.863686 0.154300
H2    H     H_    0.624586 0.209150 0.084813 0.145114
H3    H     H_    0.611455 0.779424 0.068140 0.145591
H4    H     H_    0.331389 0.177959 0.864466 0.148631
H5    H     H_    0.829287 0.322746 0.863576 0.154316
H6    H     H_    0.124559 0.709186 0.084763 0.145102
H7    H     H_    0.111728 0.279673 0.068512 0.145612
H8    H     H_    0.831677 0.678127 0.864749 0.148598
H9    H     H_    0.371293 0.970663 0.005013 0.232416
H10   H     H_    0.625688 0.035502 0.992558 0.232414
H11   H     H_    0.871259 0.470749 0.004988 0.232451
H12   H     H_    0.125739 0.535395 0.992594 0.232474
H13   H     H_    0.372700 0.866830 0.185806 0.170101
H14   H     H_    0.634326 0.129022 0.820914 0.176564
H15   H     H_    0.628033 0.865955 0.814617 0.183899
H16   H     H_    0.372974 0.133797 0.185647 0.175574
H17   H     H_    0.872691 0.366834 0.185789 0.170080
H18   H     H_    0.134284 0.629046 0.820868 0.176526
H19   H     H_    0.128177 0.366054 0.814768 0.183979
H20   H     H_    0.873100 0.633906 0.185800 0.175483
H21   H     H_    0.286814 0.854957 0.383916 0.157864
H22   H     H_    0.695807 0.157312 0.596236 0.158846
H23   H     H_    0.699539 0.845498 0.600144 0.159024
H24   H     H_    0.281669 0.140392 0.377380 0.158163
H25   H     H_    0.786829 0.354943 0.383940 0.157869
H26   H     H_    0.195867 0.657272 0.596302 0.158851
H27   H     H_    0.199363 0.345379 0.599952 0.159014
H28   H     H_    0.781490 0.640240 0.377155 0.158155
H29   H     H_    0.279276 0.748511 0.708311 0.138721
H30   H     H_    0.687049 0.275153 0.253742 0.138584
H31   H     H_    0.676938 0.715870 0.241001 0.138000
H32   H     H_    0.282614 0.253812 0.711078 0.137225
H33   H     H_    0.779180 0.248572 0.708212 0.138724
H34   H     H_    0.187025 0.775180 0.253699 0.138581
H35   H     H_    0.177198 0.216098 0.241341 0.137988
H36   H     H_    0.782877 0.753980 0.711349 0.137235
H37   H     H_    0.339106 0.858923 0.023352 0.153117
H38   H     H_    0.613541 0.173552 0.923855 0.141992
H39   H     H_    0.601759 0.816218 0.908204 0.150637
H40   H     H_    0.338745 0.139463 0.021803 0.169109
H41   H     H_    0.839007 0.358975 0.023268 0.153158
H42   H     H_    0.113524 0.673580 0.923820 0.142006
H43   H     H_    0.101960 0.316416 0.908497 0.150709
H44   H     H_    0.838966 0.639576 0.022003 0.169084
H45   H     H_    0.690258 0.004558 0.489203 0.157861
H46   H     H_    0.309916 0.995663 0.510175 0.156558
H47   H     H_    0.190262 0.504509 0.489209 0.157868
H48   H     H_    0.809911 0.495717 0.510172 0.156539
H49   H     H_    0.257395 0.987371 0.619151 0.213846
H50   H     H_    0.741748 0.014962 0.379178 0.214006
H51   H     H_    0.757383 0.487467 0.619144 0.213848
H52   H     H_    0.241765 0.514860 0.379191 0.214014
N1    N     N_R   0.433280 1.000000 0.657760 -0.211479
N2    N     N_R   0.566720 1.000000 0.342240 -0.211510
N3    N     N_R   0.933280 0.500000 0.657760 -0.211465
N4    N     N_R   0.066720 0.500000 0.342240 -0.211516
O1    O     O_R   0.600040 0.935040 0.546740 -0.599738
O2    O     O_R   0.399960 0.064960 0.453260 -0.600387
O3    O     O_R   0.399960 0.935040 0.453260 -0.600391
O4    O     O_R   0.600040 0.064960 0.546740 -0.599278
O5    O     O_R   0.100040 0.435040 0.546740 -0.599746
O6    O     O_R   0.899960 0.564960 0.453260 -0.600398
O7    O     O_R   0.899960 0.435040 0.453260 -0.600374
O8    O     O_R   0.100040 0.564960 0.546740 -0.599273
O9    O     O_R   0.555010 0.935070 0.653220 -0.530315
O10   O     O_R   0.444990 0.064930 0.346780 -0.531286
O11   O     O_R   0.444990 0.935070 0.346780 -0.537729
O12   O     O_R   0.555010 0.064930 0.653220 -0.538457
O13   O     O_R   0.055010 0.435070 0.653220 -0.530281
O14   O     O_R   0.944990 0.564930 0.346780 -0.531252
O15   O     O_R   0.944990 0.435070 0.346780 -0.537756
O16   O     O_R   0.055010 0.564930 0.653220 -0.538484
F1    F     F_    0.266514 0.972435 0.791914 -0.666842
F2    F     F_    0.731443 0.032976 0.206140 -0.661805
F3    F     F_    0.766484 0.472562 0.791895 -0.666821
F4    F     F_    0.231486 0.532828 0.206168 -0.661791
F5    F     F_    0.431596 0.001705 0.179357 -0.695907
F6    F     F_    0.568169 0.997912 0.821783 -0.691310
F7    F     F_    0.931597 0.501742 0.179361 -0.695880
F8    F     F_    0.068169 0.497868 0.821774 -0.691363

loop_
_geom_bond_atom_site_label_1
_geom_bond_atom_site_label_2
_ccdc_geom_bond_type
C72   H27   S    
C105  H37   S    
C88   C96   A    
C14   H6    S    
Cu4   O6    S    
Cu2   N1    S    
C33   C45   A    
C5    C56   S    
C53   C77   A    
C5    O13   A    
C6    C55   S    
C109  H41   S    
C76   C84   A    
C79   C87   A    
C13   H5    S    
C18   H50   S    
C107  H39   S    
C61   C69   A    
C8    O16   A    
C99   C108  A    
Cu4   O16   S    
C1    O1    A    
C80   H19   S    
C19   H51   S    
C10   H2    S    
C32   C36   A    
C7    O15   A    
C51   C75   A    
C23   H48   S    
C62   H30   S    
C1    C52   S    
C50   C74   A    
C2    O10   A    
C76   H15   S    
C61   C93   A    
C70   H25   S    
C10   C94   A    
C9    C105  A    
Cu3   Cu4   S    
C21   N1    A    
C63   C95   A    
C28   F7    S    
C55   C79   A    
C62   C70   A    
C14   C110  A    
C60   H36   S    
C63   H31   S    
C37   C42   A    
C61   H29   S    
C14   C90   A    
C13   C109  A    
C86   C94   A    
C59   C67   A    
C12   H4    S    
C85   C93   A    
C58   C66   A    
C40   C43   A    
C20   C24   A    
C29   C33   A    
C56   C72   A    
C57   H33   S    
C34   C46   A    
Cu3   O8    S    
C52   C68   A    
C81   C89   A    
C78   C86   A    
C32   C40   A    
C99   C104  A    
C53   C69   A    
C83   C99   A    
C6    O6    A    
C47   F3    S    
C82   C98   A    
C15   H7    S    
C17   C33   A    
C46   F2    S    
C73   C81   A    
C88   C104  A    
C3    C50   S    
C28   N4    A    
C60   C92   A    
C25   C29   A    
C20   H52   S    
C30   C34   A    
C27   C31   A    
C84   C100  A    
C15   C111  A    
C28   C32   A    
C102  C109  A    
C64   C96   A    
C38   C41   A    
C11   H3    S    
C43   H11   S    
C39   C40   A    
C12   C108  A    
Cu3   O14   S    
C1    O9    A    
C51   C67   A    
C106  H38   S    
C69   H26   S    
C100  C103  A    
C17   C21   A    
Cu4   N3    S    
C87   C95   A    
C103  C112  A    
C19   C23   A    
C37   C38   A    
C49   C65   A    
C41   H9    S    
C22   N2    A    
Cu3   O15   S    
C8    O8    A    
C98   C105  A    
Cu1   O10   S    
C54   C70   A    
C57   C65   A    
C45   F1    S    
C7    C54   S    
C7    O7    A    
C59   C91   A    
C82   C90   A    
C4    O12   A    
C67   H24   S    
C18   C34   A    
C5    O5    A    
Cu3   O5    S    
C57   C89   A    
C58   C90   A    
Cu1   O4    S    
C87   C103  A    
C65   H22   S    
C3    O3    A    
Cu2   O3    S    
C79   H20   S    
C3    O11   A    
C26   C30   A    
C62   C94   A    
C42   C46   A    
C49   C73   A    
C10   C106  A    
C24   H47   S    
C77   H18   S    
C97   C106  A    
C86   C102  A    
C9    C93   A    
C85   C101  A    
C75   H16   S    
C16   C112  A    
Cu1   O1    S    
Cu1   Cu2   S    
C74   C82   A    
C11   C95   A    
C22   H45   S    
C73   H14   S    
C44   H12   S    
C100  C107  A    
C21   H46   S    
C112  H44   S    
C13   C89   A    
C18   C22   A    
C97   C102  A    
C111  H43   S    
Cu3   N4    S    
C52   C76   A    
C110  H42   S    
C8    C53   S    
C104  C111  A    
C50   C66   A    
C16   C92   A    
C39   C44   A    
C59   H35   S    
Cu2   O9    S    
C83   C91   A    
Cu4   O13   S    
C6    O14   A    
C108  H40   S    
C56   C80   A    
C98   C101  A    
C4    C49   S    
C60   C68   A    
C25   N1    A    
C101  C110  A    
C80   C88   A    
C17   H49   S    
C2    O2    A    
C11   C107  A    
C26   F5    S    
C75   C83   A    
Cu1   O11   S    
C66   H21   S    
C81   C97   A    
C77   C85   A    
Cu2   O12   S    
C31   C35   A    
C31   C39   A    
C36   C48   A    
Cu1   N2    S    
C64   C72   A    
C16   H8    S    
C24   N4    A    
C78   H17   S    
C55   C71   A    
C48   F4    S    
C2    C51   S    
C42   H10   S    
C15   C91   A    
C20   C36   A    
C44   C48   A    
Cu2   O2    S    
C23   N3    A    
C26   N2    A    
C4    O4    A    
C74   H13   S    
C29   C37   A    
C25   F6    S    
C41   C45   A    
C12   C96   A    
C68   H23   S    
C19   C35   A    
C27   F8    S    
C84   C92   A    
C30   C38   A    
C35   C47   A    
Cu4   O7    S    
C27   N3    A    
C43   C47   A    
C63   C71   A    
C64   H32   S    
C9    H1    S    
C58   H34   S    
C71   H28   S    
C54   C78   A    
