data_mof_unit_31419.cif
_audit_creation_date              2012-12-10T18:47:41-0500
_audit_creation_method            fapswitch 2.2
_symmetry_space_group_name_H-M    P1
_symmetry_Int_Tables_number       1
_space_group_crystal_system       triclinic
_cell_length_a                    9.836374
_cell_length_b                    10.711603
_cell_length_c                    15.504191
_cell_angle_alpha                 90.10391
_cell_angle_beta                  68.443149
_cell_angle_gamma                 89.995817
_cell_volume                      1519.3074583

loop_
_atom_site_label
_atom_site_type_symbol
_atom_type_description
_atom_site_fract_x
_atom_site_fract_y
_atom_site_fract_z
_atom_type_partial_charge
C1    C     C_R   0.500071 0.740130 0.499948 0.857534
C2    C     C_R   0.500052 0.259864 0.499855 0.858707
C3    C     C_R   0.305640 0.453951 0.110480 -0.151135
C4    C     C_R   0.631967 0.347403 0.915704 -0.148490
C5    C     C_R   0.204024 0.463533 0.067530 -0.250290
C6    C     C_R   0.730438 0.327151 0.959632 -0.247171
C7    C     C_R   0.607186 0.936106 0.521820 -0.202216
C8    C     C_R   0.393399 0.063881 0.477413 -0.198317
C9    C     C_R   0.607236 0.064009 0.521732 -0.197711
C10   C     C_R   0.393399 0.935960 0.477447 -0.200798
C11   C     C_R   0.500237 0.127437 0.499643 -0.006277
C12   C     C_R   0.500211 0.872547 0.499738 -0.008940
C13   C     C_R   0.956102 0.411604 0.451581 -0.087695
C14   C     C_R   0.044024 0.588631 0.548161 -0.087483
C15   C     C_R   0.100055 0.411714 0.451514 -0.047848
C16   C     C_R   0.900330 0.588880 0.547817 -0.031226
C17   C     C_R   0.409451 0.499601 0.676237 0.893862
C18   C     C_R   0.590544 0.498715 0.324164 0.910946
C19   C     C_R   0.354180 0.489342 0.777701 -0.176878
C20   C     C_R   0.642942 0.474749 0.224789 -0.167547
C21   C     C_R   0.153202 0.486624 0.926426 -0.215722
C22   C     C_R   0.802647 0.360323 0.091557 -0.228171
C23   C     C_R   0.203745 0.495139 0.830026 -0.279332
C24   C     C_R   0.771896 0.407208 0.180614 -0.294518
C25   C     C_R   0.453557 0.470751 0.822831 0.453140
C26   C     C_R   0.546936 0.498485 0.178694 0.453869
C27   C     C_R   0.400991 0.442197 0.917759 -0.033402
C28   C     C_R   0.564827 0.434109 0.096393 -0.032256
C29   C     C_R   0.251403 0.462745 0.970891 0.115187
C30   C     C_R   0.700072 0.373493 0.048910 0.113885
C31   C     C_R   0.497055 0.407854 0.962507 0.060656
C32   C     C_R   0.455413 0.433858 0.057548 0.063721
H1    H     H_    0.089910 0.478253 0.109666 0.154274
H2    H     H_    0.832439 0.279301 0.922562 0.150862
H3    H     H_    0.846277 0.387557 0.215885 0.174878
H4    H     H_    0.125770 0.510999 0.796801 0.184248
H5    H     H_    0.037946 0.500204 0.966052 0.163010
H6    H     H_    0.904044 0.310200 0.057362 0.155961
H7    H     H_    0.264533 0.456655 0.185396 0.194446
H8    H     H_    0.659919 0.311147 0.846149 0.191381
H9    H     H_    0.689632 0.887353 0.539823 0.147467
H10   H     H_    0.310925 0.112654 0.459455 0.149450
H11   H     H_    0.689758 0.112869 0.539638 0.156885
H12   H     H_    0.310936 0.887070 0.459498 0.157948
H13   H     H_    0.924039 0.341029 0.412803 0.121131
H14   H     H_    0.076151 0.659420 0.586747 0.119111
H15   H     H_    0.177112 0.341238 0.412644 0.119312
H16   H     H_    0.823828 0.660279 0.585642 0.114601
N1    N     N_R   0.142780 0.500030 0.500020 -0.072531
N2    N     N_R   0.857220 0.499970 0.499980 -0.071269
O1    O     O_R   0.385370 0.683250 0.500010 -0.623801
O2    O     O_R   0.614630 0.316750 0.499990 -0.628137
O3    O     O_R   0.614700 0.683220 0.500000 -0.633513
O4    O     O_R   0.385300 0.316780 0.500000 -0.632469
O5    O     O_R   0.319830 0.500020 0.632250 -0.624642
O6    O     O_R   0.680170 0.499980 0.367750 -0.627282
O7    O     O_R   0.549160 0.499990 0.632240 -0.549875
O8    O     O_R   0.450840 0.500010 0.367760 -0.562744
Zn1   Zn    Zn3+2 0.346870 0.500020 0.500000 0.960551
Zn2   Zn    Zn3+2 0.653130 0.499980 0.500000 0.960274
O9    O     O_3   0.435668 0.585016 0.214957 -0.611114
C33   C     C_3   0.490514 0.703826 0.180566 -0.313337
H17   H     H_    0.527787 0.706823 0.103530 0.158702
H18   H     H_    0.580711 0.732063 0.203647 0.151923
H19   H     H_    0.401219 0.773142 0.208713 0.194125
O10   O     O_3   0.602039 0.488968 0.775615 -0.601807
C34   C     C_3   0.636956 0.612986 0.790571 -0.300704
H20   H     H_    0.607857 0.633784 0.865600 0.155741
H21   H     H_    0.582707 0.680806 0.759319 0.152617
H22   H     H_    0.756762 0.625702 0.756476 0.176248

loop_
_geom_bond_atom_site_label_1
_geom_bond_atom_site_label_2
_ccdc_geom_bond_type
C21   H5    S    
C19   C23   A    
C21   C29   A    
C33   H17   S    
O5    Zn1   S    
C27   C29   A    
C1    O1    A    
C17   O5    A    
C26   C28   A    
C31   C32   A    
N1    Zn1   S    
C13   C15   A    
C18   O6    A    
C34   H22   S    
N2    Zn2   S    
C16   H16   S    
C28   C30   A    
O10   C34   S    
C3    H7    S    
C14   H14   S    
C6    C30   A    
C20   C24   A    
C13   H13   S    
C9    C11   A    
C5    H1    S    
C7    C12   A    
C1    C12   S    
C2    O2    A    
O2    Zn2   S    
C8    C11   A    
C2    C11   S    
C10   C12   A    
C22   C24   A    
C4    C6    A    
C13   N2    A    
C17   C19   S    
C26   O9    S    
C16   N2    A    
C5    C29   A    
O4    Zn1   S    
C15   N1    A    
C21   C23   A    
C3    C32   A    
C19   C25   A    
C14   C16   A    
C9    H11   S    
C24   H3    S    
O1    Zn1   S    
O9    C33   S    
C34   H21   S    
C10   H12   S    
C34   H20   S    
C4    C31   A    
C6    H2    S    
C28   C32   A    
O6    Zn2   S    
C14   N1    A    
C18   C20   S    
C8    C10   A    
C23   H4    S    
C2    O4    A    
C17   O7    A    
C7    C9    A    
C1    O3    A    
C15   H15   S    
O7    Zn2   S    
C33   H18   S    
C22   C30   A    
C33   H19   S    
C3    C5    A    
O8    Zn1   S    
C27   C31   A    
O3    Zn2   S    
C25   O10   S    
C4    H8    S    
C7    H9    S    
C8    H10   S    
C18   O8    A    
C20   C26   A    
C25   C27   A    
C22   H6    S    
