data_mof_unit_55885.cif
_audit_creation_date              2012-10-26T17:11:04-0400
_audit_creation_method            fapswitch 2.2
_symmetry_space_group_name_H-M    P1
_symmetry_Int_Tables_number       1
_space_group_crystal_system       triclinic
_cell_length_a                    28.022543
_cell_length_b                    18.792486
_cell_length_c                    16.873666
_cell_angle_alpha                 90.07319
_cell_angle_beta                  62.674266
_cell_angle_gamma                 90.110119
_cell_volume                      7894.31370445

loop_
_atom_site_label
_atom_site_type_symbol
_atom_type_description
_atom_site_fract_x
_atom_site_fract_y
_atom_site_fract_z
_atom_type_partial_charge
C1    C     C_R   0.295178 0.728657 0.329621 0.556192
C2    C     C_R   0.422099 0.120010 0.576748 -0.099914
C3    C     C_R   0.926706 0.097154 0.066435 0.563378
C4    C     C_R   0.426747 0.402767 0.066369 0.562519
C5    C     C_R   0.573282 0.597195 0.933607 0.562609
C6    C     C_R   0.573307 0.402865 0.933554 0.563059
C7    C     C_R   0.426687 0.597127 0.066450 0.562698
C8    C     C_R   0.048712 0.497240 0.505299 0.056609
C9    C     C_R   0.952903 0.497456 0.489691 0.056517
C10   C     C_R   0.535746 0.999631 0.547621 0.055232
C11   C     C_R   0.442541 0.999196 0.522201 0.056157
C12   C     C_R   0.027028 0.561505 0.493731 0.014823
C13   C     C_R   0.459881 0.876564 0.472775 -0.112072
C14   C     C_R   0.978859 0.432659 0.487249 0.020591
C15   C     C_R   0.975233 0.561683 0.500141 0.014960
C16   C     C_R   0.022399 0.432578 0.508015 0.020749
C17   C     C_R   0.506660 0.063399 0.558640 0.018556
C18   C     C_R   0.472227 0.936079 0.510568 0.022261
C19   C     C_R   0.457495 0.061834 0.552446 0.016203
C20   C     C_R   0.515101 0.935140 0.532902 0.020504
C21   C     C_R   0.115337 0.434436 0.535063 -0.041302
C22   C     C_R   0.875093 0.562255 0.496749 -0.043102
C23   C     C_R   0.885317 0.434637 0.462140 -0.041648
C24   C     C_R   0.527688 0.126064 0.576430 -0.113564
C25   C     C_R   0.126322 0.561839 0.499656 -0.044025
C26   C     C_R   0.610975 0.934431 0.551024 -0.042644
C27   C     C_R   0.366440 0.061698 0.518777 -0.047694
C28   C     C_R   0.382132 0.936545 0.475236 -0.040279
C29   C     C_R   0.609418 0.064731 0.557362 -0.042864
C30   C     C_R   0.165928 0.434588 0.536365 -0.007418
C31   C     C_R   0.828853 0.563785 0.481662 -0.007438
C32   C     C_R   0.834300 0.434651 0.462522 -0.007643
C33   C     C_R   0.171712 0.563627 0.516869 -0.007717
C34   C     C_R   0.664167 0.934585 0.542882 -0.008695
C35   C     C_R   0.038849 0.371083 0.535325 -0.113728
C36   C     C_R   0.325648 0.063752 0.490261 -0.008218
C37   C     C_R   0.333321 0.935440 0.467789 -0.008203
C38   C     C_R   0.663589 0.065188 0.545114 -0.010539
C39   C     C_R   0.190820 0.499698 0.534558 0.338804
C40   C     C_R   0.809247 0.499690 0.465098 0.338587
C41   C     C_R   0.689237 0.999964 0.540149 0.337548
C42   C     C_R   0.309078 0.000116 0.466886 0.340792
C43   C     C_R   0.096760 0.497898 0.513978 0.023229
C44   C     C_R   0.904483 0.498208 0.482140 0.023202
C45   C     C_R   0.585647 0.999702 0.551631 0.025504
C46   C     C_R   0.943908 0.623159 0.522273 -0.116378
C47   C     C_R   0.397192 0.999272 0.504864 0.025651
C48   C     C_R   0.580900 0.871613 0.560841 -0.094385
C49   C     C_R   0.376917 0.119022 0.562680 -0.079460
C50   C     C_R   0.416730 0.877501 0.453443 -0.092024
C51   C     C_R   0.577267 0.126409 0.577100 -0.096254
C52   C     C_R   0.082374 0.373233 0.553835 -0.091274
C53   C     C_R   0.893217 0.621788 0.527127 -0.081290
C54   C     C_R   0.918115 0.373376 0.442815 -0.091661
C55   C     C_R   0.109225 0.621105 0.467524 -0.080646
C56   C     C_R   0.961929 0.371148 0.460512 -0.113783
C57   C     C_R   0.058869 0.622666 0.471081 -0.115063
C58   C     C_R   0.221691 0.768931 0.952247 -0.013565
C59   C     C_R   0.778367 0.231194 0.047714 -0.014515
C60   C     C_R   0.778404 0.768419 0.047777 -0.014003
C61   C     C_R   0.704815 0.271332 0.670381 0.559280
C62   C     C_R   0.222194 0.230470 0.951690 -0.011570
C63   C     C_R   0.721832 0.269175 0.952111 -0.014599
C64   C     C_R   0.278180 0.730853 0.047884 -0.012698
C65   C     C_R   0.278639 0.267999 0.047569 -0.013008
C66   C     C_R   0.721913 0.730993 0.951933 -0.013373
C67   C     C_R   0.277788 0.777812 0.913799 0.382228
C68   C     C_R   0.722268 0.222320 0.086205 0.384333
C69   C     C_R   0.722383 0.777689 0.086127 0.383327
C70   C     C_R   0.278219 0.221193 0.913357 0.379477
C71   C     C_R   0.777934 0.278050 0.913612 0.382805
C72   C     C_R   0.704792 0.728718 0.670416 0.554244
C73   C     C_R   0.222080 0.721982 0.086346 0.381432
C74   C     C_R   0.222624 0.277284 0.085858 0.382635
C75   C     C_R   0.777937 0.721726 0.913567 0.381697
C76   C     C_R   0.305635 0.758681 0.961224 -0.127750
C77   C     C_R   0.694398 0.241402 0.038799 -0.127557
C78   C     C_R   0.694520 0.758880 0.038578 -0.128106
C79   C     C_R   0.306064 0.240053 0.960943 -0.128212
C80   C     C_R   0.805805 0.258967 0.961022 -0.128370
C81   C     C_R   0.194232 0.741110 0.038914 -0.127204
C82   C     C_R   0.194787 0.258423 0.038295 -0.127514
C83   C     C_R   0.295228 0.271244 0.329573 0.572890
C84   C     C_R   0.805803 0.740536 0.961125 -0.127714
C85   C     C_R   0.145452 0.831018 0.942884 -0.174253
C86   C     C_R   0.854608 0.169093 0.057069 -0.173986
C87   C     C_R   0.854669 0.830562 0.057063 -0.173719
C88   C     C_R   0.145751 0.168710 0.942572 -0.174892
C89   C     C_R   0.645531 0.331148 0.942809 -0.173647
C90   C     C_R   0.354465 0.668849 0.057193 -0.174517
C91   C     C_R   0.354816 0.330313 0.056936 -0.174920
C92   C     C_R   0.645546 0.669067 0.942745 -0.174394
C93   C     C_R   0.117541 0.851343 0.895279 0.002699
C94   C     C_R   0.795196 0.228689 0.329611 0.564510
C95   C     C_R   0.882503 0.148731 0.104689 0.003407
C96   C     C_R   0.882570 0.851079 0.104637 0.003178
C97   C     C_R   0.117611 0.148647 0.895230 0.002496
C98   C     C_R   0.617553 0.351352 0.895270 0.003236
C99   C     C_R   0.382429 0.648618 0.104744 0.002648
C100  C     C_R   0.382620 0.351009 0.104604 0.002363
C101  C     C_R   0.617513 0.648797 0.895299 0.002729
C102  C     C_R   0.134864 0.826743 0.808154 0.361996
C103  C     C_R   0.865186 0.173340 0.191813 0.362408
C104  C     C_R   0.865262 0.826554 0.191767 0.364136
C105  C     C_R   0.204818 0.771335 0.670379 0.569343
C106  C     C_R   0.134816 0.173382 0.808221 0.361458
C107  C     C_R   0.634829 0.326661 0.808192 0.360469
C108  C     C_R   0.365134 0.673272 0.191840 0.361579
C109  C     C_R   0.365258 0.326588 0.191791 0.362854
C110  C     C_R   0.634756 0.673452 0.808241 0.361586
C111  C     C_R   0.182040 0.786918 0.766088 -0.007285
C112  C     C_R   0.818014 0.213176 0.233877 -0.006112
C113  C     C_R   0.818048 0.786660 0.233863 -0.006134
C114  C     C_R   0.182164 0.212992 0.765991 -0.007146
C115  C     C_R   0.682043 0.286914 0.766085 -0.007119
C116  C     C_R   0.204824 0.228658 0.670397 0.551376
C117  C     C_R   0.317925 0.713028 0.233941 -0.006697
C118  C     C_R   0.318087 0.286603 0.233839 -0.006713
C119  C     C_R   0.682043 0.713193 0.766072 -0.006878
C120  C     C_R   0.209651 0.766764 0.814117 -0.110208
C121  C     C_R   0.790431 0.233383 0.185823 -0.109109
C122  C     C_R   0.790429 0.766295 0.185845 -0.109484
C123  C     C_R   0.210063 0.232833 0.813738 -0.115824
C124  C     C_R   0.709713 0.266870 0.814056 -0.110893
C125  C     C_R   0.290251 0.733067 0.185978 -0.113080
C126  C     C_R   0.290560 0.266068 0.185734 -0.109558
C127  C     C_R   0.795224 0.771250 0.329575 0.572992
C128  C     C_R   0.709810 0.733283 0.813948 -0.114207
C129  C     C_R   0.191547 0.788532 0.902678 0.010683
C130  C     C_R   0.808530 0.211614 0.097263 0.010761
C131  C     C_R   0.808574 0.787980 0.097296 0.010987
C132  C     C_R   0.191986 0.211021 0.902209 0.011496
C133  C     C_R   0.691648 0.288702 0.902581 0.010621
C134  C     C_R   0.308339 0.711277 0.097434 0.011135
C135  C     C_R   0.308759 0.287659 0.097134 0.010691
C136  C     C_R   0.691710 0.711515 0.902447 0.011077
C137  C     C_R   0.199583 0.630954 0.516991 0.565972
C138  C     C_R   0.536153 0.871378 0.546089 -0.115331
C139  C     C_R   0.803275 0.368104 0.472702 0.562261
C140  C     C_R   0.800566 0.630950 0.482594 0.567302
C141  C     C_R   0.196774 0.368141 0.527071 0.564778
C142  C     C_R   0.696370 0.131805 0.528257 0.563528
C143  C     C_R   0.303141 0.868406 0.473839 0.562994
C144  C     C_R   0.299542 0.131002 0.485437 0.565107
C145  C     C_R   0.696720 0.868284 0.527059 0.567473
C146  C     C_R   0.926736 0.902781 0.066378 0.563536
C147  C     C_R   0.073306 0.097161 0.933588 0.561952
C148  C     C_R   0.073308 0.902868 0.933554 0.562678
Cu1   Cu    Cu3+1 0.209920 0.785290 0.495070 1.080055
Cu2   Cu    Cu3+1 0.504760 0.500000 0.075850 1.089489
Cu3   Cu    Cu3+1 0.995240 0.000000 0.924150 1.085969
Cu4   Cu    Cu3+1 0.004760 0.000000 0.075850 1.088890
Cu5   Cu    Cu3+1 0.790080 0.214710 0.504930 1.088368
Cu6   Cu    Cu3+1 0.790080 0.785290 0.504930 1.082117
Cu7   Cu    Cu3+1 0.209920 0.214710 0.495070 1.085988
Cu8   Cu    Cu3+1 0.709920 0.285290 0.495070 1.090711
Cu9   Cu    Cu3+1 0.290080 0.714710 0.504930 1.090584
Cu10  Cu    Cu3+1 0.290080 0.285290 0.504930 1.083179
Cu11  Cu    Cu3+1 0.709920 0.714710 0.495070 1.086592
Cu12  Cu    Cu3+1 0.495240 0.500000 0.924150 1.083836
F1    F     F_    0.234905 0.500450 0.548504 -0.587872
F2    F     F_    0.194341 0.692916 0.168726 -0.628856
F3    F     F_    0.194984 0.306538 0.168164 -0.620866
F4    F     F_    0.805555 0.692586 0.831184 -0.627645
F5    F     F_    0.106591 0.843259 0.763304 -0.588848
F6    F     F_    0.893452 0.156808 0.236672 -0.591486
F7    F     F_    0.893550 0.843247 0.236623 -0.587105
F8    F     F_    0.106270 0.157221 0.763640 -0.593169
F9    F     F_    0.606475 0.343013 0.763426 -0.594087
F10   F     F_    0.393471 0.656885 0.236623 -0.591925
F11   F     F_    0.393448 0.343477 0.236750 -0.586938
F12   F     F_    0.764461 0.500242 0.453142 -0.587683
F13   F     F_    0.606322 0.657059 0.763540 -0.592898
F14   F     F_    0.740273 0.000111 0.529847 -0.584665
F15   F     F_    0.268363 0.000712 0.444212 -0.589250
F16   F     F_    0.305526 0.806905 0.831438 -0.621771
F17   F     F_    0.694547 0.193272 0.168593 -0.615888
F18   F     F_    0.694763 0.806862 0.168484 -0.619095
F19   F     F_    0.305855 0.192025 0.830986 -0.637835
F20   F     F_    0.805652 0.307079 0.831211 -0.620266
H1    H     H_    0.589580 0.821644 0.582345 0.167974
H2    H     H_    0.427380 0.166390 0.609634 0.132316
H3    H     H_    0.484879 0.829556 0.453824 0.124238
H4    H     H_    0.507285 0.176500 0.588022 0.118534
H5    H     H_    0.016262 0.322000 0.548008 0.124710
H6    H     H_    0.956739 0.671322 0.542338 0.126266
H7    H     H_    0.984282 0.321962 0.447813 0.124894
H8    H     H_    0.046631 0.670706 0.450020 0.127226
H9    H     H_    0.151158 0.733128 0.069406 0.154189
H10   H     H_    0.848881 0.266946 0.930493 0.153539
H11   H     H_    0.848832 0.732313 0.930737 0.154262
H12   H     H_    0.349721 0.163244 0.589903 0.170624
H13   H     H_    0.151764 0.266701 0.068636 0.153348
H14   H     H_    0.651324 0.233409 0.069326 0.155760
H15   H     H_    0.348709 0.766676 0.930734 0.153251
H16   H     H_    0.349093 0.231838 0.930595 0.151000
H17   H     H_    0.651494 0.767127 0.068963 0.153606
H18   H     H_    0.132524 0.850071 0.010281 0.149887
H19   H     H_    0.867529 0.150030 0.989679 0.149644
H20   H     H_    0.867581 0.849578 0.989685 0.149791
H21   H     H_    0.132886 0.149587 0.009892 0.149576
H22   H     H_    0.632635 0.350261 0.010172 0.150707
H23   H     H_    0.412599 0.832155 0.417757 0.161327
H24   H     H_    0.367380 0.649772 0.989810 0.149673
H25   H     H_    0.367767 0.349252 0.989516 0.148948
H26   H     H_    0.632669 0.649978 0.010083 0.149872
H27   H     H_    0.245645 0.734665 0.782472 0.191414
H28   H     H_    0.754448 0.265504 0.217461 0.191749
H29   H     H_    0.754379 0.734162 0.217494 0.190876
H30   H     H_    0.246228 0.264735 0.781977 0.187507
H31   H     H_    0.745728 0.234812 0.782389 0.190632
H32   H     H_    0.254228 0.765110 0.217655 0.189329
H33   H     H_    0.254538 0.233881 0.217356 0.191183
H34   H     H_    0.588330 0.175724 0.596884 0.164630
H35   H     H_    0.745917 0.765301 0.782242 0.188132
H36   H     H_    0.088277 0.326575 0.585374 0.164184
H37   H     H_    0.868935 0.667611 0.558374 0.174464
H38   H     H_    0.911717 0.326668 0.411733 0.163602
H39   H     H_    0.134113 0.666565 0.436250 0.174257
H40   H     H_    0.516532 0.820895 0.550214 0.123290
O1    O     O_R   0.255040 0.869590 0.478480 -0.423629
O2    O     O_R   0.817950 0.203450 0.375560 -0.428661
O3    O     O_R   0.817950 0.796550 0.375560 -0.419772
O4    O     O_R   0.182050 0.203450 0.624440 -0.434903
O5    O     O_R   0.682050 0.296550 0.624440 -0.432775
O6    O     O_R   0.317950 0.703450 0.375560 -0.431978
O7    O     O_R   0.317950 0.296550 0.375560 -0.421016
O8    O     O_R   0.682050 0.703450 0.624440 -0.433540
O9    O     O_R   0.250530 0.763330 0.367210 -0.542390
O10   O     O_R   0.749470 0.236670 0.632790 -0.533678
O11   O     O_R   0.749470 0.763330 0.632790 -0.545505
O12   O     O_R   0.744960 0.130410 0.521520 -0.418553
O13   O     O_R   0.250530 0.236670 0.367210 -0.527487
O14   O     O_R   0.750530 0.263330 0.367210 -0.529875
O15   O     O_R   0.249470 0.736670 0.632790 -0.528829
O16   O     O_R   0.249470 0.263330 0.632790 -0.548413
O17   O     O_R   0.750530 0.736670 0.367210 -0.528980
O18   O     O_R   0.177260 0.690030 0.513710 -0.552467
O19   O     O_R   0.822740 0.309970 0.486290 -0.546605
O20   O     O_R   0.822740 0.690030 0.486290 -0.553547
O21   O     O_R   0.177260 0.309970 0.513710 -0.546734
O22   O     O_R   0.677260 0.190030 0.513710 -0.544423
O23   O     O_R   0.744960 0.869590 0.521520 -0.418852
O24   O     O_R   0.322740 0.809970 0.486290 -0.544742
O25   O     O_R   0.322740 0.190030 0.486290 -0.547719
O26   O     O_R   0.677260 0.809970 0.513710 -0.549026
O27   O     O_R   0.051640 0.926880 0.885090 -0.425818
O28   O     O_R   0.948360 0.073120 0.114910 -0.424921
O29   O     O_R   0.948360 0.926880 0.114910 -0.424442
O30   O     O_R   0.051640 0.073120 0.885090 -0.426360
O31   O     O_R   0.551640 0.426880 0.885090 -0.426165
O32   O     O_R   0.448360 0.573120 0.114910 -0.425636
O33   O     O_R   0.448360 0.426880 0.114910 -0.424671
O34   O     O_R   0.255040 0.130410 0.478480 -0.422784
O35   O     O_R   0.551640 0.573120 0.885090 -0.425730
O36   O     O_R   0.940620 0.926560 0.986760 -0.539324
O37   O     O_R   0.059380 0.073440 0.013240 -0.539980
O38   O     O_R   0.059380 0.926560 0.013240 -0.539499
O39   O     O_R   0.940620 0.073440 0.986760 -0.539771
O40   O     O_R   0.440620 0.426560 0.986760 -0.540282
O41   O     O_R   0.559380 0.573440 0.013240 -0.539514
O42   O     O_R   0.559380 0.426560 0.013240 -0.538710
O43   O     O_R   0.440620 0.573440 0.986760 -0.539712
O44   O     O_R   0.755040 0.369590 0.478480 -0.421717
O45   O     O_R   0.244960 0.630410 0.521520 -0.420484
O46   O     O_R   0.244960 0.369590 0.521520 -0.421589
O47   O     O_R   0.755040 0.630410 0.478480 -0.420333
O48   O     O_R   0.182050 0.796550 0.624440 -0.423480

loop_
_geom_bond_atom_site_label_1
_geom_bond_atom_site_label_2
_ccdc_geom_bond_type
C1    O6    A    
Cu8   O5    S    
C14   C56   A    
C41   F14   S    
C147  O30   A    
C116  O4    A    
C65   C79   A    
C72   O11   A    
C108  F10   S    
C123  C132  A    
C24   H4    S    
C105  O15   A    
C90   C99   A    
C36   C42   A    
C109  F11   S    
C8    C43   A    
C52   H36   S    
C121  C130  A    
C9    C14   A    
C112  C121  A    
C25   C43   A    
C61   O10   A    
Cu7   O4    S    
Cu3   O39   S    
C85   H18   S    
C11   C18   A    
C49   H12   S    
C83   O7    A    
C50   H23   S    
C59   C130  S    
C99   C108  A    
C11   C19   A    
C33   C39   A    
C30   C141  S    
Cu2   Cu12  S    
C145  O26   A    
C106  C114  A    
C69   F18   S    
Cu10  O46   S    
C6    C98   S    
Cu12  O35   S    
C2    C49   A    
Cu9   O24   S    
C29   C51   A    
C42   F15   S    
C128  C136  A    
C16   C35   A    
C63   C77   A    
C74   F3    S    
C90   C134  A    
C34   C145  S    
C70   F19   S    
Cu7   O13   S    
C58   C129  S    
C87   C131  A    
C123  H30   S    
Cu6   O20   S    
C68   F17   S    
C140  O20   A    
C144  O25   A    
C31   C40   A    
C145  O23   A    
C84   H11   S    
C13   C18   A    
C2    H2    S    
C20   C138  A    
C37   C42   A    
C71   C80   A    
C82   H13   S    
C148  O38   A    
C26   C45   A    
C85   C129  A    
Cu8   O44   S    
C85   C93   A    
Cu4   O37   S    
C26   C34   A    
C22   C44   A    
C113  C122  A    
C83   O13   A    
C10   C20   A    
C57   H8    S    
C6    O31   A    
C29   C38   A    
C61   C115  S    
Cu12  O43   S    
C64   C73   A    
C56   H7    S    
Cu5   O12   S    
C7    O43   A    
Cu8   O22   S    
C78   H17   S    
C75   F4    S    
C91   C100  A    
C39   F1    S    
C21   C30   A    
C18   C20   A    
C88   C97   A    
C127  O3    A    
C86   H19   S    
Cu10  O16   S    
C119  C128  A    
C24   C51   A    
C89   H22   S    
C105  C111  S    
Cu3   Cu4   S    
C138  H40   S    
C100  C109  A    
C8    C16   A    
C21   C43   A    
C139  O44   A    
Cu7   Cu10  S    
C5    O41   A    
C97   C147  S    
Cu12  O31   S    
C12   C57   A    
C69   C78   A    
C92   C136  A    
C34   C41   A    
Cu1   O1    S    
C4    O33   A    
C74   C82   A    
C60   C131  S    
C73   C81   A    
Cu4   O29   S    
C91   H25   S    
C125  H32   S    
C95   C103  A    
C109  C118  A    
C54   H38   S    
C22   C53   A    
C90   H24   S    
C53   H37   S    
C66   C78   A    
C54   C56   A    
C140  O47   A    
C17   C24   A    
C89   C133  A    
C22   C31   A    
Cu5   O19   S    
C146  O29   A    
C139  O19   A    
C120  C129  A    
C64   C134  S    
C62   C132  S    
C96   C104  A    
Cu11  O17   S    
C32   C139  S    
C58   C81   A    
C33   C137  S    
C28   C50   A    
C94   O14   A    
Cu2   O33   S    
C55   H39   S    
C93   C148  S    
C128  H35   S    
C13   H3    S    
C101  C110  A    
C142  O22   A    
C144  O34   A    
C148  O27   A    
C61   O5    A    
C65   C74   A    
C104  C113  A    
C29   C45   A    
C103  C112  A    
C105  O48   A    
C106  F8    S    
C71   F20   S    
C147  O37   A    
C77   H14   S    
Cu11  O26   S    
C79   H16   S    
C73   F2    S    
C126  H33   S    
C1    O9    A    
C59   C68   A    
C58   C67   A    
C59   C80   A    
C142  O12   A    
C12   C15   A    
C120  H27   S    
C67   F16   S    
C35   H5    S    
C81   H9    S    
C87   C96   A    
C116  O16   A    
C10   C45   A    
C46   C53   A    
Cu1   O18   S    
C64   C76   A    
C122  H29   S    
C91   C135  A    
C6    O42   A    
Cu12  O40   S    
C1    C117  S    
Cu11  O8    S    
C46   H6    S    
Cu5   Cu8   S    
C102  C111  A    
C107  C115  A    
C65   C135  S    
C7    C99   S    
Cu9   O6    S    
C38   C41   A    
C27   C49   A    
C66   C136  S    
C114  C123  A    
C124  C133  A    
C28   C47   A    
Cu10  O25   S    
Cu2   O42   S    
C126  C135  A    
C127  O17   A    
C102  F5    S    
C55   C57   A    
C137  O45   A    
C88   H21   S    
C14   C16   A    
Cu5   O10   S    
Cu6   O3    S    
C3    O28   A    
C97   C106  A    
C17   C19   A    
Cu7   O21   S    
C122  C131  A    
C40   F12   S    
C96   C146  S    
C87   H20   S    
C51   H34   S    
C23   C54   A    
C107  F9    S    
C110  F13   S    
C27   C47   A    
C68   C77   A    
C114  C116  S    
Cu6   O23   S    
C9    C44   A    
C115  C124  A    
C37   C143  S    
C146  O36   A    
C70   C79   A    
C137  O18   A    
C93   C102  A    
C80   H10   S    
C108  C117  A    
C86   C130  A    
C25   C55   A    
C76   H15   S    
C63   C71   A    
C110  C119  A    
C143  O1    A    
Cu8   O14   S    
C62   C70   A    
Cu2   O32   S    
C92   C101  A    
C113  C127  S    
C124  H31   S    
C26   C48   A    
C27   C36   A    
Cu9   O45   S    
C63   C133  S    
C7    O32   A    
C11   C47   A    
Cu1   O48   S    
C5    C101  S    
C48   C138  A    
C89   C98   A    
Cu1   O9    S    
C23   C32   A    
C5    O35   A    
C4    C100  S    
C9    C15   A    
C28   C37   A    
Cu6   Cu11  S    
C118  C126  A    
C125  C134  A    
C141  O46   A    
C104  F7    S    
Cu3   O27   S    
C60   C84   A    
C48   H1    S    
C117  C125  A    
C60   C69   A    
C3    O39   A    
C66   C75   A    
C72   C119  S    
C94   C112  S    
Cu7   O34   S    
C121  H28   S    
C30   C39   A    
C38   C142  S    
C83   C118  S    
C32   C40   A    
C62   C82   A    
C75   C84   A    
C141  O21   A    
Cu4   O28   S    
C92   H26   S    
C86   C95   A    
C98   C107  A    
Cu2   O41   S    
C13   C50   A    
Cu4   O38   S    
Cu3   O30   S    
Cu5   O2    S    
Cu9   O15   S    
C103  F6    S    
C4    O40   A    
C72   O8    A    
Cu6   O11   S    
C35   C52   A    
C94   O2    A    
C88   C132  A    
C143  O24   A    
C111  C120  A    
C3    C95   S    
C67   C76   A    
C10   C17   A    
C15   C46   A    
Cu1   Cu9   S    
C31   C140  S    
C36   C144  S    
Cu11  O47   S    
Cu10  O7    S    
C21   C52   A    
C8    C12   A    
C2    C19   A    
C25   C33   A    
Cu3   O36   S    
C23   C44   A    
