data_mof_unit_34813.cif
_audit_creation_date              2012-12-10T18:48:22-0500
_audit_creation_method            fapswitch 2.2
_symmetry_space_group_name_H-M    P1
_symmetry_Int_Tables_number       1
_space_group_crystal_system       triclinic
_cell_length_a                    10.610468
_cell_length_b                    9.862452
_cell_length_c                    11.541957
_cell_angle_alpha                 90.051005
_cell_angle_beta                  89.750751
_cell_angle_gamma                 88.98687
_cell_volume                      1207.60995111

loop_
_atom_site_label
_atom_site_type_symbol
_atom_type_description
_atom_site_fract_x
_atom_site_fract_y
_atom_site_fract_z
_atom_type_partial_charge
C1    C     C_R   0.260460 0.501395 0.499874 0.991976
C2    C     C_R   0.934428 0.485368 0.606356 0.106833
C3    C     C_R   0.934855 0.506097 0.393202 0.108628
C4    C     C_R   0.065145 0.493905 0.606801 0.108625
C5    C     C_R   0.872052 0.494489 0.499747 -0.152211
C6    C     C_R   0.127948 0.505511 0.500254 -0.152213
C7    C     C_R   0.420410 0.073455 0.571058 -0.061810
C8    C     C_R   0.579590 0.926545 0.428942 -0.061812
C9    C     C_R   0.579604 0.070283 0.428961 -0.073209
C10   C     C_R   0.420395 0.929717 0.571038 -0.073209
C11   C     C_3   0.163952 0.662260 0.253319 -0.785760
C12   C     C_R   0.739540 0.498605 0.500127 0.991978
C13   C     C_3   0.836053 0.337741 0.746684 -0.785764
C14   C     C_3   0.835095 0.382766 0.238191 -0.811297
C15   C     C_3   0.164896 0.617271 0.761798 -0.811271
C16   C     C_R   0.499877 0.499963 0.281876 0.941575
C17   C     C_R   0.500122 0.500037 0.718124 0.941575
C18   C     C_1   0.499760 0.499918 0.161464 -0.184914
C19   C     C_1   0.500236 0.500082 0.838536 -0.184911
C20   C     C_1   0.499870 0.499962 0.059310 -0.017071
C21   C     C_1   0.500124 0.500038 0.940690 -0.017069
C22   C     C_R   0.065572 0.514631 0.393646 0.106833
H1    H     H_    0.102412 0.467579 0.220843 0.235933
H2    H     H_    0.922491 0.326605 0.212597 0.231649
H3    H     H_    0.775880 0.398145 0.160073 0.240314
H4    H     H_    0.781652 0.320851 0.300981 0.259300
H5    H     H_    0.100099 0.420662 0.773019 0.236031
H6    H     H_    0.077494 0.673426 0.787385 0.231648
H7    H     H_    0.218334 0.679181 0.698998 0.259295
H8    H     H_    0.224116 0.601913 0.839919 0.240308
H9    H     H_    0.356716 0.129040 0.627947 0.132117
H10   H     H_    0.643283 0.870960 0.372053 0.132118
H11   H     H_    0.643275 0.123295 0.372083 0.121992
H12   H     H_    0.076113 0.719072 0.231087 0.224182
H13   H     H_    0.356724 0.876705 0.627917 0.121988
H14   H     H_    0.226541 0.659351 0.175973 0.238951
H15   H     H_    0.213041 0.717010 0.323348 0.271783
H16   H     H_    0.897585 0.532426 0.779157 0.235930
H17   H     H_    0.923895 0.280936 0.768918 0.224186
H18   H     H_    0.786967 0.282986 0.676654 0.271781
H19   H     H_    0.773463 0.340648 0.824029 0.238953
H20   H     H_    0.899900 0.579372 0.226997 0.236035
N1    N     N_R   0.500000 0.857200 0.500000 -0.083149
N2    N     N_R   0.500000 0.142800 0.500000 -0.083149
N3    N     N_2   0.135761 0.525114 0.288260 -0.315739
N4    N     N_2   0.864238 0.474886 0.711741 -0.315741
N5    N     N_2   0.865238 0.513060 0.287682 -0.313733
N6    N     N_2   0.134761 0.486963 0.712324 -0.313732
O1    O     O_R   0.316770 0.614620 0.499990 -0.638697
O2    O     O_R   0.683230 0.385380 0.500010 -0.638695
O3    O     O_R   0.683230 0.614620 0.500010 -0.618751
O4    O     O_R   0.316770 0.385380 0.499990 -0.618754
O5    O     O_R   0.500020 0.614670 0.334450 -0.615598
O6    O     O_R   0.499980 0.385330 0.665550 -0.615599
O7    O     O_R   0.499980 0.614670 0.665550 -0.617659
O8    O     O_R   0.500020 0.385330 0.334450 -0.617661
Zn1   Zn    Zn3+2 0.500000 0.653120 0.500000 0.948333
Zn2   Zn    Zn3+2 0.500000 0.346880 0.500000 0.948333

loop_
_geom_bond_atom_site_label_1
_geom_bond_atom_site_label_2
_ccdc_geom_bond_type
H5    N6    S    
C7    C10   A    
C2    C4    A    
C16   O8    A    
C10   H13   S    
O3    Zn1   S    
C3    N5    S    
C17   O7    A    
C12   O2    A    
C8    N1    A    
C22   N3    S    
C13   H19   S    
O2    Zn2   S    
C7    N2    A    
C14   H4    S    
C9    H11   S    
C13   H18   S    
C15   H6    S    
C14   N5    S    
O4    Zn2   S    
C15   N6    S    
C15   H8    S    
C11   N3    S    
H1    N3    S    
C4    C6    A    
C11   H14   S    
C17   C19   S    
O8    Zn2   S    
C15   H7    S    
C18   C20   T    
H20   N5    S    
O7    Zn1   S    
C14   H3    S    
O6    Zn2   S    
C13   N4    S    
C1    O4    A    
H16   N4    S    
C2    C5    A    
C7    H9    S    
N1    Zn1   S    
C1    C6    S    
C8    H10   S    
C3    C5    A    
C12   O3    A    
O1    Zn1   S    
C20   C21   S    
C5    C12   S    
C16   C18   S    
C4    N6    S    
C14   H2    S    
C11   H15   S    
O5    Zn1   S    
C16   O5    A    
C3    C22   A    
C19   C21   T    
C10   N1    A    
C1    O1    A    
C17   O6    A    
C11   H12   S    
C2    N4    S    
C13   H17   S    
N2    Zn2   S    
C8    C9    A    
C9    N2    A    
C6    C22   A    
