data_mof_unit_59411.cif
_audit_creation_date              2012-12-10T18:47:06-0500
_audit_creation_method            fapswitch 2.2
_symmetry_space_group_name_H-M    P1
_symmetry_Int_Tables_number       1
_space_group_crystal_system       triclinic
_cell_length_a                    10.629834
_cell_length_b                    10.080571
_cell_length_c                    14.857695
_cell_angle_alpha                 89.581739
_cell_angle_beta                  92.810618
_cell_angle_gamma                 88.817315
_cell_volume                      1589.76429117

loop_
_atom_site_label
_atom_site_type_symbol
_atom_type_description
_atom_site_fract_x
_atom_site_fract_y
_atom_site_fract_z
_atom_type_partial_charge
C1    C     C_R   0.260846 0.501196 0.500550 0.883253
C2    C     C_R   0.128238 0.503425 0.502443 -0.007607
C3    C     C_R   0.583601 0.067278 0.554646 0.175942
C4    C     C_R   0.439143 0.932933 0.431860 0.170934
C5    C     C_R   0.420436 0.073213 0.442593 0.123921
C6    C     C_R   0.567027 0.927184 0.565221 0.109465
C7    C     C_R   0.498061 0.500445 0.327801 0.934751
C8    C     C_R   0.502071 0.499630 0.672240 0.929701
C9    C     C_R   0.619653 0.495901 0.817354 0.346621
C10   C     C_R   0.379956 0.509438 0.182991 0.353298
C11   C     C_R   0.504948 0.498920 0.767702 -0.172503
C12   C     C_R   0.739251 0.499056 0.500238 0.882157
C13   C     C_R   0.494806 0.501724 0.232367 -0.160467
C14   C     C_R   0.390691 0.507771 0.807693 -0.221109
C15   C     C_R   0.608864 0.491961 0.192306 -0.220015
C16   C     C_R   0.387418 0.517319 0.900460 -0.009321
C17   C     C_R   0.612100 0.485003 0.099507 -0.007812
C18   C     C_R   0.501452 0.500864 0.953109 -0.072225
C19   C     C_R   0.498006 0.502747 0.046985 -0.067642
C20   C     C_R   0.618669 0.482288 0.911504 -0.094648
C21   C     C_R   0.380824 0.522494 0.088632 -0.099643
C22   C     C_R   0.273238 0.546263 0.940786 0.324544
C23   C     C_R   0.270664 0.554517 0.034472 0.393131
C24   C     C_R   0.726412 0.457047 0.058987 0.321371
C25   C     C_3   0.708291 0.122031 0.588888 -0.409986
C26   C     C_3   0.703362 0.188610 0.680793 -0.692948
C27   C     C_3   0.428544 0.883186 0.335788 -0.392838
C28   C     C_3   0.304546 0.815513 0.311442 -0.702914
C29   C     C_3   0.310489 0.142194 0.391253 -0.315548
C30   C     C_3   0.190018 0.126221 0.441803 -0.812913
C31   C     C_3   0.621691 0.858678 0.650081 -0.318940
C32   C     C_3   0.524611 0.859073 0.722895 -0.731522
C33   C     C_R   0.729001 0.450495 0.965296 0.399075
C34   C     C_R   0.070684 0.408836 0.554607 -0.168364
C35   C     C_R   0.929706 0.595167 0.449517 -0.156028
C36   C     C_R   0.941674 0.405966 0.553079 -0.131971
C37   C     C_R   0.058745 0.597877 0.450931 -0.111964
C38   C     C_R   0.872068 0.498458 0.500031 -0.012614
Cl1   Cl    Cl    0.757510 0.534892 0.760469 -0.582065
Cl2   Cl    Cl    0.241221 0.480468 0.241612 -0.577562
Cl3   Cl    Cl    0.132758 0.580221 0.874193 -0.439498
Cl4   Cl    Cl    0.867212 0.422772 0.125154 -0.440056
Cl5   Cl    Cl    0.133570 0.626438 0.078896 -0.391480
Cl6   Cl    Cl    0.865908 0.379638 0.919890 -0.389127
H1    H     H_    0.305349 0.513027 0.764728 0.194435
H2    H     H_    0.782280 0.042650 0.592692 0.165167
H3    H     H_    0.748813 0.183192 0.537191 0.227423
H4    H     H_    0.304055 0.783120 0.240188 0.270926
H5    H     H_    0.292695 0.727830 0.354416 0.288698
H6    H     H_    0.223125 0.884223 0.318885 0.236486
H7    H     H_    0.438488 0.966024 0.287187 0.178372
H8    H     H_    0.512631 0.823362 0.320806 0.234544
H9    H     H_    0.204983 0.156547 0.513055 0.262973
H10   H     H_    0.112982 0.188464 0.409282 0.272592
H11   H     H_    0.160957 0.021097 0.440975 0.242753
H12   H     H_    0.694150 0.484679 0.235240 0.193247
H13   H     H_    0.327823 0.247169 0.379458 0.280776
H14   H     H_    0.293279 0.104007 0.322336 0.201894
H15   H     H_    0.431239 0.825979 0.696018 0.271829
H16   H     H_    0.557972 0.792987 0.779615 0.264778
H17   H     H_    0.512076 0.960930 0.749372 0.233188
H18   H     H_    0.659564 0.759489 0.634745 0.271054
H19   H     H_    0.705184 0.906966 0.681050 0.202743
H20   H     H_    0.125425 0.338670 0.596864 0.155457
H21   H     H_    0.875004 0.667225 0.408679 0.156246
H22   H     H_    0.897086 0.334296 0.594632 0.163666
H23   H     H_    0.103600 0.671453 0.410858 0.155798
H24   H     H_    0.783443 0.152452 0.725901 0.252609
H25   H     H_    0.712791 0.296784 0.672822 0.284579
H26   H     H_    0.614414 0.168040 0.714018 0.252125
N1    N     N_R   0.500000 0.857200 0.500000 -0.132358
N2    N     N_R   0.500000 0.142800 0.500000 -0.130300
O1    O     O_R   0.316770 0.614620 0.499990 -0.625034
O2    O     O_R   0.683230 0.385380 0.500010 -0.635977
O3    O     O_R   0.683230 0.614620 0.500010 -0.630803
O4    O     O_R   0.316770 0.385380 0.499990 -0.625461
O5    O     O_R   0.499980 0.614680 0.367850 -0.629988
O6    O     O_R   0.500020 0.385320 0.632150 -0.610426
O7    O     O_R   0.500020 0.614680 0.632150 -0.611478
O8    O     O_R   0.499980 0.385320 0.367850 -0.619508
Zn1   Zn    Zn3+2 0.500000 0.653120 0.500000 0.947295
Zn2   Zn    Zn3+2 0.500000 0.346880 0.500000 0.952844

loop_
_geom_bond_atom_site_label_1
_geom_bond_atom_site_label_2
_ccdc_geom_bond_type
C12   O2    A    
C24   Cl4   S    
C3    C6    A    
C30   H10   S    
C35   C37   A    
C32   H17   S    
C18   C19   A    
C5    N2    A    
C11   C14   A    
C36   H22   S    
C22   Cl3   S    
C35   H21   S    
C9    Cl1   S    
C23   Cl5   S    
C10   Cl2   S    
C1    C2    S    
C28   H6    S    
C21   C23   A    
C8    O7    A    
C25   H3    S    
C34   C36   A    
C7    O5    A    
C2    C34   A    
C6    C31   S    
C8    O6    A    
C33   Cl6   S    
C31   H18   S    
O2    Zn2   S    
O1    Zn1   S    
C27   H7    S    
C14   H1    S    
C5    C29   S    
C10   C21   A    
C6    N1    A    
C30   H9    S    
C17   C24   A    
C31   H19   S    
C3    C25   S    
C35   C38   A    
O8    Zn2   S    
O4    Zn2   S    
O7    Zn1   S    
O3    Zn1   S    
C25   C26   S    
C29   C30   S    
C28   H5    S    
O6    Zn2   S    
C9    C20   A    
C31   C32   S    
O5    Zn1   S    
C34   H20   S    
C9    C11   A    
C20   C33   A    
C29   H13   S    
C13   C15   A    
C26   H26   S    
C14   C16   A    
C32   H16   S    
C4    C27   S    
C27   H8    S    
C15   C17   A    
C28   H4    S    
C16   C22   A    
C19   C21   A    
C1    O4    A    
C4    C5    A    
C10   C13   A    
C30   H11   S    
C24   C33   A    
C1    O1    A    
C15   H12   S    
C36   C38   A    
C3    N2    A    
C26   H24   S    
C2    C37   A    
C8    C11   S    
C37   H23   S    
C17   C19   A    
C18   C20   A    
C12   C38   S    
C7    C13   S    
C29   H14   S    
C16   C18   A    
C12   O3    A    
C27   C28   S    
C26   H25   S    
C22   C23   A    
C32   H15   S    
C25   H2    S    
C4    N1    A    
N2    Zn2   S    
C7    O8    A    
N1    Zn1   S    
