data_mof_unit_17836.cif
_audit_creation_date              2013-03-05T16:47:42-0500
_audit_creation_method            fapswitch 2.2
_symmetry_space_group_name_H-M    P1
_symmetry_Int_Tables_number       1
_space_group_crystal_system       triclinic
_cell_length_a                    10.97397
_cell_length_b                    13.126868
_cell_length_c                    11.813343
_cell_angle_alpha                 98.203766
_cell_angle_beta                  95.811653
_cell_angle_gamma                 94.318694
_cell_volume                      1668.71046011

loop_
_atom_site_label
_atom_site_type_symbol
_atom_site_description
_atom_site_fract_x
_atom_site_fract_y
_atom_site_fract_z
_atom_type_partial_charge
O1    O     O_R   0.506570 0.354460 0.582000 -0.587519
O2    O     O_R   0.493430 0.645540 0.418000 -0.587521
O3    O     O_R   0.490940 0.341410 0.386200 -0.556704
O4    O     O_R   0.509060 0.658590 0.613800 -0.556686
C1    C     C_R   0.502549 0.300093 0.480070 0.876751
C2    C     C_R   0.497451 0.699907 0.519930 0.876754
O5    O     O_R   0.327460 0.506540 0.597900 -0.528372
O6    O     O_R   0.672540 0.493460 0.402100 -0.528375
O7    O     O_R   0.311830 0.493480 0.402100 -0.561600
O8    O     O_R   0.688170 0.506520 0.597900 -0.561593
C3    C     C_R   0.261845 0.495715 0.497783 0.858167
C4    C     C_R   0.738155 0.504285 0.502216 0.858173
Cu1   Cu    Cu3+1 0.509250 0.507730 0.615930 1.063148
Cu2   Cu    Cu3+1 0.490750 0.492270 0.384070 1.063142
H1    H     H_    0.211866 0.539840 0.988451 0.218777
H2    H     H_    0.788132 0.460167 0.011550 0.218777
C5    C     C_R   0.208892 0.620872 0.157988 -0.166054
C6    C     C_R   0.791108 0.379133 0.842014 -0.166055
H3    H     H_    0.263542 0.687461 0.139453 0.201662
H4    H     H_    0.736458 0.312544 0.860550 0.201658
C7    C     C_R   0.168815 0.620429 0.266756 0.022609
C8    C     C_R   0.831186 0.379574 0.733246 0.022607
C9    C     C_R   0.099558 0.530976 0.288984 0.026370
C10   C     C_R   0.900441 0.469027 0.711017 0.026370
C11   C     C_R   0.064732 0.446459 0.199002 -0.009756
C12   C     C_R   0.935266 0.553545 0.800997 -0.009763
C13   C     C_R   0.106520 0.449364 0.089825 -0.053385
C14   C     C_R   0.893478 0.550642 0.910175 -0.053394
C15   C     C_R   0.178414 0.536729 0.071118 -0.233115
C16   C     C_R   0.821584 0.463276 0.928883 -0.233116
C17   C     C_R   0.929795 0.538125 0.411672 -0.057312
C18   C     C_R   0.070205 0.461877 0.588329 -0.057309
C19   C     C_R   0.873165 0.507914 0.505394 -0.110736
C20   C     C_R   0.126835 0.492087 0.494607 -0.110731
C21   C     C_R   0.945803 0.474718 0.596904 -0.022074
C22   C     C_R   0.054196 0.525285 0.403097 -0.022073
C23   C     C_R   0.487538 0.811856 0.529206 -0.286283
C24   C     C_R   0.512462 0.188144 0.470795 -0.286281
C25   C     C_R   0.566885 0.027780 0.368269 -0.110292
C26   C     C_R   0.433115 0.972220 0.631732 -0.110296
C27   C     C_R   0.563576 0.134382 0.377061 0.258664
C28   C     C_R   0.436423 0.865618 0.622939 0.258668
C29   C     C_R   0.471571 0.133818 0.556825 0.279682
C30   C     C_R   0.528428 0.866182 0.443175 0.279680
C31   C     C_R   0.476577 0.026755 0.547703 -0.057577
C32   C     C_R   0.523424 0.973245 0.452298 -0.057574
H5    H     H_    0.607716 0.988550 0.296518 0.251185
H6    H     H_    0.392283 0.011450 0.703483 0.251185
N1    N     N_R   0.523180 0.519350 0.790130 -0.223645
N2    N     N_R   0.476820 0.480650 0.209870 -0.223651
C33   C     C_R   0.423345 0.374998 0.020316 0.165695
C34   C     C_R   0.576651 0.625003 0.979684 0.165686
C35   C     C_R   0.420500 0.391436 0.141499 0.087645
C36   C     C_R   0.579499 0.608564 0.858502 0.087657
C37   C     C_R   0.529610 0.556037 0.157153 0.135765
C38   C     C_R   0.470389 0.443964 0.842847 0.135761
C39   C     C_R   0.526751 0.545885 0.034666 -0.105880
C40   C     C_R   0.473246 0.454115 0.965334 -0.105883
H7    H     H_    0.423910 0.376851 0.788619 0.233220
H8    H     H_    0.576090 0.623149 0.211381 0.233220
C41   C     C_2   0.648179 0.690459 0.810181 0.515850
H9    H     H_    0.632024 0.770754 0.833228 0.135203
O9    O     O_2   0.726924 0.670468 0.747174 -0.566218
C42   C     C_2   0.351824 0.309541 0.189821 0.515880
H10   H     H_    0.367998 0.229249 0.166793 0.135198
O10   O     O_2   0.273064 0.329530 0.252813 -0.566225
N3    N     N_R   0.376055 0.276989 0.954408 0.126671
O11   O     O_R   0.428007 0.193755 0.971487 -0.252469
O12   O     O_R   0.278832 0.269936 0.880215 -0.301081
N4    N     N_R   0.623936 0.723013 0.045592 0.126662
O13   O     O_R   0.571974 0.806243 0.028517 -0.252466
O14   O     O_R   0.721164 0.730070 0.119781 -0.301079
C43   C     C_2   0.200739 0.715376 0.352759 0.378236
H11   H     H_    0.262966 0.777279 0.333575 0.105584
O15   O     O_2   0.157208 0.727272 0.444246 -0.521962
C44   C     C_2   0.799261 0.284626 0.647245 0.378237
H12   H     H_    0.737035 0.222724 0.666429 0.105582
O16   O     O_2   0.842792 0.272730 0.555757 -0.521961
C45   C     C_2   0.982709 0.357218 0.220693 0.584797
H13   H     H_    0.995166 0.328582 0.302458 0.094004
O17   O     O_2   0.896649 0.318690 0.150146 -0.450799
C46   C     C_2   0.017288 0.642786 0.779305 0.584789
H14   H     H_    0.004831 0.671421 0.697539 0.094003
O18   O     O_2   0.103347 0.681316 0.849852 -0.450794
C47   C     C_2   0.080366 0.362268 0.993702 0.483321
H15   H     H_    0.075893 0.377470 0.905841 0.108113
O19   O     O_2   0.068445 0.272713 0.010826 -0.442670
C48   C     C_2   0.919632 0.637739 0.006297 0.483312
H16   H     H_    0.924106 0.622538 0.094159 0.108120
O20   O     O_2   0.931551 0.727294 0.989171 -0.442677
C49   C     C_2   0.862761 0.590085 0.324273 0.392835
H17   H     H_    0.865882 0.673619 0.336624 0.155454
O21   O     O_2   0.807496 0.539570 0.237007 -0.549677
C50   C     C_2   0.137239 0.409919 0.675729 0.392837
H18   H     H_    0.134115 0.326386 0.663383 0.155456
O22   O     O_2   0.192506 0.460437 0.762995 -0.549672
N5    N     N_R   0.572886 0.812480 0.344479 0.117190
O23   O     O_R   0.687313 0.792470 0.349202 -0.347985
O24   O     O_R   0.504262 0.799103 0.246271 -0.349259
N6    N     N_R   0.427112 0.187520 0.655521 0.117191
O25   O     O_R   0.312687 0.207537 0.650792 -0.347989
O26   O     O_R   0.495731 0.200893 0.753731 -0.349257
N7    N     N_R   0.381107 0.813247 0.706520 0.138961
O27   O     O_R   0.395146 0.854793 0.814359 -0.275850
O28   O     O_R   0.298883 0.735248 0.672840 -0.287284
N8    N     N_R   0.618891 0.186753 0.293480 0.138956
O29   O     O_R   0.604846 0.145209 0.185640 -0.275859
O30   O     O_R   0.701119 0.264750 0.327159 -0.287284

loop_
_geom_bond_atom_site_label_1
_geom_bond_atom_site_label_2
_geom_bond_distance
_ccdc_geom_bond_type
C18   C50   1.481583 S    
C13   C15   1.399252 A    
C5    C15   1.391525 A    
C43   H11   1.085489 S    
C8    C44   1.486313 S    
C28   N7    1.438143 S    
N5    O23   1.299470 A    
C25   C27   1.391841 A    
C31   C32   1.404898 A    
O5    C3    1.304468 A    
O1    C1    1.304015 A    
C44   O16   1.219956 D    
C35   C42   1.479790 S    
N8    O29   1.301309 A    
H2    C16   1.082516 S    
N1    C36   1.387729 A    
C7    C43   1.486313 S    
C23   C28   1.414643 A    
C13   C47   1.480885 S    
O4    Cu1   1.984222 S    
C41   O9    1.215864 D    
C46   O18   1.220915 D    
C5    H3    1.083490 S    
C30   C32   1.399772 A    
C14   C48   1.480884 S    
C17   C19   1.413096 A    
N4    O13   1.301133 A    
C6    C16   1.391523 A    
C20   C22   1.416402 A    
C41   H9    1.082836 S    
C26   C28   1.391843 A    
C12   C46   1.490547 S    
C11   C45   1.490547 S    
Cu1   Cu2   2.703200 S    
C43   O15   1.219956 D    
O2    C2    1.304015 A    
N5    O24   1.299595 A    
C34   C36   1.420856 A    
H1    C15   1.082516 S    
C47   O19   1.220690 D    
C26   C31   1.404489 A    
C10   C21   1.493222 S    
C27   N8    1.438142 S    
N3    O11   1.301133 A    
N2    C35   1.387726 A    
C18   C21   1.400060 A    
C1    C24   1.471026 S    
C44   H12   1.085490 S    
C24   C27   1.414642 A    
O4    C2    1.301354 A    
C49   H17   1.082826 S    
C45   O17   1.220916 D    
C47   H15   1.081576 S    
C5    C7    1.400236 A    
C33   C35   1.420856 A    
C18   C20   1.413099 A    
O7    Cu2   1.997305 S    
C49   O21   1.219850 D    
C29   C31   1.399773 A    
C30   N5    1.423657 S    
O6    C4    1.304468 A    
N6    O26   1.299596 A    
C2    C23   1.471027 S    
N7    O28   1.301047 A    
C33   C40   1.406864 A    
C33   N3    1.436138 S    
C29   N6    1.423657 S    
C50   O22   1.219851 D    
O7    C3    1.303053 A    
O3    Cu2   1.984221 S    
O8    C4    1.303052 A    
C25   C32   1.404490 A    
Cu1   N1    2.030942 S    
C48   O20   1.220690 D    
C46   H14   1.085181 S    
C17   C49   1.481584 S    
C37   C39   1.430955 A    
C8    C10   1.421063 A    
O1    Cu1   1.991993 S    
C25   H5    1.082368 S    
C26   H6    1.082367 S    
O6    Cu2   1.983374 S    
C6    C8    1.400236 A    
C3    C20   1.475266 S    
C10   C12   1.422730 A    
O3    C1    1.301356 A    
O8    Cu1   1.997305 S    
C36   C41   1.479797 S    
C11   C13   1.416470 A    
N1    C38   1.365775 A    
C12   C14   1.416470 A    
N2    C37   1.365775 A    
C38   H7    1.073200 S    
C42   H10   1.082829 S    
C23   C30   1.412024 A    
C7    C9    1.421062 A    
C24   C29   1.412025 A    
C39   C40   1.407585 A    
Cu2   N2    2.030941 S    
N8    O30   1.301048 A    
C14   C16   1.399252 A    
N6    O25   1.299470 A    
C19   C21   1.416401 A    
C38   C40   1.430957 A    
C6    H4    1.083491 S    
C9    C11   1.422729 A    
C50   H18   1.082827 S    
O2    Cu2   1.991994 S    
C34   N4    1.436136 S    
C34   C39   1.406862 A    
C45   H13   1.085180 S    
O5    Cu1   1.983374 S    
C48   H16   1.081578 S    
C9    C22   1.493221 S    
N7    O27   1.301303 A    
C17   C22   1.400061 A    
N4    O14   1.299109 A    
N3    O12   1.299108 A    
C4    C19   1.475265 S    
C37   H8    1.073201 S    
C42   O10   1.215860 D    
