data_mof_unit_24915.cif
_audit_creation_date              2012-12-10T18:03:32-0500
_audit_creation_method            fapswitch 2.2
_symmetry_space_group_name_H-M    P1
_symmetry_Int_Tables_number       1
_space_group_crystal_system       triclinic
_cell_length_a                    10.843767
_cell_length_b                    9.587017
_cell_length_c                    19.380602
_cell_angle_alpha                 89.815758
_cell_angle_beta                  91.945016
_cell_angle_gamma                 90.066848
_cell_volume                      2013.62299431

loop_
_atom_site_label
_atom_site_type_symbol
_atom_type_description
_atom_site_fract_x
_atom_site_fract_y
_atom_site_fract_z
_atom_type_partial_charge
C1    C     C_R   0.871673 0.501760 0.498655 -0.008573
C2    C     C_R   0.128407 0.502186 0.501643 -0.012586
C3    C     C_R   0.414094 0.464176 0.964810 -0.161995
C4    C     C_R   0.640940 0.500673 0.035777 -0.228544
C5    C     C_R   0.419591 0.463103 0.036663 -0.153602
C6    C     C_R   0.635554 0.501297 0.963866 -0.147694
C7    C     C_R   0.532753 0.482830 0.072287 0.155546
C8    C     C_R   0.521934 0.484092 0.928141 0.158123
C9    C     C_R   0.262308 0.500365 0.500769 0.779514
C10   C     C_R   0.737712 0.500369 0.499220 0.774147
C11   C     C_R   0.503782 0.499584 0.367669 0.817990
C12   C     C_R   0.500624 0.499448 0.632120 0.815907
C13   C     C_R   0.063989 0.377878 0.511213 -0.211779
C14   C     C_R   0.935749 0.627906 0.491607 -0.181653
C15   C     C_R   0.936756 0.376793 0.506486 -0.199482
C16   C     C_R   0.063733 0.627858 0.492076 -0.179492
C17   C     C_R   0.575900 0.394463 0.742223 -0.254795
C18   C     C_R   0.543357 0.616737 0.255101 -0.225861
C19   C     C_R   0.503556 0.368532 0.256768 -0.250446
C20   C     C_R   0.438084 0.592715 0.745007 -0.294878
C21   C     C_R   0.581260 0.388769 0.814302 0.220616
C22   C     C_R   0.548994 0.614627 0.183242 0.232625
C23   C     C_R   0.517289 0.362369 0.185363 0.237966
C24   C     C_R   0.443958 0.590773 0.817227 0.237807
C25   C     C_R   0.515691 0.487984 0.852246 0.021922
C26   C     C_R   0.536522 0.486390 0.148020 -0.011714
C27   C     C_R   0.423573 0.075190 0.455286 0.387371
C28   C     C_R   0.566684 0.925579 0.549334 0.381385
C29   C     C_R   0.574560 0.075463 0.545862 0.397141
C30   C     C_R   0.430089 0.925339 0.452020 0.386060
C31   C     C_R   0.505103 0.496319 0.707539 -0.091373
C32   C     C_R   0.515355 0.495811 0.292093 -0.128412
Cu1   Cu    Cu3+1 0.500000 0.640660 0.500000 1.011750
Cu2   Cu    Cu3+1 0.500000 0.359340 0.500000 1.015917
H1    H     H_    0.111549 0.281415 0.522405 0.140090
H2    H     H_    0.887336 0.726066 0.484995 0.150707
H3    H     H_    0.889747 0.278180 0.509183 0.147485
H4    H     H_    0.111647 0.725824 0.485010 0.161267
H5    H     H_    0.627065 0.318782 0.713229 0.183883
H6    H     H_    0.561434 0.713356 0.281792 0.161140
H7    H     H_    0.485740 0.272817 0.284625 0.178569
H8    H     H_    0.381306 0.669776 0.718159 0.139648
H9    H     H_    0.326030 0.449603 0.937710 0.135956
H10   H     H_    0.728851 0.515189 0.063046 0.126877
H11   H     H_    0.335645 0.448777 0.064614 0.128014
H12   H     H_    0.719396 0.517036 0.936008 0.137171
N1    N     N_R   0.500000 0.852070 0.500000 -0.271582
N2    N     N_R   0.500000 0.147930 0.500000 -0.270372
O1    O     O_R   0.319640 0.618740 0.500000 -0.558350
O2    O     O_R   0.680360 0.381260 0.500000 -0.558046
O3    O     O_R   0.680360 0.618740 0.500000 -0.563080
O4    O     O_R   0.319640 0.381260 0.500000 -0.554068
O5    O     O_R   0.500020 0.618830 0.400190 -0.546180
O6    O     O_R   0.499980 0.381170 0.599810 -0.541170
O7    O     O_R   0.499980 0.618830 0.599810 -0.542059
O8    O     O_R   0.500020 0.381170 0.400190 -0.545580
O9    O     O_3   0.343221 0.149800 0.412192 -0.544499
C33   C     C_3   0.219754 0.114018 0.425745 -0.276724
H13   H     H_    0.159857 0.202734 0.409695 0.178932
H14   H     H_    0.205195 0.091139 0.481294 0.123911
H15   H     H_    0.187873 0.023714 0.394406 0.179282
O10   O     O_3   0.626539 0.852974 0.602256 -0.539860
C34   C     C_3   0.567620 0.880491 0.664859 -0.288107
H16   H     H_    0.603441 0.806089 0.704581 0.186217
H17   H     H_    0.465753 0.866537 0.659657 0.146276
H18   H     H_    0.588505 0.986676 0.684593 0.171946
O11   O     O_3   0.646917 0.151641 0.592708 -0.547052
C35   C     C_3   0.770562 0.104873 0.595246 -0.300699
H19   H     H_    0.830151 0.192924 0.612514 0.164697
H20   H     H_    0.802288 0.067920 0.544348 0.133407
H21   H     H_    0.785055 0.022563 0.634904 0.195325
O12   O     O_3   0.358845 0.851252 0.404164 -0.541914
C36   C     C_3   0.390814 0.888167 0.336372 -0.280993
H22   H     H_    0.363466 0.800988 0.301758 0.176832
H23   H     H_    0.491431 0.908169 0.331667 0.134392
H24   H     H_    0.338468 0.980236 0.317090 0.178278
N3    N     N_2   0.651960 0.282332 0.848319 -0.431096
H25   H     H_    0.728946 0.253029 0.822058 0.246120
C37   C     C_3   0.580050 0.163063 0.868928 -0.694769
H26   H     H_    0.641025 0.086558 0.896393 0.226237
H27   H     H_    0.536801 0.112189 0.822671 0.213567
H28   H     H_    0.506999 0.194958 0.904420 0.244413
N4    N     N_2   0.562049 0.743230 0.147263 -0.435068
H29   H     H_    0.618027 0.739027 0.105448 0.253310
C38   C     C_3   0.446083 0.812640 0.131367 -0.703150
H30   H     H_    0.462906 0.911190 0.103142 0.228448
H31   H     H_    0.398613 0.838079 0.179558 0.222942
H32   H     H_    0.385380 0.745460 0.098166 0.231957
N5    N     N_2   0.511660 0.231251 0.151116 -0.430932
H33   H     H_    0.454313 0.159741 0.173755 0.244762
C39   C     C_3   0.631547 0.172627 0.138057 -0.670169
H34   H     H_    0.620524 0.078109 0.105636 0.229116
H35   H     H_    0.679652 0.143475 0.187572 0.219765
H36   H     H_    0.689219 0.248103 0.109902 0.236156
N6    N     N_2   0.378386 0.693135 0.854332 -0.431797
H37   H     H_    0.297880 0.725626 0.829346 0.246907
C40   C     C_3   0.453499 0.809632 0.877646 -0.709262
H38   H     H_    0.396378 0.883347 0.906949 0.230059
H39   H     H_    0.491281 0.865221 0.832613 0.212137
H40   H     H_    0.530793 0.773605 0.912248 0.241472

loop_
_geom_bond_atom_site_label_1
_geom_bond_atom_site_label_2
_ccdc_geom_bond_type
C27   N2    A    
Cu1   O7    S    
C34   H17   S    
C28   N1    A    
Cu2   O8    S    
C36   H22   S    
N6    H37   S    
C40   H38   S    
N3    H25   S    
C3    H9    S    
C7    C26   S    
C28   C29   A    
C13   H1    S    
C14   H2    S    
C10   O3    A    
C33   H14   S    
C17   H5    S    
C23   C26   A    
C2    C13   A    
C18   H6    S    
C15   H3    S    
C29   O11   S    
C20   C24   A    
C35   H19   S    
C23   N5    S    
C1    C15   A    
N5    C39   S    
C2    C16   A    
C11   O5    A    
C33   H15   S    
N3    C37   S    
C34   H18   S    
C27   C30   A    
C8    C25   S    
C36   H23   S    
C9    O4    A    
C4    C7    A    
C19   C32   A    
C40   H39   S    
C38   H31   S    
Cu1   O5    S    
Cu2   O2    S    
C29   N2    A    
O11   C35   S    
C30   N1    A    
C9    O1    A    
C24   C25   A    
C4    C6    A    
C3    C8    A    
C27   O9    S    
C24   N6    S    
C39   H34   S    
C5    C7    A    
C6    C8    A    
C4    H10   S    
C33   H13   S    
C38   H30   S    
C5    H11   S    
C17   C21   A    
C34   H16   S    
C19   C23   A    
O10   C34   S    
C39   H35   S    
C30   O12   S    
N4    H29   S    
Cu1   Cu2   S    
N4    C38   S    
C11   C32   S    
Cu2   O6    S    
C13   C15   A    
C12   C31   S    
C17   C31   A    
C36   H24   S    
C14   C16   A    
Cu2   N2    S    
C10   O2    A    
C40   H40   S    
C37   H27   S    
C38   H32   S    
C21   C25   A    
C6    H12   S    
C18   C22   A    
C1    C10   S    
O12   C36   S    
C3    C5    A    
C37   H28   S    
C20   H8    S    
N6    C40   S    
Cu1   O3    S    
Cu2   O4    S    
C22   N4    S    
C39   H36   S    
O9    C33   S    
C35   H21   S    
Cu1   N1    S    
C12   O7    A    
C37   H26   S    
C18   C32   A    
C35   H20   S    
C22   C26   A    
C21   N3    S    
C1    C14   A    
N5    H33   S    
C2    C9    S    
Cu1   O1    S    
C12   O6    A    
C11   O8    A    
C19   H7    S    
C16   H4    S    
C20   C31   A    
C28   O10   S    
