data_mof_unit_40028.cif
_audit_creation_date              2012-12-11T17:23:17-0500
_audit_creation_method            fapswitch 2.2
_symmetry_space_group_name_H-M    P1
_symmetry_Int_Tables_number       1
_space_group_crystal_system       triclinic
_cell_length_a                    22.404744
_cell_length_b                    7.096708
_cell_length_c                    19.404377
_cell_angle_alpha                 90.000317
_cell_angle_beta                  99.545677
_cell_angle_gamma                 89.999438
_cell_volume                      3042.57462368

loop_
_atom_site_label
_atom_site_type_symbol
_atom_type_description
_atom_site_fract_x
_atom_site_fract_y
_atom_site_fract_z
_atom_type_partial_charge
O1    O     O_R   0.443980 0.494320 0.557430 -0.530082
O2    O     O_R   0.556020 0.994320 0.442570 -0.530084
O3    O     O_R   0.441210 0.822520 0.414610 -0.537994
O4    O     O_R   0.558790 0.322520 0.585390 -0.537995
C1    C     C_R   0.426730 0.655391 0.388765 0.695025
C2    C     C_R   0.573270 0.155391 0.611235 0.695026
O5    O     O_R   0.436920 0.823940 0.555180 -0.534221
O6    O     O_R   0.563080 0.323940 0.444820 -0.534222
O7    O     O_R   0.551700 0.995760 0.584140 -0.534593
O8    O     O_R   0.448300 0.495760 0.415860 -0.534593
C3    C     C_R   0.421631 0.655402 0.574881 0.714280
C4    C     C_R   0.578368 0.155400 0.425119 0.714277
O9    O     O_3   0.537660 0.661290 0.509340 -0.370792
O10   O     O_3   0.462340 0.161290 0.490660 -0.370790
V1    V     V_3+5 0.493010 0.935560 0.498270 1.459189
V2    V     V_3+5 0.506990 0.435560 0.501730 1.459186
C5    C     C_R   0.751910 0.946308 0.207722 -0.170284
C6    C     C_R   0.248082 0.446277 0.792263 -0.170287
H1    H     H_    0.753438 0.821978 0.175669 0.145221
H2    H     H_    0.246546 0.321922 0.824303 0.145213
C7    C     C_R   0.793138 0.093702 0.204391 0.094799
C8    C     C_R   0.206863 0.593694 0.795610 0.094805
C9    C     C_R   0.790488 0.253462 0.246412 -0.145795
C10   C     C_R   0.209523 0.753485 0.753606 -0.145799
H3    H     H_    0.821867 0.368843 0.244690 0.124972
H4    H     H_    0.178154 0.868888 0.755344 0.124975
C11   C     C_R   0.747357 0.265654 0.291170 -0.160818
C12   C     C_R   0.252651 0.765677 0.708845 -0.160817
H5    H     H_    0.746351 0.390207 0.323229 0.149710
H6    H     H_    0.253662 0.890246 0.676796 0.149731
C13   C     C_R   0.705924 0.118741 0.294560 0.088472
C14   C     C_R   0.294077 0.618747 0.705440 0.088472
C15   C     C_R   0.708457 0.958005 0.252310 0.166250
C16   C     C_R   0.291537 0.457989 0.747677 0.166244
C17   C     C_1   0.838180 0.080965 0.158265 -0.039257
C18   C     C_1   0.161821 0.580956 0.841736 -0.039259
C19   C     C_1   0.661320 0.134605 0.341207 0.021975
C20   C     C_1   0.338680 0.634614 0.658793 0.021985
C21   C     C_1   0.623790 0.145717 0.379746 -0.141801
C22   C     C_1   0.376209 0.645724 0.620254 -0.141791
C23   C     C_1   0.876050 0.071444 0.120096 -0.184418
C24   C     C_1   0.123951 0.571438 0.879905 -0.184419
C25   C     C_R   0.632710 0.171721 0.804215 -0.147827
C26   C     C_R   0.367288 0.671767 0.195786 -0.147826
H7    H     H_    0.545474 0.195320 0.739942 0.135214
H8    H     H_    0.454523 0.695363 0.260059 0.135214
H9    H     H_    0.714871 0.164579 0.919316 0.134095
H10   H     H_    0.285125 0.664653 0.080685 0.134095
H11   H     H_    0.614160 0.191557 0.851862 0.129789
H12   H     H_    0.385837 0.691625 0.148140 0.129789
C27   C     C_R   0.615625 0.147971 0.678106 -0.045161
C28   C     C_R   0.384375 0.647974 0.321893 -0.045163
C29   C     C_R   0.910267 0.045694 0.760476 -0.162011
C30   C     C_R   0.089735 0.545662 0.239524 -0.162011
C31   C     C_R   0.873700 0.046428 0.695196 -0.118945
C32   C     C_R   0.126303 0.546380 0.304803 -0.118945
C33   C     C_R   0.811325 0.070957 0.689029 -0.156053
C34   C     C_R   0.188677 0.570921 0.310970 -0.156053
C35   C     C_R   0.783528 0.095968 0.748749 0.078089
C36   C     C_R   0.216473 0.595962 0.251251 0.078089
C37   C     C_R   0.821589 0.096321 0.815892 0.067489
C38   C     C_R   0.178411 0.596332 0.184108 0.067490
C39   C     C_R   0.719353 0.120388 0.744061 0.075484
C40   C     C_R   0.280647 0.620394 0.255939 0.075483
C41   C     C_R   0.695159 0.145711 0.806681 0.130305
C42   C     C_R   0.304839 0.645745 0.193320 0.130305
C43   C     C_R   0.733282 0.145512 0.871529 -0.190471
C44   C     C_R   0.266715 0.645563 0.128472 -0.190472
C45   C     C_R   0.795366 0.121008 0.876178 -0.189766
C46   C     C_R   0.204632 0.621048 0.123823 -0.189768
C47   C     C_R   0.678076 0.121185 0.679690 -0.214671
C48   C     C_R   0.321924 0.621176 0.320310 -0.214670
C49   C     C_R   0.593432 0.173604 0.740544 -0.153791
C50   C     C_R   0.406566 0.673635 0.259457 -0.153789
C51   C     C_R   0.885228 0.070710 0.821179 -0.080140
C52   C     C_R   0.114772 0.570706 0.178821 -0.080141
H13   H     H_    0.692827 0.103019 0.630006 0.092720
H14   H     H_    0.307175 0.602991 0.369993 0.092722
H15   H     H_    0.958588 0.025168 0.763715 0.104921
H16   H     H_    0.041415 0.525123 0.236284 0.104921
H17   H     H_    0.786178 0.069489 0.636688 0.108449
H18   H     H_    0.213825 0.569438 0.363311 0.108451
H19   H     H_    0.893912 0.027155 0.648727 0.119594
H20   H     H_    0.106092 0.527084 0.351271 0.119594
H21   H     H_    0.822782 0.121805 0.927682 0.111252
H22   H     H_    0.177215 0.621857 0.072319 0.111255
O11   O     O_R   0.051730 0.724670 0.084120 -0.533891
O12   O     O_R   0.948270 0.224670 0.915880 -0.533889
O13   O     O_R   0.063080 0.393540 0.944820 -0.535637
O14   O     O_R   0.936920 0.893540 0.055180 -0.535637
C53   C     C_R   0.078245 0.562096 0.924952 0.714096
C54   C     C_R   0.921755 0.062098 0.075049 0.714095
O15   O     O_R   0.058800 0.395030 0.085390 -0.535890
O16   O     O_R   0.941200 0.895030 0.914610 -0.535891
O17   O     O_R   0.943980 0.223310 0.057440 -0.533916
O18   O     O_R   0.056020 0.723310 0.942560 -0.533917
C55   C     C_R   0.072986 0.563525 0.111222 0.680003
C56   C     C_R   0.927014 0.063525 0.888778 0.680003
O19   O     O_3   0.962360 0.556290 0.990650 -0.369049
O20   O     O_3   0.037640 0.056290 0.009350 -0.369050
V3    V     V_3+5 0.006980 0.281990 0.001730 1.433394
V4    V     V_3+5 0.993020 0.781990 0.998270 1.433391
I1    I     I_    0.647794 0.728977 0.253675 -0.457509
I2    I     I_    0.352196 0.228959 0.746298 -0.457539

loop_
_geom_bond_atom_site_label_1
_geom_bond_atom_site_label_2
_ccdc_geom_bond_type
C25   C49   A    
C42   C44   A    
C39   C41   A    
O18   V4    S    
C11   H5    S    
C18   C24   T    
O1    C3    A    
C47   H13   S    
C40   C48   A    
O2    C4    A    
C2    O7    A    
O12   V3    S    
C51   C56   S    
C45   H21   S    
C37   C51   A    
O5    C3    A    
C5    C15   A    
C8    C10   A    
C36   C38   A    
C29   H15   S    
C10   H4    S    
C28   C50   A    
C34   H18   S    
C33   C35   A    
O16   C56   A    
C37   C45   A    
C38   C46   A    
H7    C49   S    
C24   C53   S    
O14   V4    S    
C48   H14   S    
C53   O18   A    
C26   C42   A    
C41   C43   A    
C13   C15   A    
C1    C28   S    
C14   C20   S    
C2    C27   S    
O13   C53   A    
C25   C41   A    
O5    V1    S    
O6    V2    S    
C15   I1    S    
C38   C52   A    
C29   C51   A    
C27   C47   A    
H9    C43   S    
C32   H20   S    
C30   H16   S    
C29   C31   A    
C30   C32   A    
C35   C37   A    
C11   C13   A    
C10   C12   A    
C12   C14   A    
O4    C2    A    
O15   V3    S    
C25   H11   S    
C52   C55   S    
C54   O17   A    
C5    C7    A    
C13   C19   S    
C43   C45   A    
C14   C16   A    
O4    V2    S    
C28   C48   A    
O11   V4    S    
O14   C54   A    
O6    C4    A    
C23   C54   S    
O20   V4    S    
O1    V2    S    
H10   C44   S    
C26   C50   A    
O2    V1    S    
C6    C16   A    
C30   C52   A    
O19   V3    S    
C39   C47   A    
C9    C11   A    
C31   C33   A    
C33   H17   S    
C31   H19   S    
C46   H22   S    
O15   C55   A    
H8    C50   S    
O3    V1    S    
C26   H12   S    
O13   V3    S    
C6    C8    A    
C27   C49   A    
O3    C1    A    
C7    C17   S    
C8    C18   S    
C35   C39   A    
C36   C40   A    
C4    C21   S    
C7    C9    A    
O7    V1    S    
C1    O8    A    
C19   C21   T    
O8    V2    S    
C20   C22   T    
C12   H6    S    
O20   V3    S    
C5    H1    S    
C32   C34   A    
C6    H2    S    
C9    H3    S    
C3    C22   S    
C17   C23   T    
C16   I2    S    
O19   V4    S    
O16   V4    S    
C44   C46   A    
O9    V2    S    
O10   V1    S    
C34   C36   A    
O12   C56   A    
O17   V3    S    
C40   C42   A    
O11   C55   A    
