data_mof_unit_66970.cif
_audit_creation_date              2013-03-05T15:58:12-0500
_audit_creation_method            fapswitch 2.2
_symmetry_space_group_name_H-M    P1
_symmetry_Int_Tables_number       1
_space_group_crystal_system       triclinic
_cell_length_a                    8.174652
_cell_length_b                    12.719452
_cell_length_c                    14.191435
_cell_angle_alpha                 93.090705
_cell_angle_beta                  90.56795
_cell_angle_gamma                 98.556698
_cell_volume                      1456.79680382

loop_
_atom_site_label
_atom_site_type_symbol
_atom_site_description
_atom_site_fract_x
_atom_site_fract_y
_atom_site_fract_z
_atom_type_partial_charge
P1    P     P_3+3 0.054400 0.427280 0.286870 0.469236
O1    O     O_2   0.887370 0.460630 0.272300 -0.368219
O2    O     O_3   0.129410 0.451380 0.388510 -0.401376
O3    O     O_3   0.670210 0.653170 0.329170 -0.375091
O4    O     O_2   0.792281 0.592430 0.164855 -0.399411
O5    O     O_3   0.009523 0.290905 0.259457 -0.547444
O6    O     O_3   0.719330 0.785781 0.175284 -0.507881
H1    H     H_    0.727986 0.899678 0.284478 0.115450
C1    C     C_3   0.571069 0.933759 0.170189 -0.981033
H2    H     H_    0.501995 0.987031 0.213648 0.260092
H3    H     H_    0.673435 0.982669 0.134894 0.300525
P2    P     P_3+3 0.668300 0.742890 0.573060 0.449246
P3    P     P_3+3 0.133147 0.841825 0.373128 0.473436
O7    O     O_2   0.845380 0.761330 0.544970 -0.378835
O8    O     O_3   0.088930 0.704860 0.376040 -0.398446
O9    O     O_2   0.000308 0.888303 0.432227 -0.384191
O10   O     O_3   0.680984 0.765084 0.696004 -0.577459
O11   O     O_3   0.098222 0.875910 0.257608 -0.469593
C2    C     C_3   0.142196 0.796539 0.194227 0.503721
H4    H     H_    0.059295 0.720152 0.201233 0.139053
H5    H     H_    0.271854 0.784261 0.206579 -0.007297
C3    C     C_3   0.124783 0.830100 0.093716 -0.878098
H6    H     H_    0.993533 0.835759 0.077157 0.295613
H7    H     H_    0.200409 0.908941 0.085169 0.272924
C4    C     C_3   0.221963 0.762177 0.655541 0.388389
H8    H     H_    0.345634 0.744657 0.636004 0.091112
H9    H     H_    0.133172 0.737964 0.596001 0.145505
C5    C     C_3   0.229440 0.881157 0.675675 -0.920059
H10   H     H_    0.318542 0.907988 0.734156 0.257664
H11   H     H_    0.269901 0.924632 0.612507 0.237588
H12   H     H_    0.105592 0.899538 0.696093 0.269215
Ba1   Ba    Ba6+2 0.855630 0.555280 0.454520 1.544352
C6    C     C_3   0.966561 0.236544 0.340475 0.265157
H13   H     H_    0.861693 0.267509 0.375022 0.052102
H14   H     H_    0.072600 0.245517 0.390647 0.128774
C7    C     C_3   0.917707 0.118788 0.311077 -0.122271
H15   H     H_    0.788446 0.105740 0.283100 0.119040
H16   H     H_    0.922882 0.069922 0.373149 0.097255
C8    C     C_3   0.715166 0.673485 0.737805 0.437040
H17   H     H_    0.832128 0.651172 0.710604 0.093909
H18   H     H_    0.612995 0.606413 0.723859 0.128152
C9    C     C_3   0.732939 0.697272 0.844007 -0.999949
H19   H     H_    0.840799 0.760007 0.860238 0.273384
H20   H     H_    0.751453 0.624687 0.880028 0.225487
H21   H     H_    0.619259 0.725235 0.871582 0.262241
P4    P     P_3+3 0.135310 0.572810 0.713130 0.457723
O12   O     O_2   0.302330 0.539400 0.727760 -0.367582
O13   O     O_3   0.060300 0.548700 0.611500 -0.411246
O14   O     O_3   0.519500 0.346920 0.670840 -0.370050
O15   O     O_3   0.173618 0.710693 0.737597 -0.571908
P5    P     P_3+3 0.063173 0.156440 0.626527 0.463996
O16   O     O_3   0.614310 0.373510 0.452640 -0.396268
O17   O     O_3   0.100780 0.295230 0.623970 -0.353335
O18   O     O_2   0.194227 0.113142 0.563948 -0.381143
O19   O     O_3   0.115034 0.124471 0.740241 -0.485871
Ba2   Ba    Ba6+2 0.334200 0.444810 0.545490 1.558039
P6    P     P_3+3 0.658817 0.654624 0.206464 0.456284
C10   C     C_3   0.637840 0.855336 0.232192 0.471856
H22   H     H_    0.532420 0.815136 0.272016 0.025831
H23   H     H_    0.487132 0.889708 0.114820 0.253462
O20   O     O_3   0.575400 0.626570 0.547370 -0.402803
C11   C     C_3   0.478739 0.308803 0.258599 0.478954
H24   H     H_    0.356607 0.326632 0.282629 0.095947
H25   H     H_    0.575205 0.378509 0.275979 0.105426
C12   C     C_3   0.471373 0.288909 0.151847 -0.947678
H26   H     H_    0.371222 0.222490 0.131188 0.300762
H27   H     H_    0.446512 0.361516 0.117685 0.211701
H28   H     H_    0.591301 0.268080 0.126614 0.250266
P7    P     P_3+3 0.527801 0.241112 0.422780 0.429555
O21   O     O_2   0.344320 0.238700 0.455090 -0.362255
O22   O     O_3   0.517267 0.217551 0.300004 -0.563155
H29   H     H_    0.167178 0.770630 0.043158 0.197749
C13   C     C_3   0.990311 0.148123 0.801428 0.341706
H30   H     H_    0.957761 0.228846 0.791620 0.081883
H31   H     H_    0.880211 0.086504 0.789283 0.059806
C14   C     C_3   0.049666 0.145446 0.903080 -0.800450
H32   H     H_    0.158123 0.208087 0.917928 0.279539
H33   H     H_    0.949179 0.160514 0.951817 0.214668
H34   H     H_    0.085010 0.066314 0.915786 0.256915
P8    P     P_3+3 0.530809 0.346259 0.793708 0.478416
C15   C     C_3   0.534285 0.143555 0.775110 0.521268
H35   H     H_    0.659852 0.175985 0.751139 -0.030662
O23   O     O_2   0.404487 0.414281 0.834828 -0.373062
O24   O     O_3   0.458082 0.218317 0.828512 -0.492121
H36   H     H_    0.455886 0.114577 0.711883 0.133627
H37   H     H_    0.636235 0.077255 0.896211 0.264290
C16   C     C_3   0.549938 0.050408 0.835821 -1.050148
H38   H     H_    0.598147 0.986250 0.793221 0.240152
H39   H     H_    0.427489 0.018576 0.864221 0.284731
C17   C     C_R   0.985729 0.442335 0.060923 -0.107823
C18   C     C_R   0.183662 0.497830 0.195719 0.246191
C19   C     C_R   0.339307 0.549507 0.225812 -0.533158
C20   C     C_R   0.451973 0.596986 0.162229 0.261849
C21   C     C_R   0.406722 0.600222 0.067499 -0.317468
C22   C     C_R   0.249385 0.551482 0.034670 0.056522
C23   C     C_R   0.137898 0.496237 0.097885 -0.008290
H40   H     H_    0.375856 0.549143 0.299273 0.178863
C24   C     C_R   0.052811 0.501929 0.901867 0.004005
C25   C     C_R   0.941611 0.446271 0.965033 0.067437
C26   C     C_R   0.007247 0.500184 0.803941 0.272542
C27   C     C_R   0.853320 0.445932 0.773485 -0.511877
C28   C     C_R   0.740000 0.399363 0.837236 0.229270
C29   C     C_R   0.784569 0.397130 0.932143 -0.314928
C30   C     C_R   0.204647 0.556216 0.938958 -0.129390
H41   H     H_    0.494729 0.639857 0.019550 0.159815
H42   H     H_    0.695907 0.358496 0.980250 0.158253
H43   H     H_    0.817323 0.445371 0.699861 0.171983
H44   H     H_    0.899329 0.397032 0.105972 0.167558
H45   H     H_    0.290630 0.602076 0.894057 0.166680
C31   C     C_R   0.763817 0.176224 0.539319 -0.489929
C32   C     C_R   0.429830 0.813208 0.461025 -0.526074
C33   C     C_R   0.405825 0.994361 0.429538 -0.204268
C34   C     C_R   0.341376 0.886998 0.423134 0.198189
C35   C     C_R   0.576701 0.846295 0.512669 0.296466
C36   C     C_R   0.641556 0.956870 0.522967 -0.043798
C37   C     C_R   0.555477 0.031228 0.478798 -0.079796
C38   C     C_R   0.619267 0.140993 0.486874 0.246445
C39   C     C_R   0.853447 0.104500 0.579225 0.161969
C40   C     C_R   0.790486 0.995745 0.573958 -0.204715
H46   H     H_    0.334020 0.048218 0.398523 0.224034
H47   H     H_    0.861278 0.943238 0.608112 0.178617
H48   H     H_    0.812518 0.260273 0.544065 0.170929
H49   H     H_    0.378903 0.729547 0.454996 0.177354
N1    N     N_R   0.028490 0.086225 0.238506 0.313565
O25   O     O_R   0.973638 0.061951 0.152478 -0.391143
O26   O     O_R   0.186506 0.095731 0.256000 -0.379702

loop_
_geom_bond_atom_site_label_1
_geom_bond_atom_site_label_2
_geom_bond_distance
_ccdc_geom_bond_type
C27   H43   1.082030 S    
C25   C29   1.405157 A    
C16   H38   1.110839 S    
C21   H41   1.083294 S    
C20   C21   1.395148 A    
Ba1   O13   2.785163 S    
C13   H30   1.113722 S    
C22   C23   1.422255 A    
C14   H34   1.110915 S    
C33   C37   1.407899 A    
P8    O24   1.746500 S    
C31   C39   1.391480 A    
C35   C36   1.426512 A    
O8    Ba1   2.772775 S    
C8    H18   1.109528 S    
C4    C5    1.516948 S    
C27   C28   1.392337 A    
P3    O11   1.749656 S    
C5    H10   1.104218 S    
C7    N1    1.461658 S    
C14   H33   1.110721 S    
Ba1   O20   2.890556 S    
P1    O1    1.504415 D    
P7    O21   1.569177 D    
C30   H45   1.080412 S    
C36   C37   1.426820 A    
C6    C7    1.525858 S    
C37   C38   1.413933 A    
O1    Ba1   2.823905 S    
C1    C10   1.521293 S    
O10   C8    1.398402 S    
P7    O22   1.751038 S    
C4    O15   1.398365 S    
Ba1   O16   2.805846 S    
C11   H25   1.110547 S    
O16   P7    1.754524 S    
H1    C10   1.109988 S    
C18   C23   1.432623 A    
C39   C40   1.400095 A    
C2    H4    1.108589 S    
C12   H27   1.109689 S    
P2    O10   1.751917 S    
C29   H42   1.082995 S    
C1    H2    1.110876 S    
O6    C10   1.409850 S    
P1    C18   1.861516 S    
P6    C20   1.830592 S    
P2    Ba1   3.402214 S    
C13   H31   1.107467 S    
C28   C29   1.394663 A    
C9    H20   1.107934 S    
P8    O23   1.542335 D    
C31   C38   1.392868 A    
C3    H29   1.109721 S    
C33   C34   1.386455 A    
C19   H40   1.082080 S    
C15   H35   1.111562 S    
C8    C9    1.522359 S    
P2    C35   1.851217 S    
C40   H47   1.077129 S    
P4    O13   1.558528 S    
C32   H49   1.081963 S    
P1    O5    1.740642 S    
C2    C3    1.522098 S    
C14   H32   1.110528 S    
C8    H17   1.104528 S    
C33   H46   1.074518 S    
H37   C16   1.110640 S    
O11   C2    1.404977 S    
C4    H8    1.102052 S    
P1    Ba1   3.376036 S    
P8    C28   1.830981 S    
P1    O2    1.558646 S    
C9    H21   1.110756 S    
O3    P6    1.744182 S    
C11   H24   1.109178 S    
O2    Ba2   2.785729 S    
C12   H28   1.110663 S    
C6    H13   1.103799 S    
C21   C22   1.405467 A    
C32   C34   1.393403 A    
O3    Ba1   2.785541 S    
C1    H3    1.106863 S    
C15   C16   1.521637 S    
P2    O7    1.493274 D    
C12   H26   1.110251 S    
C36   C40   1.419553 A    
P3    O8    1.728585 S    
C13   C14   1.521168 S    
C3    H7    1.110259 S    
C9    H19   1.110861 S    
C17   C25   1.409744 A    
C18   C19   1.394050 A    
C15   O24   1.405203 S    
C22   C30   1.409909 A    
N1    O26   1.299515 A    
O17   Ba2   2.773354 S    
O13   Ba2   2.902678 S    
P4    C26   1.864799 S    
P4    O12   1.504783 D    
C7    H15   1.110901 S    
C11   C12   1.521542 S    
C2    H5    1.107722 S    
Ba2   O20   2.805186 S    
C5    H12   1.110201 S    
O7    Ba1   2.868488 S    
O14   P8    1.745753 S    
C17   C23   1.409630 A    
C4    H9    1.108550 S    
O14   Ba2   2.784947 S    
P4    O15   1.750190 S    
Ba2   O21   2.868707 S    
O5    C6    1.394576 S    
O4    P6    1.544044 D    
C1    H23   1.108885 S    
P5    O18   1.543181 D    
C7    H16   1.109146 S    
C10   H22   1.110493 S    
C17   H44   1.080352 S    
C5    H11   1.106213 S    
C31   H48   1.082106 S    
P2    O20   1.581340 S    
C24   C30   1.409710 A    
P7    C38   1.844679 S    
C19   C20   1.391726 A    
C6    H14   1.104967 S    
Ba1   Ba2   4.547213 S    
C11   O22   1.403666 S    
C32   C35   1.398103 A    
P5    O19   1.748657 S    
O2    Ba1   2.901921 S    
C24   C26   1.433338 A    
C15   H36   1.111017 S    
P5    C39   1.848971 S    
O19   C13   1.401670 S    
C24   C25   1.422728 A    
P3    O9    1.545231 D    
P4    Ba2   3.376489 S    
C16   H39   1.110552 S    
C3    H6    1.109682 S    
O12   Ba2   2.824414 S    
C26   C27   1.394626 A    
P5    O17   1.748680 S    
O6    P6    1.749827 S    
P3    C34   1.836372 S    
O16   Ba2   2.889780 S    
N1    O25   1.301615 A    
