data_mof_unit_38435.cif
_audit_creation_date              2012-12-11T16:37:25-0500
_audit_creation_method            fapswitch 2.2
_symmetry_space_group_name_H-M    P1
_symmetry_Int_Tables_number       1
_space_group_crystal_system       triclinic
_cell_length_a                    19.571532
_cell_length_b                    6.975236
_cell_length_c                    17.627473
_cell_angle_alpha                 90.19257
_cell_angle_beta                  109.095938
_cell_angle_gamma                 90.043142
_cell_volume                      2273.99491377

loop_
_atom_site_label
_atom_site_type_symbol
_atom_type_description
_atom_site_fract_x
_atom_site_fract_y
_atom_site_fract_z
_atom_type_partial_charge
O1    O     O_R   0.561710 0.369960 0.440200 -0.537178
O2    O     O_R   0.061710 0.630040 0.940200 -0.541577
O3    O     O_R   0.412630 0.033330 0.406330 -0.543279
O4    O     O_R   0.912630 0.966670 0.906330 -0.543769
O5    O     O_R   0.438290 0.869790 0.559800 -0.543713
O6    O     O_R   0.938290 0.130210 0.059800 -0.540898
C1    C     C_R   0.385439 0.202933 0.382645 0.704237
C2    C     C_R   0.884719 0.796389 0.883614 0.695111
O7    O     O_R   0.559570 0.039810 0.430640 -0.540830
O8    O     O_R   0.059570 0.960190 0.930640 -0.542761
O9    O     O_R   0.586280 0.876320 0.584290 -0.533089
O10   O     O_R   0.086280 0.123680 0.084290 -0.535681
C3    C     C_R   0.580858 0.208472 0.415966 0.684193
C4    C     C_R   0.081134 0.791137 0.915720 0.680213
O11   O     O_R   0.413720 0.363440 0.415710 -0.538166
O12   O     O_R   0.913720 0.636560 0.915710 -0.536665
O13   O     O_3   0.508590 0.205630 0.550380 -0.364445
O14   O     O_3   0.008590 0.794370 0.050380 -0.360746
V1    V     V_3+5 0.498410 0.928130 0.490650 1.396475
V2    V     V_3+5 0.998410 0.071870 0.990650 1.393705
O15   O     O_R   0.587370 0.546990 0.593670 -0.534831
O16   O     O_R   0.087370 0.453010 0.093670 -0.524303
C5    C     C_R   0.615779 0.716788 0.615769 0.695562
C6    C     C_R   0.114686 0.283563 0.117522 0.709637
O17   O     O_R   0.440430 0.540520 0.569360 -0.538072
O18   O     O_R   0.940430 0.459480 0.069360 -0.538980
C7    C     C_R   0.417633 0.708579 0.582779 0.686543
C8    C     C_R   0.919189 0.291835 0.085060 0.687494
V3    V     V_3+5 0.501590 0.428960 0.509350 1.405741
V4    V     V_3+5 0.001590 0.571040 0.009350 1.413280
O19   O     O_3   0.491410 0.701330 0.449620 -0.369550
O20   O     O_3   0.991410 0.298670 0.949620 -0.373670
C9    C     C_R   0.324003 0.890926 0.726478 -0.147138
C10   C     C_R   0.785655 0.097286 0.181476 -0.154461
H1    H     H_    0.329444 0.013611 0.765823 0.117982
H2    H     H_    0.759518 0.960647 0.181570 0.113921
C11   C     C_R   0.370026 0.876686 0.680415 -0.213909
C12   C     C_R   0.831172 0.114776 0.134999 -0.201364
H3    H     H_    0.409116 0.989889 0.685075 0.138227
H4    H     H_    0.835526 0.994616 0.098141 0.129376
C13   C     C_R   0.366908 0.717550 0.630110 -0.061198
C14   C     C_R   0.869814 0.284619 0.134694 -0.065576
C15   C     C_R   0.314233 0.573015 0.624967 0.156685
C16   C     C_R   0.859067 0.442836 0.180931 0.150524
C17   C     C_R   0.268219 0.589731 0.671608 -0.141540
C18   C     C_R   0.810921 0.425387 0.224835 -0.137947
H5    H     H_    0.227623 0.480427 0.666667 0.107814
H6    H     H_    0.801169 0.549745 0.256653 0.104774
C19   C     C_R   0.272858 0.746956 0.723207 0.047487
C20   C     C_R   0.774657 0.252587 0.227171 0.052478
C21   C     C_R   0.205981 0.594079 0.807878 -0.146506
C22   C     C_R   0.736804 0.350912 0.346036 -0.139352
H7    H     H_    0.228240 0.455972 0.800413 0.100774
H8    H     H_    0.783111 0.445162 0.367297 0.105311
C23   C     C_R   0.159638 0.604454 0.853722 -0.162546
C24   C     C_R   0.689122 0.343676 0.390195 -0.162736
H9    H     H_    0.147176 0.473646 0.879465 0.121219
H10   H     H_    0.699245 0.434099 0.442854 0.110677
C25   C     C_R   0.130295 0.780925 0.866595 -0.051744
C26   C     C_R   0.630162 0.217313 0.368084 -0.043745
C27   C     C_R   0.148986 0.946998 0.832549 -0.163614
C28   C     C_R   0.619366 0.098764 0.300703 -0.162094
H11   H     H_    0.127525 0.085482 0.841034 0.120081
H12   H     H_    0.573980 0.000441 0.282425 0.114837
C29   C     C_R   0.195236 0.936464 0.786418 -0.142350
C30   C     C_R   0.665649 0.110478 0.254738 -0.137897
H13   H     H_    0.207310 0.066663 0.759981 0.099987
H14   H     H_    0.653561 0.022541 0.201309 0.105617
C31   C     C_R   0.224235 0.759680 0.773219 0.100641
C32   C     C_R   0.725294 0.236940 0.276602 0.092534
C33   C     C_R   0.770936 0.616052 0.808366 -0.011038
C34   C     C_R   0.306638 0.372070 0.258655 -0.009269
C35   C     C_R   0.814976 0.779764 0.816971 -0.095820
C36   C     C_R   0.318773 0.216611 0.311936 -0.105994
C37   C     C_R   0.792672 0.920652 0.757401 -0.152769
C38   C     C_R   0.263109 0.080197 0.298372 -0.177066
H15   H     H_    0.826743 0.043963 0.760169 0.124467
H16   H     H_    0.270072 0.960052 0.338535 0.132774
C39   C     C_R   0.728904 0.896754 0.691239 -0.079445
C40   C     C_R   0.196163 0.105915 0.236793 -0.161407
H17   H     H_    0.714800 0.001153 0.643755 0.154542
H18   H     H_    0.152769 0.005389 0.230948 0.184559
C41   C     C_R   0.684232 0.735575 0.683915 -0.146695
C42   C     C_R   0.183411 0.265931 0.185546 -0.125075
C43   C     C_R   0.707715 0.594102 0.741992 -0.021642
C44   C     C_R   0.240339 0.395633 0.197154 0.029863
C45   C     C_3   0.727801 0.392163 0.728398 0.558727
C46   C     C_3   0.241195 0.606883 0.212222 0.547759
C47   C     C_3   0.793163 0.412186 0.804111 -0.407785
C48   C     C_3   0.315420 0.582318 0.276863 -0.442306
H19   H     H_    0.846282 0.399555 0.794172 0.156872
H20   H     H_    0.361151 0.642610 0.260185 0.158023
H21   H     H_    0.789459 0.326947 0.855788 0.153076
H22   H     H_    0.318542 0.618965 0.339182 0.151319
C49   C     C_3   0.749773 0.373870 0.651914 -0.761325
H23   H     H_    0.788454 0.255262 0.657036 0.173019
H24   H     H_    0.701382 0.347734 0.598535 0.208304
H25   H     H_    0.777418 0.505481 0.641424 0.178745
C50   C     C_3   0.244314 0.720005 0.138923 -0.725782
H26   H     H_    0.190072 0.722977 0.092275 0.213987
H27   H     H_    0.261905 0.869423 0.156432 0.209423
H28   H     H_    0.283182 0.654528 0.112448 0.162546
O21   O     O_3   0.678794 0.243866 0.732280 -0.561380
C51   C     C_3   0.632070 0.290338 0.776164 0.109482
H29   H     H_    0.592770 0.401908 0.743896 0.122800
H30   H     H_    0.663108 0.341659 0.837651 0.100991
C52   C     C_3   0.589900 0.110414 0.782987 -0.283386
H31   H     H_    0.559725 0.055457 0.721897 0.206398
H32   H     H_    0.628356 0.997620 0.815573 0.194199
C53   C     C_3   0.536424 0.151636 0.827448 -0.876181
H33   H     H_    0.565381 0.205618 0.888972 0.237707
H34   H     H_    0.507385 0.017691 0.832119 0.235340
H35   H     H_    0.496108 0.259822 0.794387 0.232914
O22   O     O_3   0.182390 0.669930 0.237282 -0.562815
C54   C     C_3   0.181211 0.598776 0.312344 0.056058
H36   H     H_    0.209397 0.701291 0.360712 0.109313
H37   H     H_    0.206859 0.456386 0.328168 0.134300
C55   C     C_3   0.102904 0.580593 0.309854 -0.284272
H38   H     H_    0.075971 0.722460 0.295658 0.192863
H39   H     H_    0.074445 0.476809 0.261937 0.186301
C56   C     C_3   0.098100 0.510335 0.389864 -0.847208
H40   H     H_    0.123555 0.366851 0.404438 0.231809
H41   H     H_    0.040436 0.498862 0.385892 0.236239
H42   H     H_    0.125736 0.612606 0.438754 0.236601
C57   C     C_3   0.303860 0.404203 0.568447 -0.775553
H43   H     H_    0.255138 0.319001 0.565758 0.196743
H44   H     H_    0.296814 0.454987 0.506682 0.190973
H45   H     H_    0.351130 0.306865 0.589052 0.221707
C58   C     C_3   0.897584 0.631648 0.185384 -0.756584
H46   H     H_    0.885335 0.733962 0.227590 0.194867
H47   H     H_    0.956732 0.608893 0.206556 0.206202
H48   H     H_    0.880541 0.698613 0.125296 0.213766

loop_
_geom_bond_atom_site_label_1
_geom_bond_atom_site_label_2
_ccdc_geom_bond_type
C30   H14   S    
O11   V3    S    
C23   C25   A    
O13   V3    S    
C49   H23   S    
O4    C2    A    
V1    O19   S    
C15   C57   S    
C51   H30   S    
O22   C54   S    
C49   H25   S    
C3    C26   S    
C30   C32   A    
C4    C25   S    
O9    V1    S    
C36   C38   A    
C11   C13   A    
C42   C44   A    
C12   C14   A    
O3    C1    A    
C44   C46   S    
C9    C19   A    
C54   H36   S    
C26   C28   A    
C8    C14   S    
C27   H11   S    
O7    C3    A    
C55   H38   S    
C56   H42   S    
C28   H12   S    
O13   V1    S    
O5    C7    A    
O7    V1    S    
O6    C8    A    
O8    V2    S    
C29   H13   S    
C45   C49   S    
C57   H45   S    
C52   H31   S    
O3    V1    S    
O14   V4    S    
C47   H19   S    
C21   C23   A    
C40   C42   A    
C58   H48   S    
C17   H5    S    
C2    O12   A    
C33   C43   A    
C47   H21   S    
C13   C15   A    
C14   C16   A    
C51   H29   S    
C22   H8    S    
C48   H22   S    
C1    C36   S    
C53   H34   S    
C43   C45   S    
O15   C5    A    
O17   V3    S    
C18   H6    S    
C25   C27   A    
C10   C20   A    
C28   C30   A    
V4    O20   S    
C34   C36   A    
O8    C4    A    
C53   H33   S    
C39   H17   S    
C1    O11   A    
C16   C18   A    
C54   H37   S    
C16   C58   S    
O15   V3    S    
C9    C11   A    
C24   C26   A    
C21   H7    S    
C55   C56   S    
O4    V2    S    
C34   C48   S    
C7    C13   S    
C48   H20   S    
C50   H26   S    
C33   C47   S    
C17   C19   A    
C54   C55   S    
O10   V2    S    
O1    V3    S    
C15   C17   A    
C53   H35   S    
C56   H40   S    
C5    C41   S    
C45   O21   S    
C40   H18   S    
C50   H27   S    
C46   C48   S    
O18   V4    S    
C23   H9    S    
C57   H43   S    
C52   C53   S    
O16   C6    A    
O1    C3    A    
C35   C37   A    
C33   C35   A    
C58   H46   S    
V2    O20   S    
C18   C20   A    
O16   V4    S    
C41   C43   A    
C10   C12   A    
C38   C40   A    
C38   H16   S    
C34   C44   A    
C49   H24   S    
O5    V1    S    
O17   C7    A    
O6    V2    S    
O10   C6    A    
O18   C8    A    
O2    V4    S    
C45   C47   S    
C20   C32   S    
V3    O19   S    
C6    C42   S    
C12   H4    S    
C52   H32   S    
C37   C39   A    
C29   C31   A    
O9    C5    A    
C2    C35   S    
C9    H1    S    
C10   H2    S    
C24   H10   S    
O14   V2    S    
C46   O22   S    
O2    C4    A    
C55   H39   S    
C56   H41   S    
C46   C50   S    
C22   C32   A    
C39   C41   A    
C27   C29   A    
C50   H28   S    
C11   H3    S    
C37   H15   S    
O21   C51   S    
C57   H44   S    
C19   C31   S    
C21   C31   A    
O12   V4    S    
C51   C52   S    
C22   C24   A    
C58   H47   S    
