data_mof_unit_60841.cif
_audit_creation_date              2013-03-05T15:47:44-0500
_audit_creation_method            fapswitch 2.2
_symmetry_space_group_name_H-M    P1
_symmetry_Int_Tables_number       1
_space_group_crystal_system       triclinic
_cell_length_a                    8.510063
_cell_length_b                    19.124107
_cell_length_c                    23.107048
_cell_angle_alpha                 95.510682
_cell_angle_beta                  90.088323
_cell_angle_gamma                 94.685277
_cell_volume                      3730.55527167

loop_
_atom_site_label
_atom_site_type_symbol
_atom_site_description
_atom_site_fract_x
_atom_site_fract_y
_atom_site_fract_z
_atom_type_partial_charge
P1    P     P_3+3 0.067040 0.441110 0.370020 0.562013
O1    O     O_2   0.896730 0.461690 0.361000 -0.329024
O2    O     O_3   0.137170 0.462400 0.432040 -0.366389
O3    O     O_3   0.657500 0.588540 0.395070 -0.310916
O4    O     O_2   0.766260 0.534730 0.295337 -0.310709
O5    O     O_3   0.106540 0.352698 0.346551 -0.613038
O6    O     O_3   0.709381 0.664755 0.298967 -0.479980
C1    C     C_3   0.614162 0.755065 0.249171 -0.776231
P2    P     P_3+3 0.640420 0.660110 0.543790 0.539477
P3    P     P_3+3 0.097065 0.716617 0.424000 0.557550
O7    O     O_2   0.816140 0.670340 0.526560 -0.325160
O8    O     O_3   0.069580 0.624410 0.423530 -0.341024
O9    O     O_2   0.970722 0.745766 0.465148 -0.325791
O10   O     O_3   0.621565 0.687588 0.618846 -0.609520
O11   O     O_3   0.040132 0.740024 0.355416 -0.432869
C2    C     C_3   0.158971 0.726675 0.314367 0.180912
H1    H     H_    0.271900 0.753532 0.331278 0.093846
C3    C     C_3   0.121231 0.756432 0.255443 -0.621672
C4    C     C_3   0.215620 0.687265 0.607107 0.333460
C5    C     C_3   0.264208 0.763768 0.630262 -0.754208
Ba1   Ba    Ba6+2 0.850680 0.532880 0.472010 1.665394
C6    C     C_3   0.995942 0.294131 0.349066 0.158131
C7    C     C_3   0.085868 0.227403 0.325357 -0.803581
H2    H     H_    0.197050 0.230790 0.351399 0.192372
C8    C     C_3   0.746635 0.674608 0.654878 0.130948
C9    C     C_3   0.753278 0.729734 0.709987 -0.783582
P4    P     P_3+3 0.122660 0.558950 0.629980 0.538326
O12   O     O_2   0.292960 0.538340 0.639040 -0.322970
O13   O     O_3   0.052540 0.537650 0.567960 -0.340838
O14   O     O_3   0.532200 0.411510 0.604930 -0.353501
O15   O     O_3   0.134205 0.650891 0.648849 -0.563254
P5    P     P_3+3 0.085023 0.283505 0.576752 0.525711
O16   O     O_3   0.629030 0.416090 0.471500 -0.359370
O17   O     O_3   0.120120 0.375640 0.576470 -0.392700
O18   O     O_2   0.202865 0.250436 0.533453 -0.308813
O19   O     O_3   0.149128 0.259920 0.643655 -0.509753
Ba2   Ba    Ba6+2 0.339140 0.467180 0.527990 1.693529
P6    P     P_3+3 0.638347 0.582044 0.319096 0.557865
C10   C     C_3   0.591893 0.712671 0.301452 0.349039
H3    H     H_    0.470867 0.686391 0.300265 -0.016558
H4    H     H_    0.529914 0.796141 0.249904 0.244095
O20   O     O_3   0.560670 0.583970 0.528500 -0.362266
C11   C     C_3   0.503824 0.357082 0.353861 0.305540
H5    H     H_    0.600921 0.399486 0.353219 0.120049
C12   C     C_3   0.444695 0.330677 0.291697 -0.769881
H6    H     H_    0.431679 0.272395 0.286909 0.234012
P7    P     P_3+3 0.553324 0.326947 0.458603 0.502829
O21   O     O_2   0.373560 0.329680 0.473470 -0.359392
O22   O     O_3   0.553818 0.301508 0.383441 -0.547187
C13   C     C_3   0.036377 0.273939 0.687134 0.228342
H7    H     H_    0.951829 0.311163 0.674743 -0.018860
C14   C     C_3   0.936900 0.205873 0.699535 -0.744057
H8    H     H_    0.865888 0.216520 0.739345 0.201668
P8    P     P_3+3 0.571101 0.412060 0.679406 0.636486
C15   C     C_3   0.528318 0.276148 0.670677 0.335689
O23   O     O_2   0.478699 0.471446 0.709833 -0.216036
O24   O     O_3   0.467907 0.335874 0.700185 -0.443972
C16   C     C_3   0.474965 0.212062 0.702810 -0.569827
H9    H     H_    0.346289 0.210154 0.709898 0.211906
H10   H     H_    0.758084 0.443635 0.081065 0.185908
C17   C     C_R   0.344880 0.505856 0.325556 -0.366099
C18   C     C_R   0.165145 0.539181 0.927892 -0.129349
C19   C     C_R   0.129056 0.521734 0.867631 0.586711
O25   O     O_2   0.235694 0.520879 0.832394 -0.512433
N1    N     N_R   0.975148 0.502239 0.848883 -0.174043
C20   C     C_R   0.858417 0.496209 0.890763 0.602183
O26   O     O_2   0.720231 0.494721 0.876193 -0.529732
C21   C     C_R   0.898536 0.492280 0.950315 -0.093958
C22   C     C_R   0.052980 0.517196 0.969101 0.021057
C23   C     C_R   0.311113 0.574669 0.948765 -0.112497
C24   C     C_R   0.346368 0.580530 0.008586 -0.077483
C25   C     C_R   0.241422 0.552407 0.049141 -0.041246
C26   C     C_R   0.095294 0.520737 0.029298 0.002443
C27   C     C_R   0.790658 0.466326 0.992188 -0.083430
C28   C     C_R   0.839903 0.465779 0.050421 -0.124449
C29   C     C_R   0.991816 0.492514 0.069662 -0.064517
C30   C     C_R   0.042796 0.489196 0.128158 0.552523
N2    N     N_R   0.184570 0.524799 0.150199 -0.159937
C31   C     C_R   0.279404 0.558602 0.109439 0.605218
C32   C     C_2   0.831522 0.430980 0.766032 -0.129683
C33   C     C_3   0.789283 0.418231 0.701480 -0.002906
C34   C     C_1   0.003767 0.509908 0.683728 0.241564
C35   C     C_2   0.018604 0.529158 0.740835 -0.132608
C36   C     C_2   0.936685 0.486506 0.786004 0.140895
C37   C     C_R   0.392845 0.547023 0.232617 -0.151198
C38   C     C_R   0.441710 0.543552 0.289923 0.184190
C39   C     C_R   0.184951 0.491835 0.315199 0.259209
C40   C     C_R   0.129314 0.501803 0.258478 -0.163350
C41   C     C_R   0.234435 0.524773 0.213107 0.148256
O27   O     O_2   0.961046 0.452168 0.158172 -0.555195
O28   O     O_2   0.397613 0.595800 0.124644 -0.574187
C42   C     C_2   0.902293 0.457077 0.662637 -0.248993
H11   H     H_    0.091172 0.576836 0.755386 0.167302
H12   H     H_    0.005678 0.489268 0.251205 0.249905
C43   C     C_R   0.390740 0.703178 0.476247 -0.500928
C44   C     C_R   0.534638 0.724098 0.504705 0.271938
C45   C     C_R   0.582088 0.796124 0.513616 -0.266787
C46   C     C_R   0.486453 0.847112 0.495652 0.000107
C47   C     C_R   0.334662 0.824952 0.470699 -0.141921
C48   C     C_R   0.291721 0.752016 0.457357 0.057881
C49   C     C_R   0.530640 0.962559 0.452712 -0.156237
C50   C     C_R   0.581802 0.034523 0.455357 -0.102024
C51   C     C_R   0.659531 0.068189 0.506558 0.114357
C52   C     C_R   0.689594 0.026311 0.551689 -0.096445
C53   C     C_R   0.634285 0.955034 0.548682 -0.128237
C54   C     C_R   0.550472 0.922751 0.499645 0.138700
C55   C     C_R   0.845760 0.173469 0.543730 -0.182490
C56   C     C_R   0.881719 0.246653 0.555349 0.246804
C57   C     C_R   0.641543 0.267052 0.505568 0.320745
C58   C     C_R   0.598978 0.194617 0.498148 -0.163413
C59   C     C_R   0.701488 0.146351 0.516401 0.084342
C60   C     C_R   0.771182 0.292467 0.540857 -0.482258
H13   H     H_    0.489585 0.176346 0.475676 0.148672
H14   H     H_    0.474566 0.937063 0.413240 0.200405
H15   H     H_    0.797289 0.348648 0.549807 0.146658
C61   C     C_2   0.613571 0.764314 0.354600 0.944573
O29   O     O_2   0.526888 0.812123 0.362440 -0.693811
O30   O     O_R   0.739887 0.761627 0.392136 -0.676016
H16   H     H_    0.757425 0.806271 0.419500 0.331669
H17   H     H_    0.289271 0.767313 0.677719 0.249792
H18   H     H_    0.373951 0.779982 0.607815 0.134673
C62   C     C_2   0.149660 0.816333 0.617705 1.198773
O31   O     O_2   0.182570 0.878593 0.633830 -0.557739
O32   O     O_R   0.009527 0.795621 0.586934 -0.807735
H19   H     H_    0.947078 0.837080 0.580263 0.327072
C63   C     C_2   0.856515 0.298514 0.309954 1.008547
O33   O     O_2   0.853760 0.346699 0.279005 -0.562159
O34   O     O_R   0.742175 0.241964 0.303237 -0.800194
H20   H     H_    0.682397 0.238779 0.265205 0.365737
C64   C     C_2   0.951011 0.291116 0.411632 0.937878
O35   O     O_2   0.975683 0.240445 0.437499 -0.599912
O36   O     O_R   0.900931 0.351082 0.442146 -0.769694
H21   H     H_    0.964400 0.363905 0.479147 0.328309
C65   C     C_2   0.137535 0.226361 0.262006 1.140303
O37   O     O_2   0.097391 0.270024 0.230938 -0.525935
O38   O     O_R   0.233151 0.174979 0.238184 -0.717454
H22   H     H_    0.266155 0.142717 0.267507 0.306567
C66   C     C_2   0.000615 0.155758 0.332549 1.152052
O39   O     O_2   0.038181 0.122370 0.372264 -0.552195
O40   O     O_R   0.891046 0.124640 0.290623 -0.742699
H23   H     H_    0.849669 0.075267 0.298554 0.342669
H24   H     H_    0.861065 0.680329 0.632427 0.144643
C67   C     C_2   0.713693 0.599725 0.669087 0.953950
O41   O     O_2   0.711912 0.553318 0.629101 -0.576783
O42   O     O_R   0.677713 0.581051 0.724868 -0.763536
H25   H     H_    0.618890 0.616595 0.749491 0.334132
H26   H     H_    0.731076 0.783978 0.251714 0.277213
C68   C     C_2   0.791883 0.804992 0.695026 1.205611
O43   O     O_2   0.917211 0.837296 0.710197 -0.553559
O44   O     O_R   0.682281 0.840366 0.666771 -0.788180
H27   H     H_    0.575579 0.813386 0.663631 0.308179
C69   C     C_2   0.866873 0.713396 0.756765 1.086764
O45   O     O_2   0.817582 0.702444 0.805035 -0.626191
O46   O     O_R   0.028299 0.714534 0.745929 -0.752314
H28   H     H_    0.091736 0.705352 0.781192 0.341167
H29   H     H_    0.633268 0.728835 0.729129 0.165002
H30   H     H_    0.401386 0.378605 0.376728 0.111943
H31   H     H_    0.327786 0.349713 0.285020 0.199292
C70   C     C_2   0.541825 0.356254 0.242506 1.179524
O47   O     O_2   0.589897 0.418154 0.243242 -0.620097
O48   O     O_R   0.568894 0.309462 0.193953 -0.738797
H32   H     H_    0.633595 0.332821 0.163239 0.354227
H33   H     H_    0.603808 0.719997 0.207951 0.287398
C71   C     C_2   0.254759 0.748394 0.213323 0.934925
O49   O     O_2   0.308581 0.691254 0.204367 -0.636431
O50   O     O_R   0.306708 0.803423 0.180303 -0.733510
H34   H     H_    0.390896 0.789622 0.151379 0.355399
C72   C     C_2   0.121588 0.309516 0.740647 1.027836
O51   O     O_2   0.173825 0.371021 0.741003 -0.571120
O52   O     O_R   0.142561 0.273080 0.789394 -0.754648
H35   H     H_    0.203244 0.303211 0.821841 0.361854
H36   H     H_    0.851406 0.190465 0.663500 0.151532
C73   C     C_2   0.033014 0.144401 0.705635 1.241765
O53   O     O_2   0.043465 0.121021 0.752784 -0.555130
O54   O     O_R   0.105694 0.112705 0.656852 -0.761632
H37   H     H_    0.164100 0.070956 0.666123 0.352247
H38   H     H_    0.659339 0.280909 0.669720 -0.040211
H39   H     H_    0.481214 0.268716 0.625393 0.123700
H40   H     H_    0.532926 0.217248 0.746205 0.202712
C74   C     C_2   0.511729 0.143686 0.670651 1.009466
O55   O     O_2   0.458377 0.126663 0.621722 -0.605423
O56   O     O_R   0.599884 0.097953 0.698423 -0.765500
H41   H     H_    0.604935 0.050612 0.675075 0.337826
H42   H     H_    0.172507 0.669064 0.307596 0.113063
C75   C     C_2   0.630387 0.432971 0.977007 1.117874
O57   O     O_2   0.520262 0.444903 0.009409 -0.658069
O58   O     O_R   0.606608 0.384532 0.927978 -0.739634
H43   H     H_    0.492498 0.365008 0.922899 0.340875
H44   H     H_    0.457590 0.607939 0.023679 0.193859
H45   H     H_    0.486608 0.564506 0.205362 0.210885
C76   C     C_2   0.423709 0.613123 0.911399 1.145374
O59   O     O_2   0.375588 0.643122 0.871271 -0.605239
O60   O     O_R   0.584882 0.619032 0.924706 -0.780855
H46   H     H_    0.649560 0.647393 0.896961 0.368286
C77   C     C_2   0.783857 0.373265 0.802734 1.042223
O61   O     O_2   0.879294 0.353245 0.835821 -0.629642
O62   O     O_R   0.630047 0.341881 0.799770 -0.730067
H47   H     H_    0.612780 0.302953 0.826478 0.345136
H48   H     H_    0.398361 0.485388 0.360980 0.114665
H49   H     H_    0.891021 0.443103 0.616241 0.149097
C78   C     C_2   0.554328 0.070971 0.402926 0.991020
O63   O     O_2   0.438022 0.052858 0.372187 -0.584236
O64   O     O_R   0.661319 0.125118 0.387820 -0.778932
H50   H     H_    0.623535 0.146394 0.352458 0.379248
H51   H     H_    0.694185 0.812383 0.534821 0.165006
H52   H     H_    0.751526 0.049536 0.590663 0.129021
H53   H     H_    0.654117 0.925692 0.585360 0.175961
H54   H     H_    0.932355 0.138054 0.554129 0.181944
C79   C     C_2   0.217816 0.877436 0.463952 1.044869
O65   O     O_2   0.201279 0.923865 0.503182 -0.608534
O66   O     O_R   0.128103 0.874653 0.413042 -0.733721
H55   H     H_    0.052844 0.913203 0.414129 0.338723
C80   C     C_2   0.984939 0.713620 0.223053 1.109947
O67   O     O_2   0.921338 0.737157 0.182364 -0.605094
O68   O     O_R   0.952754 0.642597 0.231902 -0.750199
H56   H     H_    0.870596 0.617521 0.203648 0.338041
C81   C     C_2   0.337671 0.629216 0.471276 1.095742
O69   O     O_2   0.249383 0.604630 0.506444 -0.610900
O70   O     O_R   0.389851 0.585704 0.426983 -0.807120
H57   H     H_    0.393705 0.537350 0.440420 0.336117
C82   C     C_2   0.097445 0.834784 0.267601 1.203911
O71   O     O_2   0.202671 0.874336 0.292048 -0.561608
O72   O     O_R   0.960681 0.862747 0.249899 -0.777266
H58   H     H_    0.961827 0.915428 0.260799 0.340869
H59   H     H_    0.326855 0.662656 0.597057 0.133478
H60   H     H_    0.138892 0.686943 0.568336 0.141371

loop_
_geom_bond_atom_site_label_1
_geom_bond_atom_site_label_2
_geom_bond_distance
_ccdc_geom_bond_type
P1    C39   1.906166 S    
C20   C21   1.427723 A    
C39   C40   1.427990 A    
C19   N1    1.389110 Am   
P1    Ba1   3.430908 S    
C63   O33   1.221138 D    
P4    O13   1.556057 S    
O17   Ba2   2.764716 S    
C15   H38   1.111697 S    
C78   O63   1.224223 D    
C7    C66   1.520853 S    
C9    H29   1.113088 S    
C8    H24   1.106548 S    
C12   C70   1.502712 S    
C32   C36   1.375098 D    
C4    O15   1.395152 S    
O34   H20   1.008991 S    
C17   H48   1.058240 S    
O48   H32   1.014061 S    
P7    O22   1.758159 S    
C73   O53   1.222508 D    
C14   H8    1.112969 S    
O14   P8    1.750840 S    
P2    O20   1.563552 S    
C49   C50   1.404710 A    
P6    C38   1.869892 S    
C35   C36   1.521027 S    
P5    O19   1.750002 S    
C71   O49   1.218750 D    
C4    H60   1.107021 S    
C68   O44   1.392817 S    
C25   C31   1.421439 A    
P3    O11   1.765214 S    
C70   O47   1.219005 D    
O42   H25   1.009241 S    
C46   C47   1.428997 A    
C75   O58   1.396316 S    
Ba1   O16   2.802367 S    
O52   H35   1.013943 S    
O62   H47   1.013576 S    
C21   C27   1.430347 A    
O11   C2    1.409347 S    
C35   H11   1.083657 S    
C45   C46   1.411324 A    
C34   C42   1.328768 D    
C61   O29   1.221356 D    
C18   C23   1.426133 A    
C51   C59   1.503621 S    
P1    O1    1.551440 D    
P3    C48   1.873268 S    
Ba2   O20   2.801746 S    
C3    C82   1.527740 S    
O56   H41   1.012526 S    
C17   C39   1.381510 A    
C43   C81   1.442952 S    
O30   H16   1.013027 S    
C33   C42   1.515395 S    
C3    C71   1.505118 S    
P7    O21   1.572346 D    
C21   C22   1.413909 A    
C13   C14   1.544526 S    
C55   C56   1.407882 A    
C70   O48   1.397915 S    
C22   C26   1.430180 A    
C16   H40   1.109050 S    
C1    C10   1.521967 S    
C52   H52   1.081466 S    
C31   O28   1.214682 D    
C27   C75   1.484459 S    
C40   C41   1.455856 A    
C72   O52   1.398800 S    
C20   O26   1.220062 D    
O10   C8    1.402783 S    
O4    P6    1.540274 D    
C6    C64   1.501246 S    
C49   H14   1.082851 S    
C78   O64   1.392657 S    
C14   H36   1.107018 S    
C8    C67   1.504063 S    
C6    C7    1.593986 S    
C52   C53   1.400467 A    
C24   H44   1.084012 S    
C74   O56   1.397532 S    
C23   C76   1.487886 S    
C53   H53   1.080755 S    
C40   H12   1.069230 S    
C80   O68   1.397992 S    
N2    C41   1.513726 S    
O40   H23   1.014008 S    
P8    O23   1.548149 D    
C30   O27   1.217292 D    
C27   C28   1.409974 A    
P4    O15   1.765143 S    
C76   O59   1.223122 D    
P5    O18   1.546549 D    
C29   C30   1.427733 A    
O72   H58   1.013991 S    
C79   O65   1.223161 D    
C17   C38   1.376854 A    
C57   C60   1.397058 A    
O70   H57   1.006322 S    
P2    O10   1.774651 S    
C37   C41   1.438470 A    
N2    C31   1.410792 Am   
C32   C33   1.525690 S    
N1    C36   1.485656 S    
C65   O38   1.399573 S    
C77   O61   1.223052 D    
C8    C9    1.571092 S    
C30   N2    1.405677 Am   
Ba1   O13   2.792622 S    
O8    Ba1   2.763963 S    
O7    Ba1   2.841967 S    
O16   Ba2   2.983828 S    
C56   C60   1.398100 A    
O14   Ba2   2.762932 S    
P1    O2    1.556062 S    
P5    O17   1.763561 S    
C64   O36   1.385419 S    
C28   C29   1.406045 A    
C76   O60   1.398316 S    
O66   H55   1.013873 S    
C18   C19   1.427324 A    
C82   O71   1.224269 D    
C11   C12   1.545453 S    
C47   C48   1.417016 A    
C58   H13   1.081159 S    
C80   O67   1.224359 D    
C7    H2    1.114579 S    
C44   C45   1.398993 A    
O1    Ba1   2.829565 S    
C2    H42   1.113247 S    
C13   H7    1.108443 S    
C5    H18   1.105644 S    
C58   C59   1.412839 A    
C1    H4    1.104933 S    
Ba2   O21   2.842223 S    
C9    C68   1.522346 S    
P2    O7    1.549831 D    
P2    C44   1.874364 S    
O46   H28   1.013817 S    
C55   H54   1.082474 S    
C23   C24   1.405976 A    
C73   O54   1.397430 S    
P3    O8    1.758762 S    
C18   C22   1.417315 A    
C72   O51   1.222251 D    
C81   O69   1.209758 D    
C69   O46   1.395560 S    
C10   C61   1.501412 S    
C15   O24   1.407586 S    
C11   H5    1.110624 S    
C13   C72   1.507592 S    
O50   H34   1.013974 S    
O16   P7    1.769898 S    
C15   H39   1.112046 S    
C77   O62   1.393458 S    
O2    Ba1   2.986391 S    
C1    H26   1.096732 S    
C3    C80   1.516658 S    
C62   O32   1.396677 S    
C5    H17   1.111417 S    
O19   C13   1.412501 S    
C74   O55   1.222266 D    
C47   C79   1.487670 S    
C49   C54   1.401139 A    
C67   O42   1.398016 S    
C32   C77   1.486498 S    
P8    C33   1.916070 S    
C63   O34   1.391351 S    
Ba1   O20   2.984699 S    
P1    O5    1.784145 S    
C7    C65   1.527882 S    
C43   C48   1.406643 A    
C55   C59   1.416270 A    
C50   C78   1.481979 S    
P4    C34   1.875725 S    
C11   O22   1.410780 S    
C12   H31   1.102566 S    
O3    P6    1.754374 S    
C25   C26   1.394763 A    
C11   H30   1.107630 S    
P3    O9    1.539512 D    
C37   C38   1.396577 A    
C1    H33   1.110025 S    
C65   O37   1.220773 D    
C66   O40   1.399270 S    
C81   O70   1.354737 S    
C53   C54   1.401787 A    
H10   C28   1.084677 S    
C5    C62   1.503403 S    
C46   C54   1.497730 S    
C45   H51   1.080581 S    
C4    C5    1.532283 S    
C71   O50   1.401536 S    
C64   O35   1.218373 D    
C37   H45   1.069358 S    
C24   C25   1.409241 A    
C82   O72   1.396469 S    
O54   H37   1.013788 S    
P7    C57   1.852052 S    
C57   C58   1.397048 A    
O3    Ba1   2.763477 S    
P2    Ba1   3.437772 S    
C75   O57   1.222787 D    
C2    H1    1.104420 S    
O12   Ba2   2.830327 S    
P4    Ba2   3.431498 S    
C9    C69   1.520356 S    
C79   O66   1.395749 S    
O6    P6    1.752060 S    
C61   O30   1.387500 S    
O36   H21   1.009740 S    
C68   O43   1.221345 D    
N1    C20   1.393655 Am   
O68   H56   1.014261 S    
C4    H59   1.106334 S    
C50   C51   1.426026 A    
C16   H9    1.105642 S    
C6    C63   1.503059 S    
C66   O39   1.223553 D    
C19   O25   1.220213 D    
C10   H3    1.107614 S    
C12   H6    1.105863 S    
O58   H43   1.013998 S    
Ba1   Ba2   4.656168 S    
C26   C29   1.399381 A    
O2    Ba2   2.793179 S    
C2    C3    1.567852 S    
O60   H46   1.013531 S    
P5    C56   1.861686 S    
C15   C16   1.531145 S    
O13   Ba2   2.987098 S    
C51   C52   1.409766 A    
O6    C10   1.407980 S    
O44   H27   1.006033 S    
O38   H22   1.013231 S    
C16   C74   1.496959 S    
C69   O45   1.223043 D    
O64   H50   1.010453 S    
C34   C35   1.338419 D    
C62   O31   1.222682 D    
C42   H49   1.081864 S    
C14   C73   1.503150 S    
C60   H15   1.079197 S    
C43   C44   1.399651 A    
C67   O41   1.217311 D    
O32   H19   1.013361 S    
P4    O12   1.551700 D    
P8    O24   1.746762 S    
O5    C6    1.408617 S    
