data_mof_unit_51581.cif
_audit_creation_date              2012-10-26T18:27:56-0400
_audit_creation_method            fapswitch 2.2
_symmetry_space_group_name_H-M    P1
_symmetry_Int_Tables_number       1
_space_group_crystal_system       triclinic
_cell_length_a                    15.887537
_cell_length_b                    11.039811
_cell_length_c                    9.836008
_cell_angle_alpha                 111.157474
_cell_angle_beta                  98.135082
_cell_angle_gamma                 90.801206
_cell_volume                      1588.74928435

loop_
_atom_site_label
_atom_site_type_symbol
_atom_type_description
_atom_site_fract_x
_atom_site_fract_y
_atom_site_fract_z
_atom_type_partial_charge
C1    C     C_R   0.492788 0.254208 0.440891 0.541568
C2    C     C_2   0.483058 0.070651 0.517712 -0.162363
C3    C     C_2   0.502031 0.885161 0.590100 -0.101077
C4    C     C_R   0.340367 0.500150 0.501264 0.536875
C5    C     C_2   0.470411 0.931148 0.485517 0.234475
C6    C     C_2   0.508462 0.509166 0.081829 0.027745
C7    C     C_2   0.490996 0.493153 0.920851 0.082801
C8    C     C_R   0.503515 0.745870 0.558916 0.556338
C9    C     C_R   0.659641 0.499998 0.498774 0.544733
C10   C     C_3   0.054979 0.406636 0.586477 -0.056835
C11   C     C_3   0.033195 0.445029 0.336988 -0.077907
C12   C     C_3   0.955934 0.404390 0.582156 -0.068578
C13   C     C_3   0.935635 0.437043 0.339106 -0.207947
C14   C     C_1   0.748941 0.498273 0.496358 -0.038965
C15   C     C_3   0.082859 0.490471 0.498863 0.094611
C16   C     C_3   0.933459 0.439491 0.738862 -0.432085
C17   C     C_3   0.346879 0.863057 0.316685 0.003308
C18   C     C_3   0.296108 0.753312 0.336184 -0.237035
C19   C     C_3   0.200316 0.763140 0.302196 -0.504457
C20   C     C_3   0.623046 0.735745 0.948933 0.077138
C21   C     C_3   0.684893 0.815453 0.087879 -0.295646
C22   C     C_3   0.697255 0.956814 0.100903 -0.490714
C23   C     C_3   0.916845 0.493529 0.500037 0.065634
C24   C     C_3   0.086349 0.268016 0.541683 -0.429012
C25   C     C_3   0.061060 0.319956 0.224817 -0.423706
C26   C     C_3   0.959912 0.633619 0.574607 -0.224865
C27   C     C_3   0.057741 0.631250 0.580135 -0.249634
C28   C     C_1   0.824438 0.496387 0.497024 -0.077081
C29   C     C_1   0.175437 0.495720 0.501928 -0.080423
C30   C     C_1   0.251003 0.498673 0.503015 -0.055779
C31   C     C_2   0.482994 0.115328 0.408320 -0.134247
Cu1   Cu    Cu3+1 0.514650 0.521810 0.644910 0.959674
Cu2   Cu    Cu3+1 0.485350 0.478190 0.355090 0.934741
H1    H     H_    0.926999 0.303706 0.518182 0.131921
H2    H     H_    0.046480 0.522678 0.293838 0.121988
H3    H     H_    0.907843 0.334702 0.285154 0.115996
H4    H     H_    0.903739 0.492376 0.273903 0.107928
H5    H     H_    0.089507 0.669335 0.697330 0.107495
H6    H     H_    0.079707 0.698448 0.528813 0.106581
H7    H     H_    0.944594 0.680951 0.687951 0.117142
H8    H     H_    0.959868 0.538871 0.812308 0.128785
H9    H     H_    0.863389 0.433209 0.735781 0.152890
H10   H     H_    0.960581 0.369470 0.787802 0.119629
H11   H     H_    0.330765 0.856016 0.200296 0.138653
H12   H     H_    0.086752 0.456993 0.702926 0.131254
H13   H     H_    0.326779 0.959342 0.386434 0.114487
H14   H     H_    0.313354 0.658068 0.260617 0.200535
H15   H     H_    0.312472 0.757981 0.451690 0.160961
H16   H     H_    0.181043 0.856119 0.379167 0.139662
H17   H     H_    0.165812 0.681119 0.315632 0.142894
H18   H     H_    0.182167 0.757763 0.186767 0.139296
H19   H     H_    0.561440 0.783457 0.953373 0.147014
H20   H     H_    0.650450 0.735402 0.851035 0.173789
H21   H     H_    0.659627 0.813091 0.186783 0.175297
H22   H     H_    0.747587 0.771861 0.084716 0.163738
H23   H     H_    0.934705 0.694305 0.511014 0.111303
H24   H     H_    0.723180 0.961769 0.003759 0.141522
H25   H     H_    0.742910 0.011663 0.202195 0.148660
H26   H     H_    0.635642 0.003346 0.108349 0.155623
H27   H     H_    0.082007 0.230932 0.631688 0.114276
H28   H     H_    0.046615 0.198649 0.441532 0.125365
H29   H     H_    0.153872 0.266924 0.524447 0.140182
H30   H     H_    0.036570 0.231032 0.237203 0.131433
H31   H     H_    0.034727 0.313290 0.111307 0.114827
H32   H     H_    0.131428 0.320873 0.232964 0.144803
H33   H     H_    0.494514 0.136618 0.632540 0.120404
H34   H     H_    0.528620 0.951750 0.700472 0.038317
H35   H     H_    0.473335 0.049465 0.293581 0.136385
H36   H     H_    0.435416 0.432014 0.852152 0.081785
H37   H     H_    0.559414 0.578210 0.155078 0.196044
H38   H     H_    0.414531 0.381401 0.066546 0.191312
N1    N     N_2   0.463320 0.445430 0.137380 -0.377365
N2    N     N_2   0.536720 0.554500 0.862620 -0.055119
O1    O     O_R   0.507820 0.332330 0.577400 -0.498148
O2    O     O_3   0.613026 0.607373 0.944289 -0.506358
O3    O     O_R   0.483070 0.295500 0.332660 -0.493057
O4    O     O_R   0.391820 0.518430 0.622420 -0.512106
O5    O     O_R   0.367070 0.481600 0.377680 -0.503850
O6    O     O_R   0.516930 0.704500 0.667340 -0.542270
O7    O     O_R   0.492180 0.667670 0.422600 -0.437693
O8    O     O_R   0.632930 0.518400 0.622320 -0.474807
O9    O     O_R   0.608180 0.481570 0.377580 -0.495326
O10   O     O_3   0.435343 0.847811 0.344040 -0.545368

loop_
_geom_bond_atom_site_label_1
_geom_bond_atom_site_label_2
_ccdc_geom_bond_type
C24   H28   S    
C18   H14   S    
C22   H24   S    
C7    N2    D    
C6    N1    D    
Cu1   O8    S    
C12   C23   S    
C26   C27   S    
C1    O1    A    
C10   C15   S    
Cu1   O1    S    
C21   H21   S    
C5    O10   S    
Cu2   O5    S    
C11   C25   S    
C27   H5    S    
C1    C31   S    
C13   C23   S    
C18   C19   S    
C25   H30   S    
C23   C26   S    
Cu2   N1    S    
Cu1   O4    S    
C11   C15   S    
C12   C16   S    
C27   H6    S    
C8    O6    A    
Cu2   O9    S    
C13   H4    S    
C9    O9    A    
C3    C5    D    
C21   C22   S    
N2    O2    S    
C15   C29   S    
C31   H35   S    
C25   H32   S    
C17   H13   S    
C13   H3    S    
C3    C8    S    
C22   H26   S    
C21   H22   S    
C10   C24   S    
C20   O2    S    
C18   H15   S    
C2    C31   D    
C17   O10   S    
C25   H31   S    
C9    C14   S    
C4    O5    A    
C29   C30   T    
C19   H16   S    
Cu2   O3    S    
C15   C27   S    
C24   H27   S    
C10   H12   S    
C17   C18   S    
C23   C28   S    
C16   H10   S    
C10   C12   S    
C2    C5    S    
C12   H1    S    
C16   H9    S    
Cu1   N2    S    
C6    H37   S    
C24   H29   S    
C1    O3    A    
C3    H34   S    
C20   H20   S    
C2    H33   S    
C26   H23   S    
C22   H25   S    
Cu2   O7    S    
C6    C7    S    
Cu1   Cu2   S    
C11   H2    S    
C7    H36   S    
C17   H11   S    
H38   N1    S    
C20   H19   S    
Cu1   O6    S    
C11   C13   S    
C19   H17   S    
C26   H7    S    
C19   H18   S    
C4    O4    A    
C20   C21   S    
C8    O7    A    
C14   C28   T    
C16   H8    S    
C4    C30   S    
C9    O8    A    
