data_mof_unit_12581.cif
_audit_creation_date              2012-12-10T16:56:37-0500
_audit_creation_method            fapswitch 2.2
_symmetry_space_group_name_H-M    P1
_symmetry_Int_Tables_number       1
_space_group_crystal_system       triclinic
_cell_length_a                    10.881802
_cell_length_b                    10.936136
_cell_length_c                    9.737054
_cell_angle_alpha                 92.399974
_cell_angle_beta                  88.712755
_cell_angle_gamma                 90.361213
_cell_volume                      1157.43154811

loop_
_atom_site_label
_atom_site_type_symbol
_atom_type_description
_atom_site_fract_x
_atom_site_fract_y
_atom_site_fract_z
_atom_type_partial_charge
C1    C     C_R   0.497452 0.265201 0.497043 0.794188
C2    C     C_3   0.878009 0.501906 0.490634 -0.012222
C3    C     C_3   0.928344 0.630261 0.544952 -0.181560
C4    C     C_3   0.933129 0.469192 0.337873 0.244986
C5    C     C_2   0.567668 0.929774 0.413157 -0.126129
C6    C     C_2   0.522324 0.864876 0.515494 -0.277220
C7    C     C_2   0.582725 0.062573 0.435685 0.103449
C8    C     C_2   0.487707 0.132149 0.486480 -0.087280
C9    C     C_2   0.456761 0.413432 0.923724 -0.020229
C10   C     C_2   0.499008 0.403954 0.068107 -0.008104
C11   C     C_R   0.260188 0.498739 0.500354 0.819616
C12   C     C_R   0.505938 0.734069 0.503132 0.854872
C13   C     C_R   0.739894 0.501372 0.497498 0.770456
C14   C     C_3   0.063356 0.406310 0.599922 -0.024509
C15   C     C_3   0.922534 0.403076 0.588272 -0.423486
C16   C     C_3   0.072917 0.631161 0.539265 -0.175096
C17   C     C_3   0.077687 0.471053 0.344680 -0.179179
C18   C     C_3   0.122184 0.498418 0.497342 -0.009789
Cu1   Cu    Cu3+1 0.500030 0.500020 0.638630 0.996205
Cu2   Cu    Cu3+1 0.499970 0.499980 0.361370 0.976272
H1    H     H_    0.083080 0.442220 0.705380 0.246274
H2    H     H_    0.100062 0.692409 0.454964 0.156596
H3    H     H_    0.897530 0.699477 0.473366 0.113788
H4    H     H_    0.599982 0.885675 0.317080 0.168363
H5    H     H_    0.503385 0.909100 0.615846 0.176439
H6    H     H_    0.564839 0.554800 0.890609 0.210730
H7    H     H_    0.464012 0.577620 0.114887 0.209102
H8    H     H_    0.888592 0.311409 0.553847 0.168889
H9    H     H_    0.881001 0.415465 0.693037 0.227090
H10   H     H_    0.111443 0.552398 0.289311 0.119406
N1    N     N_2   0.498630 0.498660 0.846910 -0.325661
N2    N     N_2   0.498590 0.498630 0.153040 -0.339607
O1    O     O_R   0.500020 0.321960 0.617040 -0.571362
O2    O     O_R   0.499980 0.321920 0.382900 -0.549132
O3    O     O_R   0.317710 0.500000 0.617070 -0.550838
O4    O     O_R   0.317670 0.499960 0.382930 -0.579512
O5    O     O_R   0.500020 0.678080 0.617100 -0.574178
O6    O     O_R   0.499980 0.678040 0.382960 -0.584024
O7    O     O_R   0.682330 0.500040 0.617070 -0.570037
O8    O     O_R   0.682290 0.500000 0.382930 -0.588654
C19   C     C_3   0.897135 0.562707 0.227918 -0.770113
H11   H     H_    0.922822 0.658052 0.257593 0.193711
H12   H     H_    0.947667 0.540793 0.129542 0.259676
H13   H     H_    0.799202 0.560198 0.200446 0.269372
C20   C     C_3   0.709617 0.112674 0.409192 -0.847417
H14   H     H_    0.721364 0.205355 0.456980 0.208251
H15   H     H_    0.778710 0.053391 0.455437 0.248339
H16   H     H_    0.728217 0.113669 0.296781 0.260218
C21   C     C_2   0.362993 0.079379 0.504931 0.803410
O9    O     O_2   0.314702 0.079886 0.619247 -0.622258
O10   O     O_R   0.303955 0.023268 0.392704 -0.740473
H17   H     H_    0.220297 0.988845 0.418741 0.330910
C22   C     C_2   0.359212 0.329311 0.876085 0.978716
O11   O     O_2   0.262675 0.371070 0.838380 -0.588838
O12   O     O_R   0.372602 0.203112 0.885676 -0.727957
H18   H     H_    0.293466 0.156777 0.866599 0.365126
C23   C     C_2   0.546599 0.285027 0.106778 0.967163
O13   O     O_2   0.656849 0.265741 0.097231 -0.638500
O14   O     O_R   0.465467 0.191735 0.143232 -0.723114
H19   H     H_    0.509134 0.112340 0.160012 0.339498
C24   C     C_3   0.114659 0.275841 0.592082 -0.687983
H20   H     H_    0.087174 0.228281 0.686705 0.245650
H21   H     H_    0.078168 0.220793 0.503906 0.246231
H22   H     H_    0.216053 0.278301 0.585717 0.272464
C25   C     C_3   0.133969 0.694747 0.665909 -0.739626
H23   H     H_    0.127992 0.638521 0.757863 0.273629
H24   H     H_    0.232176 0.715032 0.642977 0.227720
H25   H     H_    0.090260 0.784723 0.690696 0.236461
C26   C     C_2   0.871822 0.674532 0.682927 0.887494
O15   O     O_2   0.892589 0.622198 0.788433 -0.605869
O16   O     O_R   0.795328 0.776983 0.688045 -0.776151
H26   H     H_    0.762136 0.797886 0.784229 0.336051
C27   C     C_2   0.140980 0.368458 0.257350 0.880467
O17   O     O_2   0.134551 0.368939 0.132062 -0.583733
O18   O     O_R   0.209609 0.277862 0.316186 -0.766325
H27   H     H_    0.243527 0.215888 0.245233 0.385674
C28   C     C_3   0.886853 0.341215 0.282457 -0.735683
H28   H     H_    0.786787 0.331235 0.292623 0.265866
H29   H     H_    0.908270 0.326598 0.170965 0.275282
H30   H     H_    0.929507 0.264941 0.335201 0.197755

loop_
_geom_bond_atom_site_label_1
_geom_bond_atom_site_label_2
_ccdc_geom_bond_type
O12   H18   S    
C11   C18   S    
C1    C8    S    
C27   O18   S    
C19   H11   S    
C14   C18   S    
C3    H3    S    
Cu1   Cu2   S    
Cu1   N1    S    
C15   H8    S    
C1    O1    A    
C7    C8    D    
C28   H28   S    
C7    C20   S    
C14   H1    S    
C11   O4    A    
C3    C26   S    
C6    C12   S    
C5    C6    D    
Cu2   O8    S    
C23   O14   S    
C6    H5    S    
C4    C19   S    
C24   H21   S    
C27   O17   D    
C20   H15   S    
C12   O5    A    
C26   O16   S    
C2    C13   S    
C13   O8    A    
Cu1   O5    S    
C21   O10   S    
C9    C10   S    
Cu2   O2    S    
C28   H29   S    
O14   H19   S    
C17   C27   S    
C17   H10   S    
C19   H12   S    
C26   O15   D    
C1    O2    A    
C15   H9    S    
C22   O12   S    
O10   H17   S    
C10   C23   S    
Cu1   O1    S    
C5    C7    S    
C25   H24   S    
C20   H14   S    
C14   C24   S    
C24   H22   S    
C2    C4    S    
O18   H27   S    
Cu2   O6    S    
C25   H25   S    
C17   C18   S    
C2    C15   S    
Cu1   O7    S    
C4    C17   S    
C25   H23   S    
C19   H13   S    
C9    C22   S    
Cu2   N2    S    
C20   H16   S    
C16   H2    S    
H7    N2    S    
H6    N1    S    
C22   O11   D    
C11   O3    A    
C2    C3    S    
O16   H26   S    
Cu1   O3    S    
C28   H30   S    
C23   O13   D    
C5    H4    S    
C12   O6    A    
C24   H20   S    
C13   O7    A    
C9    N1    D    
Cu2   O4    S    
C10   N2    D    
C4    C28   S    
C16   C18   S    
C21   O9    D    
C14   C15   S    
C16   C25   S    
C8    C21   S    
C3    C16   S    
