data_mof_unit_58339.cif
_audit_creation_date              2012-12-10T18:43:43-0500
_audit_creation_method            fapswitch 2.2
_symmetry_space_group_name_H-M    P1
_symmetry_Int_Tables_number       1
_space_group_crystal_system       triclinic
_cell_length_a                    10.722787
_cell_length_b                    10.605393
_cell_length_c                    10.04113
_cell_angle_alpha                 89.68471
_cell_angle_beta                  104.869005
_cell_angle_gamma                 93.27931
_cell_volume                      1101.77848997

loop_
_atom_site_label
_atom_site_type_symbol
_atom_type_description
_atom_site_fract_x
_atom_site_fract_y
_atom_site_fract_z
_atom_type_partial_charge
C1    C     C_R   0.499954 0.260715 0.500263 0.859331
C2    C     C_R   0.500098 0.739286 0.499753 0.847912
C3    C     C_R   0.259021 0.504760 0.441370 0.937032
C4    C     C_R   0.741573 0.504435 0.558734 0.878559
C5    C     C_R   0.562819 0.595295 0.089365 -0.033940
C6    C     C_R   0.436549 0.405045 0.910413 -0.027017
C7    C     C_R   0.567584 0.594719 0.948193 0.457276
C8    C     C_R   0.432231 0.405349 0.051776 0.461863
C9    C     C_2   0.121720 0.523238 0.407506 -0.084557
C10   C     C_2   0.881550 0.521825 0.592719 -0.059806
C11   C     C_2   0.072414 0.563055 0.509277 -0.188010
C12   C     C_2   0.935236 0.564317 0.493086 -0.162534
C13   C     C_R   0.417938 0.059423 0.565105 -0.189421
C14   C     C_R   0.582083 0.940535 0.434904 -0.189110
C15   C     C_R   0.417525 0.930025 0.564220 -0.085647
C16   C     C_R   0.582504 0.069931 0.435802 -0.086764
C17   C     C_R   0.499644 0.871887 0.499183 -0.014121
C18   C     C_R   0.500394 0.128087 0.500837 -0.020507
H1    H     H_    0.876282 0.589367 0.392525 0.160587
H2    H     H_    0.133864 0.583935 0.611912 0.207739
H3    H     H_    0.352894 0.105612 0.613104 0.147591
H4    H     H_    0.647087 0.894331 0.386861 0.146266
H5    H     H_    0.352947 0.875349 0.612608 0.158447
H6    H     H_    0.647060 0.124588 0.387385 0.160038
N1    N     N_R   0.499970 0.499970 0.857200 -0.193185
N2    N     N_R   0.500030 0.500030 0.142800 -0.193200
O1    O     O_R   0.499990 0.316750 0.614620 -0.657460
O2    O     O_R   0.500010 0.683250 0.385380 -0.660894
O3    O     O_R   0.499990 0.316780 0.385290 -0.533012
O4    O     O_R   0.500010 0.683220 0.614710 -0.533686
O5    O     O_R   0.317810 0.500000 0.571850 -0.664082
O6    O     O_R   0.682190 0.500000 0.428150 -0.652275
O7    O     O_R   0.317810 0.500030 0.342520 -0.520494
O8    O     O_R   0.682190 0.499970 0.657480 -0.543079
Zn1   Zn    Zn3+2 0.500000 0.499980 0.653120 0.995104
Zn2   Zn    Zn3+2 0.500000 0.500020 0.346880 1.003278
N3    N     N_3   0.617765 0.702707 0.173406 -0.354797
H7    H     H_    0.673409 0.674564 0.268571 0.221137
H8    H     H_    0.543268 0.758645 0.182100 0.237799
N4    N     N_3   0.379889 0.298539 0.825672 -0.351257
H9    H     H_    0.453360 0.241645 0.816090 0.232868
H10   H     H_    0.323880 0.327554 0.730997 0.237089
N5    N     N_3   0.958866 0.489176 0.726318 -0.428839
H11   H     H_    0.932718 0.544020 0.799882 0.244092
H12   H     H_    0.935523 0.394584 0.744043 0.204351
N6    N     N_3   0.044228 0.495852 0.270078 -0.401662
H13   H     H_    0.000115 0.577881 0.229087 0.213625
H14   H     H_    0.972336 0.426317 0.274752 0.207396
S1    S     S_3+6 0.655400 0.729524 0.897990 0.056539
O9    O     O_2   0.561701 0.831050 0.853181 -0.299824
O10   O     O_2   0.760627 0.779763 0.018655 -0.293657
O11   O     O_3   0.730087 0.705327 0.774108 -0.545177
H15   H     H_    0.759363 0.790527 0.749413 0.366088
S2    S     S_3+6 0.344408 0.270611 0.102239 0.069311
O12   O     O_2   0.239579 0.219505 0.981694 -0.281523
O13   O     O_2   0.438303 0.169417 0.148077 -0.307233
O14   O     O_3   0.269095 0.295514 0.225500 -0.518199
H16   H     H_    0.240274 0.210404 0.250975 0.363652

loop_
_geom_bond_atom_site_label_1
_geom_bond_atom_site_label_2
_ccdc_geom_bond_type
C6    C8    A    
N5    H11   S    
S2    O13   D    
C15   C17   A    
N3    H7    S    
C3    C9    S    
C5    N3    S    
C9    C11   D    
C16   H6    S    
C8    S2    S    
C14   C17   A    
C2    O4    A    
C11   C12   S    
S1    O11   S    
C14   H4    S    
C1    O3    A    
C1    C18   S    
C13   H3    S    
C9    N6    S    
N3    H8    S    
C16   C18   A    
C2    C17   S    
C3    O5    A    
N5    H12   S    
O3    Zn2   S    
O2    Zn2   S    
O14   H16   S    
C4    O6    A    
C10   C12   D    
O4    Zn1   S    
N1    Zn1   S    
C13   C18   A    
C12   H1    S    
C15   H5    S    
N4    H9    S    
S1    O9    D    
C6    N4    S    
C13   C15   A    
C4    O8    A    
C14   C16   A    
C11   H2    S    
C6    N1    A    
C3    O7    A    
C4    C10   S    
C5    N2    A    
N6    H14   S    
O6    Zn2   S    
O7    Zn2   S    
C8    N2    A    
O11   H15   S    
C7    S1    S    
C1    O1    A    
O8    Zn1   S    
N2    Zn2   S    
C5    C7    A    
O5    Zn1   S    
N6    H13   S    
C2    O2    A    
O1    Zn1   S    
C10   N5    S    
S2    O12   D    
N4    H10   S    
S1    O10   D    
S2    O14   S    
C7    N1    A    
