data_mof_unit_63611.cif
_audit_creation_date              2012-12-10T19:20:23-0500
_audit_creation_method            fapswitch 2.2
_symmetry_space_group_name_H-M    P1
_symmetry_Int_Tables_number       1
_space_group_crystal_system       triclinic
_cell_length_a                    22.633177
_cell_length_b                    22.652048
_cell_length_c                    14.775607
_cell_angle_alpha                 89.974411
_cell_angle_beta                  90.025356
_cell_angle_gamma                 89.997578
_cell_volume                      7575.27211668

loop_
_atom_site_label
_atom_site_type_symbol
_atom_type_description
_atom_site_fract_x
_atom_site_fract_y
_atom_site_fract_z
_atom_type_partial_charge
C1    C     C_R   0.079530 0.420457 0.500038 0.821650
C2    C     C_R   0.920460 0.579545 0.499984 0.818161
C3    C     C_R   0.920462 0.420460 0.499999 0.818983
C4    C     C_R   0.079543 0.579539 0.500000 0.815570
C5    C     C_R   0.579512 0.920435 0.500015 0.817802
C6    C     C_R   0.420454 0.079539 0.499975 0.818157
C7    C     C_R   0.420468 0.920454 0.500000 0.817892
C8    C     C_R   0.579538 0.079544 0.500000 0.815827
C9    C     C_R   0.973662 0.546745 0.951754 0.130136
C10   C     C_R   0.026582 0.453251 0.048241 0.131728
C11   C     C_R   0.026584 0.453258 0.951834 0.133507
C12   C     C_R   0.973692 0.546754 0.048150 0.131086
C13   C     C_R   0.476254 0.048136 0.951732 0.130386
C14   C     C_R   0.523856 0.951831 0.048242 0.129808
C15   C     C_R   0.523853 0.951833 0.951837 0.130594
C16   C     C_R   0.476331 0.048165 0.048130 0.131584
C17   C     C_R   0.000090 0.499991 0.902903 -0.137001
C18   C     C_R   0.000108 0.499988 0.097091 -0.137976
C19   C     C_R   0.500033 0.999977 0.902897 -0.138210
C20   C     C_R   0.500078 0.999994 0.097084 -0.136486
C21   C     C_R   0.240995 0.715077 0.577831 0.366945
C22   C     C_R   0.757269 0.286409 0.423324 0.370304
C23   C     C_R   0.786445 0.257265 0.576648 0.371522
C24   C     C_R   0.215171 0.740879 0.422129 0.367611
C25   C     C_R   0.780605 0.736415 0.419703 0.368986
C26   C     C_R   0.214274 0.257901 0.577443 0.369060
C27   C     C_R   0.241997 0.285819 0.423002 0.366280
C28   C     C_R   0.763429 0.720046 0.581269 0.362988
C29   C     C_R   0.742789 0.213287 0.576281 0.366426
C30   C     C_R   0.259239 0.784447 0.421745 0.370352
C31   C     C_R   0.284647 0.759061 0.578180 0.371241
C32   C     C_R   0.713212 0.242828 0.423736 0.367991
C33   C     C_R   0.285979 0.242172 0.423252 0.366156
C34   C     C_R   0.718971 0.763221 0.580202 0.369177
C35   C     C_R   0.736185 0.779624 0.418647 0.362797
C36   C     C_R   0.257924 0.213908 0.576993 0.362733
C37   C     C_R   0.206331 0.706265 0.499989 -0.238205
C38   C     C_R   0.793737 0.293693 0.499981 -0.230976
C39   C     C_R   0.794092 0.706700 0.500783 -0.234142
C40   C     C_R   0.206267 0.293726 0.500266 -0.229884
C41   C     C_R   0.706257 0.206336 0.500014 -0.238168
C42   C     C_R   0.293816 0.793616 0.499966 -0.231128
C43   C     C_R   0.293697 0.206304 0.500066 -0.236605
C44   C     C_R   0.705544 0.792986 0.499143 -0.234103
C45   C     C_1   0.000040 0.499990 0.802615 0.271637
C46   C     C_1   0.000052 0.499983 0.197383 0.271322
C47   C     C_1   0.500014 0.999984 0.802613 0.271211
C48   C     C_1   0.500038 0.999992 0.197381 0.272168
C49   C     C_1   0.161494 0.661471 0.499994 0.123137
C50   C     C_1   0.838539 0.338492 0.499989 0.110146
C51   C     C_1   0.838761 0.661745 0.500478 0.115879
C52   C     C_1   0.161451 0.338503 0.500285 0.107322
C53   C     C_1   0.661443 0.161520 0.500008 0.123023
C54   C     C_1   0.338594 0.838439 0.499987 0.110168
C55   C     C_1   0.338510 0.161487 0.499956 0.122428
C56   C     C_1   0.660989 0.838039 0.499491 0.115699
C57   C     C_1   0.876006 0.375977 0.499996 -0.179045
C58   C     C_1   0.124019 0.624013 0.499998 -0.155929
C59   C     C_1   0.123980 0.375978 0.500169 -0.172429
C60   C     C_1   0.876097 0.624134 0.500046 -0.159467
C61   C     C_1   0.376037 0.875947 0.499997 -0.178461
C62   C     C_1   0.623991 0.124040 0.500002 -0.155355
C63   C     C_1   0.623762 0.875749 0.499949 -0.159800
C64   C     C_1   0.375979 0.124018 0.499931 -0.147972
Cu1   Cu    Cu3+1 0.000000 0.500000 0.589220 1.017379
Cu2   Cu    Cu3+1 1.000000 0.500000 0.410780 1.019801
Cu3   Cu    Cu3+1 0.500000 0.000000 0.589220 1.021436
Cu4   Cu    Cu3+1 0.500000 0.000000 0.410780 1.019252
N1    N     N_1   0.000000 0.500000 0.276710 -0.141806
N2    N     N_1   0.000000 0.500000 0.723290 -0.141964
N3    N     N_1   0.500000 1.000000 0.276710 -0.141493
N4    N     N_1   0.500000 0.000000 0.723290 -0.141438
O1    O     O_R   0.059850 0.440160 0.575320 -0.562427
O2    O     O_R   0.940150 0.559840 0.424680 -0.557014
O3    O     O_R   0.940150 0.559840 0.575320 -0.567703
O4    O     O_R   0.059850 0.440160 0.424680 -0.566871
O5    O     O_R   0.940150 0.440160 0.424680 -0.572014
O6    O     O_R   0.059850 0.559840 0.575320 -0.569159
O7    O     O_R   0.059850 0.559840 0.424680 -0.563238
O8    O     O_R   0.940150 0.440160 0.575320 -0.566223
O9    O     O_R   0.559850 0.940160 0.575320 -0.557601
O10   O     O_R   0.440150 0.059840 0.424680 -0.559836
O11   O     O_R   0.440150 0.059840 0.575320 -0.564212
O12   O     O_R   0.559850 0.940160 0.424680 -0.568247
O13   O     O_R   0.440150 0.940160 0.424680 -0.571802
O14   O     O_R   0.559850 0.059840 0.575320 -0.569118
O15   O     O_R   0.559850 0.059840 0.424680 -0.563391
O16   O     O_R   0.440150 0.940160 0.575320 -0.566334
I1    I     I_    0.933854 0.617553 0.121842 -0.288758
I2    I     I_    0.066695 0.382609 0.878110 -0.308901
I3    I     I_    0.066665 0.382573 0.122071 -0.346103
I4    I     I_    0.933657 0.617466 0.877936 -0.338142
I5    I     I_    0.440639 0.121128 0.121800 -0.304233
I6    I     I_    0.559879 0.879019 0.878128 -0.285116
I7    I     I_    0.559874 0.879007 0.122091 -0.339850
I8    I     I_    0.440122 0.120916 0.877870 -0.341216
O17   O     O_3   0.824081 0.261182 0.650406 -0.519454
C65   C     C_3   0.809683 0.311340 0.702927 -0.228323
H1    H     H_    0.762438 0.325051 0.697987 0.118079
H2    H     H_    0.838502 0.348969 0.683972 0.178782
H3    H     H_    0.818639 0.301004 0.775029 0.192415
O18   O     O_3   0.177826 0.735383 0.348393 -0.518934
C66   C     C_3   0.199997 0.691102 0.290540 -0.212012
H4    H     H_    0.204737 0.647942 0.325795 0.143283
H5    H     H_    0.242842 0.704425 0.260214 0.152815
H6    H     H_    0.168204 0.684703 0.234239 0.196808
O19   O     O_3   0.235441 0.677812 0.651615 -0.522288
C67   C     C_3   0.191125 0.700044 0.709402 -0.218919
H7    H     H_    0.147920 0.704690 0.674145 0.144515
H8    H     H_    0.204434 0.742918 0.739542 0.154502
H9    H     H_    0.184748 0.668376 0.765840 0.194171
O20   O     O_3   0.761239 0.323965 0.349517 -0.523392
C68   C     C_3   0.811426 0.309473 0.297032 -0.237907
H10   H     H_    0.824969 0.262211 0.301856 0.121830
H11   H     H_    0.849181 0.338106 0.316122 0.178394
H12   H     H_    0.801161 0.318545 0.224939 0.191441
O21   O     O_3   0.237427 0.322846 0.348630 -0.526803
C69   C     C_3   0.186534 0.308409 0.297651 -0.203898
H13   H     H_    0.149597 0.338264 0.316042 0.187896
H14   H     H_    0.171924 0.261598 0.304888 0.118641
H15   H     H_    0.196418 0.315830 0.225004 0.208222
O22   O     O_3   0.773349 0.688752 0.660445 -0.524029
C70   C     C_3   0.827409 0.706566 0.699945 -0.204551
H16   H     H_    0.840629 0.752763 0.683273 0.115030
H17   H     H_    0.863241 0.675823 0.679935 0.185112
H18   H     H_    0.822942 0.703851 0.774587 0.211431
O23   O     O_3   0.813734 0.726444 0.342479 -0.516329
C71   C     C_3   0.788158 0.679443 0.293649 -0.181203
H19   H     H_    0.743230 0.690970 0.269141 0.148649
H20   H     H_    0.786568 0.638111 0.334282 0.139760
H21   H     H_    0.815837 0.670551 0.233279 0.215457
O24   O     O_3   0.177325 0.262401 0.651884 -0.520656
C72   C     C_3   0.192153 0.312994 0.703145 -0.197419
H22   H     H_    0.162850 0.350320 0.684459 0.185381
H23   H     H_    0.239234 0.326957 0.696553 0.112490
H24   H     H_    0.184253 0.303099 0.775669 0.209331
O25   O     O_3   0.320486 0.764769 0.653739 -0.519062
C73   C     C_3   0.304871 0.816143 0.702551 -0.227914
H25   H     H_    0.257791 0.829711 0.694159 0.117700
H26   H     H_    0.334168 0.853304 0.683153 0.178488
H27   H     H_    0.312062 0.807539 0.775644 0.192519
O26   O     O_3   0.674090 0.239103 0.351925 -0.518191
C74   C     C_3   0.694796 0.196270 0.290357 -0.211455
H28   H     H_    0.700385 0.152293 0.322838 0.142626
H29   H     H_    0.736866 0.210358 0.258348 0.152122
H30   H     H_    0.661632 0.191201 0.235613 0.198017
O27   O     O_3   0.738995 0.174268 0.648173 -0.523608
C75   C     C_3   0.696104 0.195052 0.709632 -0.218971
H31   H     H_    0.652084 0.200493 0.677116 0.146491
H32   H     H_    0.710141 0.237190 0.741395 0.154767
H33   H     H_    0.691077 0.162048 0.764570 0.193638
O28   O     O_3   0.265025 0.820192 0.346129 -0.523286
C76   C     C_3   0.316453 0.804485 0.297416 -0.236348
H34   H     H_    0.329852 0.757386 0.305704 0.121456
H35   H     H_    0.353727 0.833600 0.317002 0.178356
H36   H     H_    0.307956 0.811791 0.224320 0.192028
O29   O     O_3   0.726313 0.810947 0.339472 -0.524716
C77   C     C_3   0.672117 0.793415 0.300102 -0.204874
H37   H     H_    0.636520 0.824483 0.319910 0.185112
H38   H     H_    0.658550 0.747367 0.317084 0.116073
H39   H     H_    0.676584 0.795896 0.225438 0.210638
O30   O     O_3   0.262334 0.175436 0.649500 -0.527015
C78   C     C_3   0.305797 0.196626 0.709728 -0.187257
H40   H     H_    0.292603 0.239522 0.739924 0.153055
H41   H     H_    0.349722 0.200779 0.676557 0.149887
H42   H     H_    0.310554 0.164508 0.765942 0.211628
O31   O     O_3   0.324178 0.237701 0.350450 -0.518996
C79   C     C_3   0.302473 0.194476 0.290337 -0.182476
H43   H     H_    0.258747 0.207117 0.262239 0.146940
H44   H     H_    0.299725 0.150297 0.322963 0.143525
H45   H     H_    0.333538 0.190747 0.232633 0.216884
O32   O     O_3   0.685680 0.773046 0.657315 -0.515760
C80   C     C_3   0.711040 0.820047 0.706412 -0.182920
H46   H     H_    0.713360 0.861265 0.665579 0.138558
H47   H     H_    0.755616 0.808258 0.732084 0.149722
H48   H     H_    0.682779 0.829317 0.766025 0.214411

loop_
_geom_bond_atom_site_label_1
_geom_bond_atom_site_label_2
_ccdc_geom_bond_type
C74   H30   S    
C39   C51   S    
Cu3   O11   S    
O29   C77   S    
C6    O10   A    
C31   C42   A    
C78   H40   S    
C75   H33   S    
C71   H19   S    
C15   I6    S    
O17   C65   S    
C34   O32   S    
C70   H16   S    
C80   H46   S    
C27   C33   A    
C15   C19   A    
Cu2   O7    S    
C21   C31   A    
Cu3   O16   S    
C22   C32   A    
C23   C29   A    
C78   H41   S    
C17   C45   S    
O30   C78   S    
C1    C59   S    
C2    C60   S    
C70   H17   S    
Cu2   N1    S    
C74   H28   S    
C22   C38   A    
C26   C36   A    
Cu1   O1    S    
C67   H7    S    
C5    C63   S    
Cu3   N4    S    
C6    C64   S    
C69   H13   S    
C7    C61   S    
C46   N1    T    
C77   H39   S    
C77   H38   S    
C79   H45   S    
O27   C75   S    
O24   C72   S    
C72   H24   S    
C32   C41   A    
Cu1   O6    S    
C31   O25   S    
C32   O26   S    
C2    O2    A    
C68   H12   S    
C27   O21   S    
C28   C34   A    
C76   H34   S    
Cu1   O8    S    
C36   O30   S    
Cu4   O13   S    
C50   C57   T    
C33   O31   S    
C3    O8    A    
C18   C46   S    
C9    I4    S    
O20   C68   S    
C24   C30   A    
C80   H47   S    
C13   C19   A    
C13   I8    S    
Cu3   Cu4   S    
C33   C43   A    
C14   C20   A    
C12   I1    S    
C78   H42   S    
C34   C44   A    
C75   H31   S    
C4    O7    A    
C73   H25   S    
O31   C79   S    
C5    O12   A    
C70   H18   S    
C28   C39   A    
C40   C52   S    
C49   C58   T    
C69   H15   S    
Cu4   O12   S    
C77   H37   S    
C35   O29   S    
C4    O6    A    
C52   C59   T    
C24   O18   S    
C5    O9    A    
C53   C62   T    
C44   C56   S    
C30   O28   S    
C7    O16   A    
C27   C40   A    
C16   C20   A    
Cu2   O4    S    
C55   C64   T    
C24   C37   A    
C16   I5    S    
C56   C63   T    
C66   H5    S    
C20   C48   S    
C76   H36   S    
C35   C44   A    
C41   C53   S    
C37   C49   S    
C21   O19   S    
C73   H26   S    
C25   C35   A    
C3    C57   S    
C9    C17   A    
C79   H43   S    
C23   O17   S    
C10   I3    S    
Cu3   O9    S    
C22   O20   S    
C72   H22   S    
C13   C16   A    
C76   H35   S    
O19   C67   S    
C12   C18   A    
O23   C71   S    
C3    O5    A    
C71   H21   S    
C14   I7    S    
C26   O24   S    
O32   C80   S    
C68   H10   S    
C28   O22   S    
C43   C55   S    
C74   H29   S    
Cu2   O5    S    
C11   C17   A    
Cu3   O14   S    
C6    O11   A    
C29   C41   A    
C45   N2    T    
O26   C74   S    
C1    O4    A    
C75   H32   S    
C73   H27   S    
C71   H20   S    
C29   O27   S    
C67   H9    S    
C38   C50   S    
C54   C61   T    
C65   H3    S    
O25   C73   S    
C65   H2    S    
Cu1   O3    S    
C23   C38   A    
C8    O15   A    
C1    O1    A    
C25   O23   S    
Cu4   O10   S    
O21   C69   S    
C25   C39   A    
C11   I2    S    
C26   C40   A    
C7    O13   A    
C10   C18   A    
Cu4   N3    S    
C79   H44   S    
C80   H48   S    
C67   H8    S    
C66   H6    S    
C8    O14   A    
Cu1   Cu2   S    
O18   C66   S    
C9    C12   A    
C69   H14   S    
C47   N4    T    
C10   C11   A    
C21   C37   A    
O28   C76   S    
C65   H1    S    
C19   C47   S    
C4    C58   S    
C66   H4    S    
C72   H23   S    
Cu4   O15   S    
C14   C15   A    
C30   C42   A    
C36   C43   A    
C51   C60   T    
C48   N3    T    
O22   C70   S    
C42   C54   S    
C2    O3    A    
Cu1   N2    S    
C8    C62   S    
C68   H11   S    
Cu2   O2    S    
