data_mof_unit_29713.cif
_audit_creation_date              2012-12-10T17:02:15-0500
_audit_creation_method            fapswitch 2.2
_symmetry_space_group_name_H-M    P1
_symmetry_Int_Tables_number       1
_space_group_crystal_system       triclinic
_cell_length_a                    10.623641
_cell_length_b                    10.674995
_cell_length_c                    10.089219
_cell_angle_alpha                 90.645174
_cell_angle_beta                  89.761333
_cell_angle_gamma                 90.086759
_cell_volume                      1144.10753565

loop_
_atom_site_label
_atom_site_type_symbol
_atom_type_description
_atom_site_fract_x
_atom_site_fract_y
_atom_site_fract_z
_atom_type_partial_charge
C1    C     C_R   0.502209 0.262543 0.499042 0.895643
C2    C     C_R   0.065663 0.386057 0.556827 0.099067
C3    C     C_R   0.128417 0.488992 0.500109 -0.091165
C4    C     C_R   0.064760 0.586651 0.439901 -0.209157
C5    C     C_R   0.936105 0.586343 0.439244 -0.210473
C6    C     C_R   0.871630 0.488534 0.499080 -0.096854
C7    C     C_2   0.466280 0.932329 0.391534 -0.182539
C8    C     C_2   0.448662 0.865427 0.502095 0.042487
C9    C     C_2   0.460071 0.066976 0.392818 -0.158692
C10   C     C_2   0.508042 0.129804 0.495763 -0.341493
C11   C     C_2   0.530712 0.596031 0.928771 0.234879
C12   C     C_R   0.260760 0.496993 0.500181 0.856668
C13   C     C_2   0.502820 0.600327 0.075782 -0.186226
C14   C     C_R   0.489169 0.736986 0.500749 0.901170
C15   C     C_R   0.739255 0.496850 0.499742 0.862453
C16   C     C_R   0.130594 0.282560 0.610008 -0.194132
C17   C     C_R   0.064516 0.181937 0.663455 -0.137324
C18   C     C_R   0.933507 0.181975 0.663536 -0.135134
C19   C     C_R   0.868108 0.282572 0.610054 -0.180565
C20   C     C_R   0.933694 0.385948 0.556568 0.095088
H1    H     H_    0.115043 0.664258 0.395541 0.151912
H2    H     H_    0.550350 0.083149 0.579659 0.166435
H3    H     H_    0.489445 0.690804 0.123652 0.158400
H4    H     H_    0.538739 0.421490 0.105958 0.184363
H5    H     H_    0.232209 0.277443 0.609104 0.138902
H6    H     H_    0.115094 0.103234 0.703878 0.135066
H7    H     H_    0.882362 0.103298 0.704017 0.132587
H8    H     H_    0.766489 0.277562 0.609448 0.142322
H9    H     H_    0.886454 0.663771 0.394508 0.149596
H10   H     H_    0.501443 0.889618 0.300409 0.143577
H11   H     H_    0.423796 0.113944 0.305952 0.172510
N1    N     N_2   0.501340 0.501330 0.852150 -0.057234
N2    N     N_2   0.501380 0.501360 0.147810 -0.201816
O1    O     O_R   0.499980 0.319060 0.613040 -0.631081
O2    O     O_R   0.500020 0.319100 0.386900 -0.610097
O3    O     O_R   0.316750 0.499980 0.613090 -0.624280
O4    O     O_R   0.316790 0.500020 0.386950 -0.602107
O5    O     O_R   0.499980 0.680900 0.613100 -0.579620
O6    O     O_R   0.500020 0.680940 0.386960 -0.638607
O7    O     O_R   0.683210 0.499980 0.613050 -0.616708
O8    O     O_R   0.683250 0.500020 0.386910 -0.604418
Zn1   Zn    Zn3+2 0.499970 0.499970 0.650990 0.944580
Zn2   Zn    Zn3+2 0.500030 0.500030 0.349010 0.936388
N3    N     N_3   0.590461 0.702633 0.869994 -0.416278
H12   H     H_    0.607128 0.771603 0.942212 0.139577
H13   H     H_    0.678662 0.673591 0.835232 0.193148
C21   C     C_3   0.411693 0.406883 0.896131 -0.631577
H14   H     H_    0.355210 0.373990 0.810892 0.246091
H15   H     H_    0.462091 0.323257 0.932741 0.171305
H16   H     H_    0.342413 0.443925 0.969414 0.195485
C22   C     C_3   0.376130 0.912257 0.622924 -0.880317
H17   H     H_    0.303667 0.841983 0.650555 0.237168
H18   H     H_    0.441108 0.925194 0.707910 0.243009
H19   H     H_    0.324827 0.000797 0.604636 0.248017

loop_
_geom_bond_atom_site_label_1
_geom_bond_atom_site_label_2
_ccdc_geom_bond_type
C11   N1    D    
O6    Zn2   S    
C13   N2    D    
C4    H1    S    
C2    C16   A    
C14   O5    A    
C6    C20   A    
C9    C10   D    
O3    Zn1   S    
C21   H14   S    
O1    Zn1   S    
C22   H19   S    
C19   C20   A    
O7    Zn1   S    
C2    C3    A    
C6    C15   S    
C7    C8    D    
C21   H15   S    
C7    H10   S    
C10   H2    S    
C19   H8    S    
O8    Zn2   S    
C8    C22   S    
C15   O8    A    
C22   H17   S    
C17   H6    S    
N3    H13   S    
C1    O1    A    
C17   C18   A    
C21   H16   S    
C5    H9    S    
C5    C6    A    
N1    C21   S    
C15   O7    A    
C11   C13   S    
C12   O3    A    
C1    C10   S    
C9    H11   S    
C2    C20   A    
C3    C4    A    
N2    Zn2   S    
O5    Zn1   S    
C11   N3    S    
O2    Zn2   S    
N3    H12   S    
C13   H3    S    
C18   C19   A    
C12   O4    A    
C16   H5    S    
C7    C9    S    
C1    O2    A    
N1    Zn1   S    
C4    C5    A    
C8    C14   S    
C3    C12   S    
C14   O6    A    
O4    Zn2   S    
C18   H7    S    
H4    N2    S    
C16   C17   A    
C22   H18   S    
