data_mof_unit_68121.cif
_audit_creation_date              2013-03-05T15:58:26-0500
_audit_creation_method            fapswitch 2.2
_symmetry_space_group_name_H-M    P1
_symmetry_Int_Tables_number       1
_space_group_crystal_system       triclinic
_cell_length_a                    7.196281
_cell_length_b                    14.553366
_cell_length_c                    15.890487
_cell_angle_alpha                 90.0
_cell_angle_beta                  90.000056
_cell_angle_gamma                 90.000036
_cell_volume                      1664.21247104

loop_
_atom_site_label
_atom_site_type_symbol
_atom_site_description
_atom_site_fract_x
_atom_site_fract_y
_atom_site_fract_z
_atom_type_partial_charge
O1    O     O_R   0.388780 0.834790 0.412340 -0.587976
O2    O     O_R   0.111220 0.165210 0.912340 -0.587976
O3    O     O_R   0.888780 0.665210 0.587660 -0.587978
O4    O     O_R   0.611220 0.334790 0.087660 -0.587978
O5    O     O_R   0.059040 0.845930 0.587040 -0.507362
O6    O     O_R   0.440960 0.154070 0.087040 -0.507363
O7    O     O_R   0.559040 0.654070 0.412960 -0.507364
O8    O     O_R   0.940960 0.345930 0.912960 -0.507361
C1    C     C_R   0.226733 0.864753 0.618182 0.841748
C2    C     C_R   0.273267 0.135247 0.118182 0.841748
C3    C     C_R   0.726733 0.635246 0.381818 0.841750
C4    C     C_R   0.773266 0.364754 0.881818 0.841751
O9    O     O_R   0.059070 0.845930 0.412970 -0.608034
O10   O     O_R   0.440930 0.154070 0.912970 -0.608034
O11   O     O_R   0.559070 0.654070 0.587030 -0.608037
O12   O     O_R   0.940930 0.345930 0.087030 -0.608036
O13   O     O_R   0.888760 0.665210 0.412340 -0.595180
O14   O     O_R   0.611240 0.334790 0.912340 -0.595180
O15   O     O_R   0.388760 0.834790 0.587660 -0.595179
O16   O     O_R   0.111240 0.165210 0.087660 -0.595179
C5    C     C_R   0.227862 0.869220 0.385855 0.906665
C6    C     C_R   0.272138 0.130780 0.885855 0.906666
C7    C     C_R   0.727862 0.630781 0.614145 0.906666
C8    C     C_R   0.772138 0.369219 0.114145 0.906666
O17   O     O_3   0.222280 0.690700 0.500000 -0.278595
O18   O     O_3   0.277720 0.309300 0.000000 -0.278592
O19   O     O_3   0.722280 0.809300 0.500000 -0.278590
O20   O     O_3   0.777720 0.190700 0.000000 -0.278591
V1    V     V_3+5 0.947430 0.761000 0.500000 1.189212
V2    V     V_3+5 0.552570 0.239000 0.000000 1.189213
V3    V     V_3+5 0.447430 0.739000 0.500000 1.189210
V4    V     V_3+5 0.052570 0.261000 0.000000 1.189213
C9    C     C_3   0.860139 0.595519 0.757649 -0.405864
C10   C     C_3   0.639861 0.404481 0.257649 -0.405857
C11   C     C_3   0.360133 0.904481 0.242350 -0.405869
C12   C     C_3   0.139868 0.095520 0.742350 -0.405872
H1    H     H_    0.005516 0.603742 0.734785 0.171698
H2    H     H_    0.494484 0.396258 0.234784 0.171700
H3    H     H_    0.505510 0.896253 0.265213 0.171699
H4    H     H_    0.994491 0.103748 0.765213 0.171699
H5    H     H_    0.815209 0.666263 0.774023 0.160818
H6    H     H_    0.684789 0.333737 0.274022 0.160817
H7    H     H_    0.315194 0.833738 0.225976 0.160820
H8    H     H_    0.184808 0.166262 0.725976 0.160823
C13   C     C_3   0.859029 0.529045 0.835709 0.540736
C14   C     C_3   0.640970 0.470955 0.335708 0.540734
C15   C     C_3   0.359028 0.970956 0.164292 0.540740
C16   C     C_3   0.140973 0.029044 0.664291 0.540741
H9    H     H_    0.966775 0.485677 0.621477 0.153112
H10   H     H_    0.533226 0.514323 0.121477 0.153114
H11   H     H_    0.466783 0.014321 0.378519 0.153116
H12   H     H_    0.033215 0.985680 0.878518 0.153116
C17   C     C_3   0.831294 0.468939 0.651763 -0.488942
C18   C     C_3   0.668707 0.531062 0.151763 -0.488936
C19   C     C_3   0.331299 0.031061 0.348237 -0.488922
C20   C     C_3   0.168700 0.968939 0.848236 -0.488920
C21   C     C_3   0.544409 0.533061 0.718726 -0.334123
C22   C     C_3   0.955591 0.466938 0.218727 -0.334115
C23   C     C_3   0.044408 0.966941 0.281275 -0.334129
C24   C     C_3   0.455591 0.033059 0.781276 -0.334134
C25   C     C_3   0.739436 0.558651 0.684021 0.033057
C26   C     C_3   0.760564 0.441349 0.184021 0.033048
C27   C     C_3   0.239436 0.941350 0.315980 0.033049
C28   C     C_3   0.260564 0.058650 0.815980 0.033050
H13   H     H_    0.451876 0.510093 0.666667 0.159202
H14   H     H_    0.048125 0.489906 0.166667 0.159202
H15   H     H_    0.951878 0.989910 0.333333 0.159208
H16   H     H_    0.548121 0.010089 0.833333 0.159210
H17   H     H_    0.479149 0.594635 0.747776 0.184978
H18   H     H_    0.020850 0.405364 0.247777 0.184978
H19   H     H_    0.979145 0.905367 0.252226 0.184974
H20   H     H_    0.520856 0.094633 0.752227 0.184971
C29   C     C_3   0.766193 0.434911 0.808884 -0.102460
C30   C     C_3   0.733807 0.565089 0.308884 -0.102463
C31   C     C_3   0.266193 0.065090 0.191116 -0.102463
C32   C     C_3   0.233807 0.934910 0.691116 -0.102463
C33   C     C_3   0.855003 0.396908 0.724162 -0.072166
C34   C     C_3   0.644999 0.603092 0.224162 -0.072163
C35   C     C_3   0.355004 0.103093 0.275838 -0.072162
C36   C     C_3   0.144996 0.896908 0.775838 -0.072162
C37   C     C_3   0.558461 0.455168 0.784598 -0.394572
C38   C     C_3   0.941539 0.544832 0.284598 -0.394567
C39   C     C_3   0.058462 0.044834 0.215403 -0.394571
C40   C     C_3   0.441538 0.955167 0.715403 -0.394576
H21   H     H_    0.473500 0.473833 0.840332 0.209276
H22   H     H_    0.026500 0.526167 0.340333 0.209274
H23   H     H_    0.973500 0.026168 0.159669 0.209276
H24   H     H_    0.526500 0.973832 0.659669 0.209274
H25   H     H_    0.494385 0.391894 0.758215 0.212645
H26   H     H_    0.005615 0.608106 0.258216 0.212646
H27   H     H_    0.994386 0.108108 0.241785 0.212646
H28   H     H_    0.505614 0.891892 0.741784 0.212648
H29   H     H_    0.741700 0.438307 0.602299 0.147942
H30   H     H_    0.758301 0.561693 0.102298 0.147941
H31   H     H_    0.241711 0.061693 0.397704 0.147945
H32   H     H_    0.258287 0.938307 0.897703 0.147941
H33   H     H_    0.772147 0.335351 0.706100 0.061651
H34   H     H_    0.727857 0.664648 0.206100 0.061649
H35   H     H_    0.272144 0.164648 0.293901 0.061645
H36   H     H_    0.227856 0.835352 0.793901 0.061647
C41   C     C_2   0.741148 0.568194 0.907764 0.310643
H37   H     H_    0.726436 0.529145 0.965275 -0.020991
O21   O     O_2   0.652522 0.639031 0.899999 -0.637547
C42   C     C_2   0.758850 0.431806 0.407764 0.310640
H38   H     H_    0.773561 0.470854 0.465275 -0.020992
O22   O     O_2   0.847478 0.360969 0.399999 -0.637544
C43   C     C_2   0.241147 0.931810 0.092235 0.310641
H39   H     H_    0.226437 0.970861 0.034725 -0.020988
O23   O     O_2   0.152523 0.860971 0.099996 -0.637549
C44   C     C_2   0.258852 0.068191 0.592234 0.310642
H40   H     H_    0.273568 0.029137 0.534726 -0.020986
O24   O     O_2   0.347466 0.139031 0.599993 -0.637550
O25   O     O_3   0.048485 0.510658 0.858008 -0.637914
C45   C     C_3   0.122966 0.558043 0.928264 0.279683
H41   H     H_    0.255691 0.523512 0.944681 0.138762
H42   H     H_    0.036779 0.551096 0.985831 0.037061
C46   C     C_3   0.166748 0.658347 0.907690 -0.428205
H43   H     H_    0.261352 0.661707 0.852559 0.225688
H44   H     H_    0.037203 0.695906 0.892246 0.204154
C47   C     C_3   0.258290 0.704997 0.982677 -0.859194
H45   H     H_    0.161796 0.703931 0.037115 0.281849
H46   H     H_    0.293032 0.777050 0.966122 0.275685
H47   H     H_    0.387521 0.668725 0.001126 0.279112
O26   O     O_3   0.451514 0.489341 0.358006 -0.637913
C48   C     C_3   0.377035 0.441963 0.428266 0.279687
H48   H     H_    0.244311 0.476496 0.444681 0.138764
H49   H     H_    0.463223 0.448913 0.485831 0.037059
C49   C     C_3   0.333248 0.341658 0.407697 -0.428210
H50   H     H_    0.238644 0.338296 0.352567 0.225693
H51   H     H_    0.462790 0.304096 0.392256 0.204157
C50   C     C_3   0.241702 0.295015 0.482687 -0.859189
H52   H     H_    0.338197 0.296081 0.537124 0.281844
H53   H     H_    0.206949 0.222963 0.466134 0.275697
H54   H     H_    0.112477 0.331293 0.501134 0.279104
O27   O     O_3   0.548485 0.989341 0.141993 -0.637910
C51   C     C_3   0.622966 0.941955 0.071738 0.279692
H55   H     H_    0.755694 0.976484 0.055322 0.138762
H56   H     H_    0.536781 0.948903 0.014171 0.037062
C52   C     C_3   0.666741 0.841651 0.092314 -0.428215
H57   H     H_    0.761348 0.838289 0.147443 0.225687
H58   H     H_    0.537194 0.804094 0.107759 0.204160
C53   C     C_3   0.758273 0.794997 0.017326 -0.859217
H59   H     H_    0.661780 0.796068 0.962889 0.281852
H60   H     H_    0.792999 0.722942 0.033881 0.275683
H61   H     H_    0.887512 0.831261 0.998878 0.279124
O28   O     O_3   0.951516 0.010659 0.641993 -0.637909
C54   C     C_3   0.877033 0.058046 0.571738 0.279692
H62   H     H_    0.744306 0.023516 0.555321 0.138759
H63   H     H_    0.963218 0.051099 0.514171 0.037061
C55   C     C_3   0.833256 0.158350 0.592315 -0.428211
H64   H     H_    0.738648 0.161709 0.647444 0.225684
H65   H     H_    0.962802 0.195907 0.607762 0.204161
C56   C     C_3   0.741723 0.205005 0.517328 -0.859210
H66   H     H_    0.838216 0.203934 0.462891 0.281851
H67   H     H_    0.706997 0.277059 0.533883 0.275681
H68   H     H_    0.612484 0.168740 0.498879 0.279123
C57   C     C_2   0.053564 0.361551 0.723897 0.511943
H69   H     H_    0.110837 0.336381 0.665122 -0.014500
O29   O     O_2   0.151366 0.358962 0.786279 -0.543705
C58   C     C_2   0.446439 0.638451 0.223897 0.511940
H70   H     H_    0.389169 0.663626 0.165121 -0.014503
O30   O     O_2   0.348634 0.641037 0.286277 -0.543704
C59   C     C_2   0.553562 0.138453 0.276102 0.511933
H71   H     H_    0.610831 0.163631 0.334878 -0.014500
O31   O     O_2   0.651367 0.141038 0.213722 -0.543701
C60   C     C_2   0.946438 0.861547 0.776102 0.511933
H72   H     H_    0.889169 0.836370 0.834877 -0.014499
O32   O     O_2   0.848633 0.858963 0.713721 -0.543701

loop_
_geom_bond_atom_site_label_1
_geom_bond_atom_site_label_2
_geom_bond_distance
_ccdc_geom_bond_type
O17   V3    1.766152 S    
C39   H23   1.109944 S    
C22   C26   1.553243 S    
C57   H69   1.084605 S    
O19   V1    1.766152 S    
O13   V1    2.015446 S    
C16   C32   1.582662 S    
C16   C44   1.534681 S    
C59   H71   1.084620 S    
C10   H6    1.110063 S    
C10   C26   1.552816 S    
C50   H54   1.108810 S    
O15   V3    2.015445 S    
C49   H50   1.110561 S    
C32   C40   1.571797 S    
C42   O22   1.218518 D    
C45   H41   1.110350 S    
O4    V2    2.015414 S    
O27   C51   1.417465 S    
O1    C5    1.330103 A    
C23   H19   1.112053 S    
O5    C1    1.332751 A    
C41   H37   1.081362 S    
C13   C29   1.582664 S    
C59   O31   1.216304 D    
C23   C39   1.546273 S    
O28   C54   1.417468 S    
C22   C38   1.546272 S    
O16   V4    2.015446 S    
O4    C8    1.330102 A    
C52   C53   1.521438 S    
C24   H20   1.112050 S    
O1    V3    2.015416 S    
C9    C13   1.573074 S    
O2    V4    2.015417 S    
C36   C60   1.518734 S    
O3    V1    2.015416 S    
C44   H40   1.081360 S    
C23   H15   1.113302 S    
C17   C25   1.550596 S    
C22   H14   1.113337 S    
C54   H62   1.110350 S    
C2    O16   1.336010 A    
C55   C56   1.521442 S    
C19   C27   1.550601 S    
C34   H34   1.113764 S    
C48   C49   1.528736 S    
C43   H39   1.081359 S    
C20   C28   1.550597 S    
C33   H33   1.113763 S    
C10   C14   1.573075 S    
C1    C32   1.545396 S    
C56   H67   1.109639 S    
C11   H7    1.110067 S    
C55   H64   1.110561 S    
C47   H47   1.108814 S    
C37   H25   1.111910 S    
O11   C7    1.332654 A    
C48   H48   1.110346 S    
C11   C15   1.573077 S    
O12   C8    1.332653 A    
C4    C29   1.545397 S    
C36   H36   1.113764 S    
C60   O32   1.216301 D    
C43   O23   1.218516 D    
C53   H61   1.108804 S    
C14   O26   1.433862 S    
O10   V2    2.021319 S    
C51   C52   1.528741 S    
C29   C37   1.571800 S    
C42   H38   1.081361 S    
C1    O15   1.336010 A    
O7    C3    1.332752 A    
O5    V1    2.021339 S    
O7    V3    2.021343 S    
C17   H29   1.110065 S    
O8    V4    2.021341 S    
C32   C36   1.589583 S    
C12   H4    1.113918 S    
C54   C55   1.528743 S    
C19   H31   1.110068 S    
C46   C47   1.521444 S    
C35   C59   1.518734 S    
O18   V4    1.766151 S    
C22   H18   1.112049 S    
C18   C26   1.550597 S    
O3    C7    1.330102 A    
C38   H22   1.109946 S    
C14   C42   1.534681 S    
C9    H1    1.113913 S    
C16   O28   1.433863 S    
C58   O30   1.216303 D    
C11   H3    1.113919 S    
O2    C6    1.330103 A    
C18   H30   1.110065 S    
C19   C35   1.565744 S    
C2    C31   1.545395 S    
O8    C4    1.332751 A    
O9    C5    1.332654 A    
H10   C18   1.114227 S    
C38   H26   1.111911 S    
C56   H68   1.108808 S    
O11   V3    2.021318 S    
C13   C41   1.534679 S    
O14   V2    2.015446 S    
C34   C58   1.518734 S    
O6    V2    2.021341 S    
C15   C43   1.534681 S    
C17   C33   1.565744 S    
C55   H65   1.108189 S    
C12   H8    1.110065 S    
C24   C40   1.546273 S    
O9    V1    2.021319 S    
C50   H52   1.109379 S    
C49   C50   1.521438 S    
C14   C30   1.582664 S    
C53   H60   1.109635 S    
C47   H45   1.109378 S    
C47   H46   1.109641 S    
C51   H56   1.109811 S    
O25   C45   1.417462 S    
C30   C38   1.571799 S    
C35   H35   1.113766 S    
C20   H32   1.110067 S    
C3    O13   1.336009 A    
C8    C26   1.530283 S    
C54   H63   1.109813 S    
C10   H2    1.113914 S    
C40   H24   1.109944 S    
C21   H13   1.113327 S    
C51   H55   1.110349 S    
C50   H53   1.109633 S    
C3    C30   1.545396 S    
C49   H51   1.108189 S    
O6    C2    1.332752 A    
C45   H42   1.109812 S    
C52   H57   1.110559 S    
C21   C25   1.553244 S    
O12   V4    2.021318 S    
C39   H27   1.111911 S    
C23   C27   1.553243 S    
C20   C36   1.565745 S    
C41   O21   1.218515 D    
C24   C28   1.553242 S    
C9    H5    1.110061 S    
C58   H70   1.084615 S    
O10   C6    1.332654 A    
C46   H44   1.108192 S    
C15   C31   1.582663 S    
C46   H43   1.110560 S    
C52   H58   1.108186 S    
C31   C39   1.571798 S    
C60   H72   1.084618 S    
C9    C25   1.552819 S    
H9    C17   1.114226 S    
O20   V2    1.766153 S    
C12   C16   1.573079 S    
H11   C19   1.114230 S    
C15   O27   1.433864 S    
C21   C37   1.546270 S    
C44   O24   1.218507 D    
C5    C27   1.530285 S    
C45   C46   1.528741 S    
C6    C28   1.530285 S    
C13   O25   1.433860 S    
C7    C25   1.530283 S    
C24   H16   1.113296 S    
C57   O29   1.216297 D    
C30   C34   1.589585 S    
C4    O14   1.336010 A    
C48   H49   1.109809 S    
C29   C33   1.589588 S    
C53   H59   1.109370 S    
C11   C27   1.552815 S    
C40   H28   1.111910 S    
C21   H17   1.112047 S    
C56   H66   1.109372 S    
C12   C28   1.552815 S    
C31   C35   1.589585 S    
C37   H21   1.109943 S    
H12   C20   1.114230 S    
C33   C57   1.518734 S    
O26   C48   1.417457 S    
C18   C34   1.565745 S    
