data_mof_unit_63768.cif
_audit_creation_date              2012-12-10T20:58:25-0500
_audit_creation_method            fapswitch 2.2
_symmetry_space_group_name_H-M    P1
_symmetry_Int_Tables_number       1
_space_group_crystal_system       triclinic
_cell_length_a                    15.851587
_cell_length_b                    15.084923
_cell_length_c                    11.57093
_cell_angle_alpha                 89.999965
_cell_angle_beta                  89.974106
_cell_angle_gamma                 90.0
_cell_volume                      2766.84014408

loop_
_atom_site_label
_atom_site_type_symbol
_atom_type_description
_atom_site_fract_x
_atom_site_fract_y
_atom_site_fract_z
_atom_type_partial_charge
C1    C     C_R   0.338866 0.500000 0.500053 0.906709
C2    C     C_R   0.556373 0.046856 0.570066 -0.162470
C3    C     C_R   0.556373 0.953144 0.570066 -0.162470
C4    C     C_R   0.443627 0.046856 0.429933 -0.162470
C5    C     C_1   0.500000 0.807146 0.500000 0.043467
C6    C     C_1   0.500000 0.192853 0.500000 0.043467
C7    C     C_1   0.500006 0.500000 0.161129 -0.184801
C8    C     C_1   0.499994 0.500000 0.838870 -0.184800
C9    C     C_1   0.500003 0.500000 0.059190 0.003785
C10   C     C_1   0.499997 0.500000 0.940810 0.003785
C11   C     C_R   0.956260 0.580696 0.499951 -0.182991
C12   C     C_R   0.661133 0.500000 0.499947 0.906709
C13   C     C_R   0.043740 0.419303 0.500049 -0.182991
C14   C     C_R   0.043740 0.580696 0.499983 -0.182991
C15   C     C_R   0.956260 0.419303 0.500017 -0.182991
C16   C     C_R   0.913151 0.500000 0.499968 0.171799
C17   C     C_R   0.086849 0.500000 0.500032 0.171799
C18   C     C_1   0.824371 0.500000 0.499948 -0.073144
C19   C     C_1   0.175629 0.500000 0.500052 -0.073144
C20   C     C_1   0.250465 0.500000 0.500059 -0.178148
C21   C     C_1   0.749535 0.500000 0.499941 -0.178148
C22   C     C_R   0.500000 0.905035 0.500000 0.080297
C23   C     C_R   0.500000 0.094965 0.500000 0.080297
C24   C     C_R   0.500008 0.500000 0.281325 0.905476
C25   C     C_R   0.499992 0.500000 0.718675 0.905477
C26   C     C_R   0.443627 0.953144 0.429933 -0.162470
H1    H     H_    0.399427 0.081803 0.374997 0.134952
H2    H     H_    0.600572 0.918197 0.625002 0.134952
H3    H     H_    0.600572 0.081803 0.625002 0.134951
H4    H     H_    0.399427 0.918197 0.374998 0.134951
H5    H     H_    0.077644 0.643090 0.499968 0.143096
H6    H     H_    0.922356 0.356910 0.500032 0.143096
H7    H     H_    0.922356 0.643090 0.499915 0.143096
H8    H     H_    0.077644 0.356910 0.500085 0.143096
N1    N     N_1   0.500000 0.270550 0.500000 -0.085430
N2    N     N_1   0.500000 0.729450 0.500000 -0.085430
O1    O     O_R   0.378020 0.573650 0.500040 -0.609721
O2    O     O_R   0.621980 0.426350 0.499960 -0.609721
O3    O     O_R   0.621980 0.573650 0.499960 -0.609721
O4    O     O_R   0.378020 0.426350 0.500040 -0.609720
O5    O     O_R   0.500010 0.573670 0.334460 -0.608346
O6    O     O_R   0.499990 0.426330 0.665540 -0.608346
O7    O     O_R   0.499990 0.573670 0.665540 -0.608346
O8    O     O_R   0.500010 0.426330 0.334460 -0.608345
Zn1   Zn    Zn3+2 0.500000 0.598370 0.500000 0.980950
Zn2   Zn    Zn3+2 0.500000 0.401630 0.500000 0.980951

loop_
_geom_bond_atom_site_label_1
_geom_bond_atom_site_label_2
_ccdc_geom_bond_type
C25   O6    A    
C4    C26   A    
C8    C25   S    
C1    O1    A    
C18   C21   T    
C9    C10   S    
C19   C20   T    
C13   C17   A    
C14   H5    S    
O3    Zn1   S    
C25   O7    A    
C12   O3    A    
C2    C3    A    
N2    Zn1   S    
O4    Zn2   S    
C24   O5    A    
O7    Zn1   S    
C14   C17   A    
C22   C26   A    
C2    H3    S    
C6    C23   S    
C8    C10   T    
C3    H2    S    
C17   C19   S    
O8    Zn2   S    
C26   H4    S    
C13   C15   A    
C12   O2    A    
C24   O8    A    
C11   C14   A    
O2    Zn2   S    
C11   C16   A    
O1    Zn1   S    
C7    C24   S    
C5    N2    T    
C11   H7    S    
C4    H1    S    
C6    N1    T    
C16   C18   S    
O6    Zn2   S    
C2    C23   A    
C7    C9    T    
C4    C23   A    
O5    Zn1   S    
C1    C20   S    
C13   H8    S    
C1    O4    A    
N1    Zn2   S    
C12   C21   S    
C5    C22   S    
C15   C16   A    
C3    C22   A    
C15   H6    S    
