data_mof_unit_26652.cif
_audit_creation_date              2012-12-11T16:56:13-0500
_audit_creation_method            fapswitch 2.2
_symmetry_space_group_name_H-M    P1
_symmetry_Int_Tables_number       1
_space_group_crystal_system       triclinic
_cell_length_a                    6.960371
_cell_length_b                    14.56329
_cell_length_c                    16.185225
_cell_angle_alpha                 90.350981
_cell_angle_beta                  90.119445
_cell_angle_gamma                 90.14282
_cell_volume                      1640.59042438

loop_
_atom_site_label
_atom_site_type_symbol
_atom_type_description
_atom_site_fract_x
_atom_site_fract_y
_atom_site_fract_z
_atom_type_partial_charge
O1    O     O_R   0.505830 0.583360 0.413880 -0.525375
O2    O     O_R   0.175830 0.595460 0.585520 -0.545724
O3    O     O_R   0.005520 0.416640 0.586120 -0.545585
C1    C     C_R   0.344951 0.617347 0.614209 0.716070
O4    O     O_R   0.176120 0.594390 0.414490 -0.550174
O5    O     O_R   0.005810 0.415570 0.413870 -0.544830
C2    C     C_R   0.345070 0.615173 0.385157 0.725038
O6    O     O_R   0.505540 0.584430 0.586130 -0.528184
O7    O     O_3   0.339200 0.441330 0.500000 -0.383361
V1    V     V_3+5 0.064350 0.510880 0.500000 1.403741
O8    O     O_R   0.676100 0.404540 0.414480 -0.552030
C3    C     C_R   0.844631 0.383090 0.385324 0.689840
O9    O     O_R   0.675810 0.405610 0.585510 -0.534015
C4    C     C_R   0.845058 0.383337 0.613325 0.775604
V2    V     V_3+5 0.564340 0.489120 0.500000 1.431153
O10   O     O_3   0.839360 0.558670 0.500000 -0.361578
C5    C     C_2   0.720968 0.208746 0.785861 -0.138170
C6    C     C_2   0.885550 0.182020 0.822729 -0.316930
H1    H     H_    0.585520 0.179825 0.806570 0.138555
H2    H     H_    0.022537 0.210573 0.804312 0.127825
C7    C     C_2   0.708601 0.277301 0.717943 -0.128003
C8    C     C_2   0.861532 0.314409 0.679585 -0.310808
H3    H     H_    0.565097 0.297322 0.698836 0.139689
H4    H     H_    0.006125 0.295046 0.696841 0.126745
C9    C     C_R   0.726898 0.180855 0.243396 0.024746
C10   C     C_R   0.881574 0.180506 0.187714 -0.154581
C11   C     C_R   0.030328 0.244497 0.201764 -0.167279
H5    H     H_    0.151855 0.247252 0.160368 0.116815
C12   C     C_R   0.018724 0.309433 0.266367 -0.117371
H6    H     H_    0.132592 0.359611 0.273165 0.117568
C13   C     C_R   0.856750 0.313447 0.318319 -0.138186
C14   C     C_R   0.713184 0.247155 0.306198 0.031899
C15   C     C_3   0.503124 0.261238 0.291743 0.170896
C16   C     C_3   0.516716 0.186564 0.224950 0.161002
H7    H     H_    0.469619 0.330477 0.266599 0.021989
H8    H     H_    0.489992 0.212957 0.161597 0.044072
C17   C     C_R   0.513871 0.692564 0.734775 0.058338
C18   C     C_R   0.355363 0.685677 0.682184 -0.121582
C19   C     C_R   0.204011 0.748116 0.698499 -0.183550
H9    H     H_    0.078095 0.748799 0.659196 0.128892
C20   C     C_R   0.215265 0.811722 0.765403 -0.180108
H10   H     H_    0.097624 0.859054 0.774924 0.124850
C21   C     C_R   0.377960 0.814863 0.818326 -0.089340
C22   C     C_R   0.524704 0.753820 0.798783 0.044654
C23   C     C_3   0.713807 0.719609 0.828270 -0.453159
C24   C     C_3   0.703124 0.650390 0.755490 0.143040
H11   H     H_    0.703441 0.688255 0.890576 0.176206
H12   H     H_    0.828516 0.771917 0.821511 0.161475
H13   H     H_    0.811708 0.660300 0.706117 0.124520
C25   C     C_R   0.511376 0.741897 0.308068 0.063896
C26   C     C_R   0.355264 0.682231 0.316607 -0.198965
C27   C     C_R   0.217213 0.682122 0.253297 -0.205802
H14   H     H_    0.108683 0.629384 0.252826 0.168564
C28   C     C_R   0.229846 0.741808 0.185225 0.376151
C29   C     C_R   0.381268 0.807687 0.181153 -0.223888
C30   C     C_R   0.522299 0.805708 0.243401 -0.097440
C31   C     C_3   0.733915 0.788710 0.232495 0.110885
C32   C     C_3   0.720775 0.718947 0.303094 0.568639
H15   H     H_    0.764950 0.757552 0.171274 0.145476
O11   O     O_R   0.229930 0.912420 0.917160 -0.544389
O12   O     O_R   0.559420 0.902500 0.088780 -0.537234
O13   O     O_R   0.729660 0.081330 0.089380 -0.527951
C33   C     C_R   0.390669 0.878442 0.115476 0.730650
O14   O     O_R   0.559650 0.901420 0.917750 -0.539544
O15   O     O_R   0.729880 0.080250 0.917130 -0.538372
C34   C     C_R   0.390428 0.880056 0.888680 0.688048
O16   O     O_R   0.229700 0.913500 0.089410 -0.536458
O17   O     O_3   0.396250 0.055540 0.003280 -0.371389
V3    V     V_3+5 0.671130 0.986010 0.003260 1.419871
O18   O     O_R   0.059600 0.091310 0.917720 -0.545873
C35   C     C_R   0.890884 0.113277 0.889597 0.741371
O19   O     O_R   0.059370 0.092380 0.088750 -0.552048
C36   C     C_R   0.890576 0.114315 0.117611 0.698243
V4    V     V_3+5 0.171120 0.007820 0.003230 1.393546
O20   O     O_3   0.896130 0.938240 0.003240 -0.371676
N1    N     N_2   0.414541 0.100341 0.239671 -0.477886
H16   H     H_    0.283017 0.095285 0.211048 0.266000
C37   C     C_3   0.422452 0.053479 0.318353 -0.419843
H17   H     H_    0.411219 0.978522 0.307286 0.168712
H18   H     H_    0.297972 0.073630 0.357158 0.215665
H19   H     H_    0.557743 0.068473 0.352092 0.199704
N2    N     N_2   0.683905 0.555826 0.782154 -0.501072
H20   H     H_    0.573032 0.543824 0.823009 0.259314
C38   C     C_3   0.862518 0.513104 0.806323 -0.544881
H21   H     H_    0.835986 0.440106 0.822055 0.201739
H22   H     H_    0.923902 0.548445 0.861422 0.195160
H23   H     H_    0.967512 0.515751 0.754756 0.198681
O21   O     O_3   0.100465 0.728045 0.121622 -0.654111
H24   H     H_    0.155872 0.751679 0.069663 0.277121
N3    N     N_2   0.854839 0.869558 0.246454 -0.497302
H25   H     H_    0.882799 0.906659 0.193735 0.278345
C39   C     C_3   0.841485 0.924966 0.320984 -0.477788
H26   H     H_    0.849405 0.998895 0.305004 0.171195
H27   H     H_    0.965453 0.909703 0.361799 0.205939
H28   H     H_    0.706282 0.912050 0.355072 0.209410
O22   O     O_3   0.815280 0.743869 0.376581 -0.646367
H29   H     H_    0.954718 0.738696 0.365631 0.302622
N4    N     N_2   0.764133 0.624154 0.278522 -0.548403
H30   H     H_    0.808158 0.581616 0.325528 0.280583
C40   C     C_3   0.660651 0.577122 0.212678 -0.602582
H31   H     H_    0.758833 0.527672 0.182003 0.205582
H32   H     H_    0.605934 0.625020 0.165305 0.197333
H33   H     H_    0.538468 0.537700 0.238621 0.188528
O23   O     O_3   0.393386 0.237364 0.360820 -0.631873
H34   H     H_    0.376922 0.294444 0.393652 0.310868

loop_
_geom_bond_atom_site_label_1
_geom_bond_atom_site_label_2
_ccdc_geom_bond_type
C29   C30   A    
C11   C12   A    
C15   O23   S    
C20   H10   S    
C32   N4    S    
C38   H23   S    
C1    O6    A    
C31   C32   S    
C19   C20   A    
C23   C24   S    
C22   C23   S    
C24   H13   S    
C10   C11   A    
C12   H6    S    
C38   H22   S    
O5    C3    A    
C18   C19   A    
C37   H18   S    
C31   H15   S    
O17   V4    S    
V2    O10   S    
C10   C36   S    
C30   C31   S    
O12   C33   A    
C32   O22   S    
C39   H26   S    
C15   H7    S    
C24   N2    S    
O8    V2    S    
O17   V3    S    
C29   C33   S    
O18   V4    S    
O13   C36   A    
O18   C35   A    
O1    V2    S    
O7    V1    S    
C16   H8    S    
C9    C16   S    
C9    C14   A    
O11   C34   A    
O9    C4    A    
C20   C21   A    
C39   H27   S    
O23   H34   S    
C27   C28   A    
C15   C16   S    
C23   H11   S    
C33   O16   A    
C31   N3    S    
C26   C27   A    
C25   C32   S    
N1    H16   S    
O19   V4    S    
V4    O20   S    
C19   H9    S    
O4    C2    A    
C37   H17   S    
C25   C26   A    
C9    C10   A    
O15   C35   A    
C40   H33   S    
C5    C7    S    
O13   V3    S    
O14   C34   A    
O2    C1    A    
C21   C22   A    
C17   C18   A    
N3    C39   S    
C13   C14   A    
O22   H29   S    
C40   H32   S    
C5    C6    D    
O16   V4    S    
O14   V3    S    
C38   H21   S    
O3    C4    A    
C1    C18   S    
N4    H30   S    
O6    V2    S    
N4    C40   S    
O9    V2    S    
C3    C13   S    
C8    H4    S    
O2    V1    S    
C27   H14   S    
C23   H12   S    
O12   V3    S    
C6    C35   S    
C28   C29   A    
O1    C2    A    
N1    C37   S    
O19   C36   A    
O5    V1    S    
O8    C3    A    
N2    C38   S    
C14   C15   S    
C4    C8    S    
C17   C22   A    
C7    H3    S    
O7    V2    S    
C2    C26   S    
O4    V1    S    
C12   C13   A    
O3    V1    S    
V1    O10   S    
C28   O21   S    
C37   H19   S    
N3    H25   S    
C21   C34   S    
O15   V3    S    
O11   V4    S    
C40   H31   S    
C5    H1    S    
V3    O20   S    
C6    H2    S    
C39   H28   S    
C25   C30   A    
O21   H24   S    
N2    H20   S    
C11   H5    S    
C17   C24   S    
C7    C8    D    
C16   N1    S    
