data_mof_unit_30001.cif
_audit_creation_date              2012-12-11T14:36:11-0500
_audit_creation_method            fapswitch 2.2
_symmetry_space_group_name_H-M    P1
_symmetry_Int_Tables_number       1
_space_group_crystal_system       triclinic
_cell_length_a                    13.469473
_cell_length_b                    13.489598
_cell_length_c                    27.498268
_cell_angle_alpha                 90.893124
_cell_angle_beta                  90.090486
_cell_angle_gamma                 60.067271
_cell_volume                      4329.28025819

loop_
_atom_site_label
_atom_site_type_symbol
_atom_type_description
_atom_site_fract_x
_atom_site_fract_y
_atom_site_fract_z
_atom_type_partial_charge
C1    C     C_R   0.620198 0.101550 0.570203 0.551395
C2    C     C_1   0.630939 0.732791 0.616478 0.008644
C3    C     C_3   0.651426 0.584090 0.769299 -0.085548
C4    C     C_3   0.679232 0.654705 0.805605 0.033771
C5    C     C_3   0.566012 0.696217 0.744109 0.120908
C6    C     C_3   0.662867 0.684200 0.710833 0.056928
C7    C     C_3   0.593237 0.766597 0.781091 -0.091063
C8    C     C_3   0.690638 0.754773 0.747198 -0.124230
C9    C     C_1   0.688234 0.633716 0.857975 -0.047341
C10   C     C_1   0.649187 0.705741 0.658502 -0.022926
C11   C     C_3   0.091772 0.132238 0.738198 -0.093931
C12   C     C_R   0.599591 0.779727 0.568811 0.549080
C13   C     C_3   0.184063 0.059631 0.776165 -0.081839
C14   C     C_1   0.097184 0.200895 0.901842 -0.006170
C15   C     C_1   0.229856 0.138269 0.617692 -0.002897
C16   C     C_3   0.055014 0.241058 0.770005 -0.108615
C17   C     C_3   0.147746 0.168269 0.807117 0.044702
C18   C     C_3   0.143009 0.263244 0.743334 -0.103631
C19   C     C_3   0.179366 0.154717 0.712295 0.053947
C20   C     C_3   0.235274 0.190710 0.781145 -0.106622
C21   C     C_3   0.272124 0.081885 0.749384 -0.089976
C22   C     C_1   0.125044 0.181567 0.859603 -0.050920
C23   C     C_R   0.277785 0.121930 0.569739 0.542687
C24   C     C_1   0.202017 0.147132 0.659869 -0.041794
C25   C     C_3   0.611728 0.281476 0.740900 -0.097376
C26   C     C_3   0.550907 0.246171 0.779066 -0.096287
C27   C     C_1   0.691470 0.207647 0.902947 -0.007743
C28   C     C_1   0.635158 0.134028 0.618351 -0.005571
C29   C     C_3   0.723576 0.221988 0.770841 -0.104031
C30   C     C_3   0.662591 0.186410 0.808156 0.051252
C31   C     C_3   0.761946 0.108533 0.742367 -0.098939
C32   C     C_3   0.650377 0.168173 0.713208 0.049755
C33   C     C_3   0.701177 0.073216 0.780398 -0.100613
C34   C     C_R   0.622936 0.100346 0.431546 0.568138
C35   C     C_3   0.589348 0.132626 0.750510 -0.105175
C36   C     C_1   0.674453 0.196796 0.860683 -0.051673
C37   C     C_1   0.643375 0.153178 0.660669 -0.049991
C38   C     C_R   0.737312 0.703000 0.360492 -0.135256
C39   C     C_R   0.749388 0.685006 0.310211 0.017007
C40   C     C_R   0.760530 0.670992 0.207743 0.027160
C41   C     C_R   0.846575 0.676315 0.234904 -0.130512
C42   C     C_R   0.841464 0.682121 0.285582 -0.149578
C43   C     C_R   0.766962 0.658097 0.156562 0.060332
C44   C     C_R   0.683376 0.641509 0.132251 0.010548
C45   C     C_R   0.602736 0.774443 0.430749 0.548151
C46   C     C_R   0.562969 0.691445 0.358492 -0.119525
C47   C     C_R   0.571061 0.678724 0.308332 0.017481
C48   C     C_R   0.663306 0.678055 0.283793 0.068963
C49   C     C_R   0.483550 0.675524 0.282224 -0.136296
C50   C     C_R   0.485589 0.674888 0.231790 -0.132334
C51   C     C_R   0.577521 0.672717 0.207108 0.007751
C52   C     C_R   0.667571 0.673390 0.232838 0.047355
C53   C     C_R   0.583852 0.662068 0.157092 -0.137497
C54   C     C_R   0.639988 0.713834 0.384048 -0.001603
C55   C     C_R   0.229741 0.048213 0.356730 -0.130340
C56   C     C_R   0.277540 0.120403 0.431270 0.543986
C57   C     C_R   0.203519 0.062008 0.307341 0.012691
C58   C     C_R   0.167015 0.087660 0.206155 0.027606
C59   C     C_R   0.206388 0.980537 0.227845 -0.107033
C60   C     C_R   0.224143 0.968121 0.277873 -0.131956
C61   C     C_R   0.147090 0.102980 0.155592 0.067855
C62   C     C_R   0.101112 0.214247 0.136627 0.008443
C63   C     C_R   0.167631 0.250570 0.365340 -0.123065
C64   C     C_R   0.141822 0.265483 0.316132 0.017297
C65   C     C_R   0.162327 0.170293 0.286626 0.064577
C66   C     C_R   0.102738 0.372646 0.295495 -0.120538
C67   C     C_3   0.748790 0.572324 0.735422 -0.124685
C68   C     C_R   0.086256 0.385129 0.245637 -0.117123
C69   C     C_R   0.107081 0.291107 0.216070 0.002533
C70   C     C_R   0.144881 0.182981 0.236241 0.042695
C71   C     C_R   0.086951 0.305340 0.166755 -0.144387
C72   C     C_R   0.217541 0.141182 0.385085 -0.004059
C73   C     C_R   0.578692 0.245670 0.365535 0.067435
C74   C     C_R   0.581484 0.263132 0.315038 0.027980
C75   C     C_R   0.588496 0.292693 0.213852 0.013836
C76   C     C_R   0.517697 0.385779 0.244166 -0.130729
C77   C     C_R   0.514081 0.371404 0.294162 -0.108476
C78   C     C_3   0.776911 0.642418 0.772580 -0.112764
C79   C     C_R   0.599754 0.308093 0.164435 -0.129653
C80   C     C_R   0.677272 0.214993 0.135310 -0.004834
C81   C     C_R   0.719395 0.043488 0.352755 -0.146893
C82   C     C_R   0.723002 0.059710 0.303496 0.003893
C83   C     C_R   0.652363 0.168765 0.284153 0.042968
C84   C     C_R   0.794085 0.966639 0.273151 -0.119294
C85   C     C_R   0.794571 0.980516 0.223300 -0.115634
C86   C     C_R   0.726120 0.088547 0.203485 0.016407
C87   C     C_R   0.654663 0.183257 0.233782 0.063514
C88   C     C_R   0.734205 0.104645 0.154271 -0.115709
C89   C     C_1   0.697223 0.607788 0.900151 -0.004395
C90   C     C_R   0.643884 0.133370 0.383646 0.010781
C91   C     C_R   0.049395 0.236053 0.949776 0.547875
C92   C     C_R   0.711618 0.562877 0.948169 0.549206
C93   C     C_R   0.722183 0.225355 0.950910 0.543817
C94   C     C_R   0.048550 0.245097 0.088429 0.565562
C95   C     C_R   0.707136 0.577044 0.086043 0.563621
C96   C     C_R   0.718064 0.234415 0.089274 0.545249
Cr1   Cr    Cr6+3 0.417550 0.169090 0.500530 1.071900
Cr2   Cr    Cr6+3 0.669180 0.913420 0.499920 1.028701
Cr3   Cr    Cr6+3 0.413260 0.917540 0.499520 1.046103
Cr4   Cr    Cr6+3 0.909170 0.177380 0.020380 1.077373
Cr5   Cr    Cr6+3 0.912710 0.429210 0.018220 1.072348
Cr6   Cr    Cr6+3 0.657170 0.432570 0.019030 1.041334
H1    H     H_    0.863917 0.620415 0.784960 0.118197
H2    H     H_    0.294550 0.214283 0.799215 0.107913
H3    H     H_    0.125672 0.347103 0.729322 0.113395
H4    H     H_    0.965330 0.306885 0.779068 0.102067
H5    H     H_    0.464165 0.302317 0.794721 0.113786
H6    H     H_    0.575457 0.366900 0.724154 0.129696
H7    H     H_    0.533895 0.095696 0.741557 0.102316
H8    H     H_    0.737468 0.987744 0.797099 0.110201
H9    H     H_    0.848754 0.052347 0.726771 0.112048
H10   H     H_    0.779064 0.258882 0.779781 0.100574
H11   H     H_    0.812556 0.492601 0.716307 0.108793
H12   H     H_    0.798092 0.718296 0.380395 0.121547
H13   H     H_    0.919342 0.674712 0.217706 0.138236
H14   H     H_    0.908933 0.685978 0.305531 0.097061
H15   H     H_    0.515809 0.656812 0.138198 0.151171
H16   H     H_    0.416363 0.673870 0.212062 0.107715
H17   H     H_    0.489017 0.696882 0.376740 0.143323
H18   H     H_    0.268275 0.963386 0.371989 0.131274
H19   H     H_    0.223589 0.905315 0.206808 0.148935
H20   H     H_    0.706929 0.825065 0.737554 0.109848
H21   H     H_    0.255355 0.884572 0.293478 0.108187
H22   H     H_    0.052766 0.390674 0.152448 0.165581
H23   H     H_    0.057927 0.468151 0.230076 0.122321
H24   H     H_    0.087356 0.446097 0.317722 0.111679
H25   H     H_    0.157047 0.322608 0.387421 0.137090
H26   H     H_    0.555436 0.393584 0.149744 0.131103
H27   H     H_    0.465707 0.470107 0.229232 0.111113
H28   H     H_    0.457759 0.446078 0.315833 0.147185
H29   H     H_    0.792830 0.032397 0.131574 0.153650
H30   H     H_    0.529247 0.846289 0.800158 0.115640
H31   H     H_    0.850690 0.907549 0.200438 0.136110
H32   H     H_    0.849783 0.883249 0.288099 0.109597
H33   H     H_    0.770719 0.957440 0.366364 0.136629
H34   H     H_    0.634805 0.513980 0.778882 0.118311
H35   H     H_    0.201234 0.975950 0.790309 0.143678
H36   H     H_    0.032572 0.108664 0.720066 0.112421
H37   H     H_    0.361821 0.016202 0.740274 0.124288
O1    O     O_R   0.301710 0.195650 0.554160 -0.505472
O2    O     O_R   0.658900 0.818120 0.449760 -0.504961
O3    O     O_R   0.503220 0.801620 0.445520 -0.516845
O4    O     O_R   0.319370 0.022040 0.450020 -0.506065
O5    O     O_3   0.499990 0.000010 0.499990 -0.258162
O6    O     O_R   0.818720 0.150820 0.967160 -0.500311
O7    O     O_R   0.006410 0.181720 0.970200 -0.487031
O8    O     O_R   0.027890 0.334070 0.964920 -0.503078
O9    O     O_R   0.809600 0.521790 0.967960 -0.490203
O10   O     O_R   0.635520 0.542770 0.964420 -0.500192
O11   O     O_R   0.665950 0.325030 0.970100 -0.495186
O12   O     O_R   0.522390 0.158990 0.550460 -0.484598
O13   O     O_R   0.816620 0.158530 0.074540 -0.499613
O14   O     O_R   0.004460 0.188870 0.069750 -0.463389
O15   O     O_R   0.025800 0.341780 0.072300 -0.507110
O16   O     O_R   0.807650 0.528950 0.067500 -0.463294
O17   O     O_R   0.633420 0.550490 0.071810 -0.524154
O18   O     O_R   0.664000 0.332180 0.069640 -0.504117
O19   O     O_3   0.826350 0.346390 0.019210 -0.265603
O20   O     O_R   0.694390 0.003530 0.554040 -0.506059
O21   O     O_R   0.657700 0.819660 0.549320 -0.500672
O22   O     O_R   0.501930 0.803280 0.552920 -0.487589
O23   O     O_R   0.318170 0.023580 0.549580 -0.489449
O24   O     O_R   0.303010 0.193990 0.446760 -0.502475
O25   O     O_R   0.523600 0.157450 0.450900 -0.459654
O26   O     O_R   0.695690 0.001860 0.446640 -0.527471
I1    I     I_    0.897881 0.668777 0.116417 -0.405156
H38   H     H_    0.412159 0.676450 0.300783 0.101928
I2    I     I_    0.192364 0.959157 0.107726 -0.375291
I3    I     I_    0.482919 0.387734 0.414514 -0.394233
I4    I     I_    0.397778 0.738482 0.721686 -0.441648

loop_
_geom_bond_atom_site_label_1
_geom_bond_atom_site_label_2
_ccdc_geom_bond_type
Cr4   O14   S    
C59   H19   S    
C66   C68   A    
C79   H26   S    
Cr5   O9    S    
C92   O9    A    
C73   C74   A    
Cr3   O3    S    
C83   C87   A    
C74   C83   A    
C43   C44   A    
C2    C12   S    
Cr6   O19   S    
C91   O8    A    
C81   C82   A    
C7    C8    S    
C47   C49   A    
C85   C86   A    
Cr4   O13   S    
C56   O24   A    
C11   C19   S    
C20   C21   S    
C28   C37   T    
Cr3   O4    S    
C19   C21   S    
C11   H36   S    
C73   C90   A    
C49   H38   S    
C34   O25   A    
C5    C6    S    
C38   H12   S    
C53   H15   S    
Cr5   O16   S    
C65   C70   A    
C96   O13   A    
C17   C20   S    
C3    H34   S    
C41   C42   A    
C69   C71   A    
C29   H10   S    
C12   O22   A    
Cr3   O22   S    
C56   O4    A    
C44   C53   A    
C40   C43   A    
Cr5   O8    S    
C31   C32   S    
Cr4   O7    S    
C16   C17   S    
C56   C72   S    
C74   C77   A    
C62   C71   A    
C1    C28   S    
C5    I4    S    
C31   C33   S    
C93   O6    A    
C80   C96   S    
C34   O26   A    
C45   C54   S    
Cr1   O1    S    
C18   C20   S    
C55   C72   A    
C35   H7    S    
C16   H4    S    
C77   H28   S    
C23   O23   A    
C25   C32   S    
C15   C23   S    
C96   O18   A    
C59   C60   A    
C8    C78   S    
C93   O11   A    
C61   C62   A    
C67   C78   S    
C41   H13   S    
C4    C7    S    
Cr6   O18   S    
C81   H33   S    
C39   C42   A    
C55   H18   S    
C25   C29   S    
C3    C67   S    
C51   C52   A    
C32   C35   S    
C71   H22   S    
C1    O20   A    
C84   C85   A    
C76   C77   A    
C9    C89   T    
C5    C7    S    
C86   C87   A    
C18   C19   S    
C57   C60   A    
C6    C8    S    
Cr1   O24   S    
C25   C26   S    
C40   C52   A    
C12   O21   A    
C66   H24   S    
C51   C53   A    
C13   H35   S    
C60   H21   S    
C75   C76   A    
C34   C90   S    
Cr1   O5    S    
C4    C78   S    
C29   C30   S    
Cr3   O23   S    
C11   C16   S    
Cr3   O5    S    
C47   C48   A    
C38   C54   A    
Cr4   O6    S    
C94   O15   A    
Cr1   O25   S    
C84   H32   S    
C46   C54   A    
C76   H27   S    
C50   C51   A    
Cr1   O12   S    
C13   C21   S    
C16   C18   S    
C32   C37   S    
C95   O17   A    
C89   C92   S    
C23   O1    A    
C7    H30   S    
C45   O2    A    
C81   C90   A    
C42   H14   S    
C15   C24   T    
Cr6   O11   S    
Cr5   O19   S    
C26   C30   S    
C82   C84   A    
C62   C94   S    
Cr2   O2    S    
C45   O3    A    
C49   C50   A    
C27   C93   S    
C21   H37   S    
C73   I3    S    
C3    C4    S    
C2    C10   T    
Cr6   O17   S    
C43   I1    S    
C75   C87   A    
C46   C47   A    
C40   C41   A    
C30   C33   S    
Cr2   O5    S    
C78   H1    S    
C50   H16   S    
C68   C69   A    
C58   C70   A    
Cr2   O21   S    
C63   C64   A    
C3    C5    S    
C26   H5    S    
C6    C10   S    
C20   H2    S    
C30   C36   S    
C27   C36   T    
C17   C22   S    
C13   C17   S    
C61   I2    S    
C64   C65   A    
C14   C22   T    
C55   C57   A    
C19   C24   S    
C58   C59   A    
C18   H3    S    
C80   C88   A    
C44   C95   S    
C6    C67   S    
C11   C13   S    
C8    H20   S    
C38   C39   A    
Cr5   O15   S    
C58   C61   A    
C94   O14   A    
C63   C72   A    
C33   C35   S    
C46   H17   S    
C1    O12   A    
C86   C88   A    
C95   O16   A    
C67   H11   S    
C69   C70   A    
C14   C91   S    
Cr2   O26   S    
Cr6   O10   S    
C79   C80   A    
Cr4   O19   S    
C26   C35   S    
C48   C52   A    
Cr2   O20   S    
C29   C31   S    
C82   C83   A    
C85   H31   S    
C92   O10   A    
C31   H9    S    
C33   H8    S    
C88   H29   S    
C4    C9    S    
C75   C79   A    
C68   H23   S    
C91   O7    A    
C63   H25   S    
C25   H6    S    
C64   C66   A    
C39   C48   A    
C57   C65   A    
