data_mof_unit_14979.cif
_audit_creation_date              2012-12-10T17:23:41-0500
_audit_creation_method            fapswitch 2.2
_symmetry_space_group_name_H-M    P1
_symmetry_Int_Tables_number       1
_space_group_crystal_system       triclinic
_cell_length_a                    9.603341
_cell_length_b                    10.777096
_cell_length_c                    17.253004
_cell_angle_alpha                 92.658271
_cell_angle_beta                  86.230073
_cell_angle_gamma                 90.035667
_cell_volume                      1779.83264574

loop_
_atom_site_label
_atom_site_type_symbol
_atom_type_description
_atom_site_fract_x
_atom_site_fract_y
_atom_site_fract_z
_atom_type_partial_charge
C1    C     C_R   0.499670 0.737423 0.502764 0.795014
C2    C     C_R   0.350896 0.500378 0.778934 -0.188911
C3    C     C_R   0.408058 0.487719 0.144981 -0.153138
C4    C     C_R   0.402419 0.491392 0.225575 -0.192600
C5    C     C_R   0.655236 0.501234 0.222162 -0.206244
C6    C     C_R   0.660717 0.498038 0.141180 -0.124533
C7    C     C_R   0.537391 0.489241 0.102261 0.163438
C8    C     C_2   0.453193 0.422201 0.975718 -0.142070
C9    C     C_2   0.545785 0.484818 0.017074 -0.141090
C10   C     C_R   0.525844 0.497480 0.264866 -0.032359
C11   C     C_R   0.339354 0.880050 0.626801 -0.185012
C12   C     C_R   0.482091 0.495779 0.649692 0.798277
C13   C     C_R   0.261686 0.949342 0.684644 -0.130242
C14   C     C_R   0.261772 0.078396 0.684600 -0.106460
C15   C     C_R   0.339403 0.138971 0.626661 -0.159261
C16   C     C_R   0.417143 0.070646 0.566583 0.097596
C17   C     C_R   0.417165 0.939378 0.566683 0.099220
C18   C     C_R   0.499211 0.871644 0.508069 -0.099684
C19   C     C_R   0.583952 0.932484 0.453122 -0.188585
C20   C     C_R   0.583856 0.060475 0.452981 -0.199661
C21   C     C_R   0.499073 0.129552 0.507815 -0.084076
C22   C     C_R   0.868234 0.335010 0.396382 -0.147159
C23   C     C_R   0.499682 0.262922 0.502370 0.766272
C24   C     C_R   0.946364 0.254522 0.345646 -0.209149
C25   C     C_R   0.089868 0.254519 0.345645 -0.201966
C26   C     C_R   0.156130 0.334953 0.396413 -0.146918
C27   C     C_R   0.080768 0.418874 0.449088 0.208905
C28   C     C_R   0.931221 0.418919 0.449089 0.212961
C29   C     C_R   0.920464 0.577074 0.548510 -0.048091
C30   C     C_R   0.068329 0.577040 0.548494 -0.050400
C31   C     C_R   0.517892 0.499529 0.349952 0.772610
C32   C     C_R   0.473836 0.474747 0.732896 -0.114552
C33   C     C_R   0.587717 0.420500 0.765546 -0.246135
C34   C     C_R   0.581367 0.394320 0.844017 0.472583
C35   C     C_R   0.460054 0.428016 0.891108 0.022352
C36   C     C_R   0.344401 0.477470 0.857747 -0.202929
Cu1   Cu    Cu3+1 0.359340 0.500010 0.500010 0.931316
Cu2   Cu    Cu3+1 0.640660 0.499990 0.499990 0.943354
H1    H     H_    0.681054 0.395945 0.729414 0.206425
H2    H     H_    0.761201 0.500575 0.108825 0.152787
H3    H     H_    0.648115 0.880352 0.408934 0.153275
H4    H     H_    0.339725 0.780265 0.630827 0.137271
H5    H     H_    0.202678 0.902699 0.730299 0.140691
H6    H     H_    0.202848 0.131914 0.730226 0.149519
H7    H     H_    0.339651 0.239293 0.630567 0.156418
H8    H     H_    0.647935 0.105888 0.408673 0.138354
H9    H     H_    0.860680 0.640296 0.588287 0.143951
H10   H     H_    0.759054 0.327111 0.391585 0.193053
H11   H     H_    0.894836 0.191563 0.306047 0.154005
H12   H     H_    0.301033 0.489484 0.256960 0.160710
H13   H     H_    0.150645 0.191600 0.306014 0.156751
H14   H     H_    0.266470 0.327083 0.391650 0.198383
H15   H     H_    0.118849 0.640241 0.588267 0.133052
H16   H     H_    0.751874 0.506426 0.251164 0.159111
H17   H     H_    0.631512 0.533127 0.987364 0.182428
H18   H     H_    0.250466 0.502130 0.893386 0.170113
H19   H     H_    0.310979 0.485622 0.116453 0.129472
H20   H     H_    0.261068 0.540226 0.754373 0.164095
H21   H     H_    0.365405 0.374636 0.003864 0.151259
N1    N     N_R   0.852190 0.498790 0.499250 -0.201797
N2    N     N_R   0.148060 0.498710 0.499220 -0.200622
O1    O     O_R   0.381190 0.680360 0.500010 -0.577568
O2    O     O_R   0.618760 0.680340 0.500000 -0.572789
O3    O     O_R   0.367440 0.500030 0.613600 -0.594574
O4    O     O_R   0.605010 0.500010 0.613590 -0.577131
O5    O     O_R   0.381240 0.319660 0.500000 -0.602615
O6    O     O_R   0.618810 0.319640 0.499990 -0.586950
O7    O     O_R   0.394990 0.499990 0.386410 -0.599868
O8    O     O_R   0.632560 0.499970 0.386400 -0.602571
S1    S     S_3+6 0.724331 0.314953 0.879138 -0.020127
O9    O     O_2   0.828262 0.408341 0.907090 -0.331483
O10   O     O_2   0.676128 0.235169 0.944850 -0.277638
O11   O     O_3   0.801818 0.224513 0.806727 -0.542149
H22   H     H_    0.885182 0.189782 0.828902 0.374087

loop_
_geom_bond_atom_site_label_1
_geom_bond_atom_site_label_2
_ccdc_geom_bond_type
C22   H10   S    
C16   C21   A    
O11   H22   S    
C35   C36   A    
C1    O1    A    
Cu1   O1    S    
C1    C18   S    
C33   H1    S    
C29   H9    S    
C23   O5    A    
Cu1   Cu2   S    
C18   C19   A    
C3    C7    A    
C8    H21   S    
C5    C6    A    
C12   O3    A    
C15   C16   A    
Cu1   O7    S    
C11   H4    S    
C2    C32   A    
C34   C35   A    
C23   O6    A    
C27   N2    A    
C10   C31   S    
C19   C20   A    
C16   C17   A    
C29   N1    A    
S1    O9    D    
C9    H17   S    
C34   S1    S    
Cu2   O8    S    
C22   C28   A    
C13   C14   A    
C12   C32   S    
C1    O2    A    
C33   C34   A    
C28   N1    A    
C31   O7    A    
C30   H15   S    
C5    H16   S    
C24   C25   A    
C8    C9    D    
C25   C26   A    
C4    H12   S    
C8    C35   S    
C25   H13   S    
C29   C30   A    
C36   H18   S    
C26   H14   S    
Cu2   O4    S    
Cu1   O5    S    
S1    O11   S    
C17   C18   A    
C26   C27   A    
Cu2   O6    S    
Cu2   N1    S    
C3    H19   S    
C21   C23   S    
C6    H2    S    
C15   H7    S    
C4    C10   A    
C3    C4    A    
C13   H5    S    
Cu1   O3    S    
C14   H6    S    
Cu2   O2    S    
C2    C36   A    
C24   H11   S    
C7    C9    S    
C11   C17   A    
Cu1   N2    S    
C2    H20   S    
C6    C7    A    
C12   O4    A    
C32   C33   A    
C5    C10   A    
C11   C13   A    
C22   C24   A    
C31   O8    A    
C20   C21   A    
C30   N2    A    
C27   C28   A    
C14   C15   A    
S1    O10   D    
C20   H8    S    
C19   H3    S    
