data_mof_unit_9401.cif
_audit_creation_date              2012-12-11T16:45:53-0500
_audit_creation_method            fapswitch 2.2
_symmetry_space_group_name_H-M    P1
_symmetry_Int_Tables_number       1
_space_group_crystal_system       triclinic
_cell_length_a                    20.037047
_cell_length_b                    17.213225
_cell_length_c                    15.329375
_cell_angle_alpha                 89.862689
_cell_angle_beta                  52.342957
_cell_angle_gamma                 89.611432
_cell_volume                      4185.62220504

loop_
_atom_site_label
_atom_site_type_symbol
_atom_type_description
_atom_site_fract_x
_atom_site_fract_y
_atom_site_fract_z
_atom_type_partial_charge
C1    C     C_R   0.868819 0.691841 0.003091 -0.187382
C2    C     C_R   0.207680 0.342570 0.987644 -0.210286
C3    C     C_3   0.670787 0.621389 0.085905 -0.262763
C4    C     C_3   0.765239 0.419799 0.868552 -0.161394
C5    C     C_3   0.240924 0.443251 0.121751 -0.111208
C6    C     C_3   0.248410 0.928757 0.898087 -0.132705
C7    C     C_3   0.776346 0.951381 0.052608 -0.170078
C8    C     C_3   0.904602 0.174314 0.970114 -0.339871
C9    C     C_3   0.091591 0.198778 0.004167 -0.262832
C10   C     C_3   0.401974 0.676939 0.970921 -0.349487
C11   C     C_3   0.575296 0.707407 0.002935 -0.246052
C12   C     C_3   0.865322 0.625039 0.752109 -0.259249
C13   C     C_R   0.317947 0.822891 0.976407 -0.181811
C14   C     C_3   0.052592 0.607224 0.292800 -0.183046
C15   C     C_3   0.434427 0.059009 0.727690 -0.064629
C16   C     C_3   0.554141 0.105885 0.290109 -0.193127
C17   C     C_3   0.142320 0.140569 0.332454 -0.214548
C18   C     C_3   0.916547 0.158061 0.600951 -0.228711
C19   C     C_3   0.636350 0.638892 0.345277 -0.212228
C20   C     C_3   0.410597 0.662307 0.608618 -0.171162
C21   C     C_R   0.708572 0.843143 0.976516 -0.161213
C22   C     C_R   0.808544 0.637626 0.324657 0.145071
C23   C     C_R   0.194816 0.631337 0.676785 0.161657
C24   C     C_R   0.307751 0.136880 0.323958 0.139301
C25   C     C_R   0.695328 0.133199 0.678593 0.183685
C26   C     C_R   0.722074 0.645089 0.525470 -0.107387
C27   C     C_R   0.284274 0.638741 0.473813 -0.133466
C28   C     C_R   0.217982 0.145029 0.525321 -0.113973
C29   C     C_R   0.121478 0.694739 0.008860 -0.210144
C30   C     C_R   0.781605 0.141695 0.476598 -0.134300
C31   C     C_R   0.732488 0.663285 0.429620 -0.173365
C32   C     C_R   0.272153 0.654552 0.571673 -0.178790
C33   C     C_R   0.230306 0.162093 0.428078 -0.177520
C34   C     C_R   0.771455 0.157634 0.572940 -0.162836
C35   C     C_R   0.169719 0.209728 0.435149 0.413165
C36   C     C_R   0.830800 0.205655 0.564678 0.413660
C37   C     C_R   0.669491 0.709484 0.439890 0.405787
C38   C     C_R   0.327692 0.706254 0.566433 0.418387
C39   C     C_R   0.118429 0.259856 0.529035 0.417246
C40   C     C_R   0.370612 0.193361 0.997695 -0.276821
C41   C     C_R   0.875867 0.259759 0.475922 0.430455
C42   C     C_R   0.615948 0.756365 0.536984 0.398759
C43   C     C_R   0.366381 0.763644 0.483154 0.449492
C44   C     C_R   0.121379 0.250922 0.619997 -0.132605
C45   C     C_R   0.871192 0.253158 0.386200 -0.139453
C46   C     C_R   0.624076 0.748561 0.622919 -0.125083
C47   C     C_R   0.367578 0.754672 0.388979 -0.156214
C48   C     C_R   0.663171 0.680854 0.623483 -0.036295
C49   C     C_R   0.335815 0.684228 0.381456 -0.029702
C50   C     C_R   0.158669 0.182110 0.622520 -0.052405
C51   C     C_R   0.623455 0.194323 0.006289 -0.207447
C52   C     C_R   0.834024 0.185270 0.382879 -0.031168
C53   C     C_3   0.710951 0.659514 0.667812 -0.290333
C54   C     C_3   0.284805 0.666071 0.341439 -0.282712
C55   C     C_3   0.205768 0.160081 0.667923 -0.264591
C56   C     C_3   0.780630 0.169850 0.345685 -0.288684
C57   C     C_R   0.900755 0.302765 0.209482 -0.188222
C58   C     C_R   0.094762 0.301814 0.793966 -0.151965
C59   C     C_R   0.398456 0.803472 0.211115 -0.202365
C60   C     C_R   0.596405 0.801315 0.794398 -0.163872
C61   C     C_3   0.778453 0.623787 0.555679 0.537604
C62   C     C_R   0.892180 0.315378 0.305315 0.110164
C63   C     C_3   0.226517 0.618434 0.445766 0.527078
C64   C     C_3   0.273518 0.123683 0.556583 0.557883
C65   C     C_3   0.721686 0.123580 0.451602 0.533365
C66   C     C_2   0.704245 0.238627 0.065881 0.625856
C67   C     C_2   0.315826 0.239416 0.894590 0.665675
C68   C     C_2   0.198866 0.739738 0.073463 0.622214
C69   C     C_2   0.764410 0.722844 0.981410 0.702250
C70   C     C_2   0.266248 0.766821 0.975432 -0.149997
C71   C     C_2   0.779626 0.796915 0.945848 -0.134715
C72   C     C_2   0.772577 0.262972 0.966395 -0.147743
C73   C     C_R   0.102504 0.313833 0.698797 0.085746
C74   C     C_2   0.292388 0.310388 0.941997 -0.156243
C75   C     C_R   0.852070 0.392525 0.915351 0.538434
C76   C     C_R   0.164735 0.407065 0.059314 0.503890
C77   C     C_R   0.346170 0.894992 0.924095 0.512997
C78   C     C_R   0.670096 0.908370 0.046811 0.517459
C79   C     C_R   0.857220 0.576827 0.314286 -0.133779
C80   C     C_R   0.144272 0.573505 0.687039 -0.060405
C81   C     C_R   0.357006 0.076650 0.314293 -0.123238
C82   C     C_R   0.647097 0.073291 0.688771 -0.087069
C83   C     C_R   0.865627 0.303609 0.009692 0.558769
C84   C     C_R   0.389414 0.816441 0.307308 0.119214
C85   C     C_R   0.155229 0.316015 0.962794 0.552900
C86   C     C_R   0.361601 0.805402 0.015591 0.548435
C87   C     C_R   0.654825 0.816705 0.956665 0.551599
C88   C     C_R   0.850932 0.672441 0.222152 -0.129682
C89   C     C_R   0.151772 0.668055 0.778839 -0.140119
C90   C     C_R   0.350408 0.171667 0.221192 -0.133339
C91   C     C_R   0.650679 0.170006 0.779910 -0.128178
C92   C     C_R   0.911077 0.393419 0.302297 0.031196
C93   C     C_R   0.088730 0.393195 0.698044 0.025801
C94   C     C_R   0.412179 0.893546 0.301482 0.031866
C95   C     C_R   0.606371 0.812041 0.699049 0.078040
C96   C     C_R   0.593781 0.890605 0.695292 0.068699
C97   C     C_R   0.860446 0.602990 0.904569 0.616009
C98   C     C_R   0.131149 0.606154 0.105816 0.566380
C99   C     C_R   0.361381 0.103972 0.902330 0.614095
C100  C     C_R   0.633208 0.105942 0.103380 0.602318
C101  C     C_R   0.835537 0.677268 0.950658 -0.309252
C102  C     C_R   0.148956 0.682606 0.069242 -0.190186
C103  C     C_R   0.341377 0.180078 0.937970 -0.187149
C104  C     C_R   0.652436 0.181929 0.064768 -0.205464
C105  C     C_3   0.095848 0.355777 0.441554 0.012551
C106  C     C_R   0.825417 0.319230 0.965086 -0.208245
C107  C     C_3   0.880444 0.359485 0.573125 -0.073300
C108  C     C_3   0.572199 0.843854 0.463225 0.051134
C109  C     C_3   0.335606 0.874091 0.583779 -0.184192
C110  C     C_3   0.861554 0.738685 0.467437 -0.248079
C111  C     C_3   0.129733 0.725716 0.541689 -0.225013
C112  C     C_3   0.357637 0.238152 0.467879 -0.277263
C113  C     C_3   0.629225 0.233625 0.545594 -0.254572
C114  C     C_3   0.682292 0.255923 0.230545 -0.221217
C115  C     C_3   0.359758 0.271602 0.721216 -0.205079
C116  C     C_3   0.180193 0.754604 0.236270 -0.221146
H1    H     H_    0.867921 0.746367 0.038553 0.120373
H2    H     H_    0.229024 0.555129 0.429618 -0.003724
H3    H     H_    0.555310 0.714128 0.087965 0.186883
H4    H     H_    0.906857 0.463776 0.411338 0.075688
H5    H     H_    0.004265 0.449836 0.290590 0.180672
H6    H     H_    0.116524 0.448744 0.564783 0.080622
H7    H     H_    0.024206 0.476709 0.683233 0.170489
H8    H     H_    0.420696 0.967178 0.396898 0.093675
H9    H     H_    0.514386 0.939888 0.279067 0.162802
H10   H     H_    0.659892 0.922058 0.536993 0.072000
H11   H     H_    0.581948 0.984198 0.620254 0.088389
H12   H     H_    0.923824 0.659276 0.715159 0.143984
H13   H     H_    0.278917 0.059644 0.560724 0.005071
H14   H     H_    0.809221 0.663492 0.790855 0.158535
H15   H     H_    0.872173 0.593824 0.683770 0.191817
H16   H     H_    0.996125 0.578781 0.311281 0.153200
H17   H     H_    0.044556 0.670997 0.291546 0.163735
H18   H     H_    0.055534 0.594116 0.361280 0.170562
H19   H     H_    0.458481 0.007282 0.742470 0.151802
H20   H     H_    0.477731 0.109308 0.699927 0.133344
H21   H     H_    0.429012 0.045026 0.661632 0.158210
H22   H     H_    0.499199 0.075888 0.306214 0.149254
H23   H     H_    0.544643 0.169563 0.290107 0.157327
H24   H     H_    0.721617 0.060316 0.437191 0.002163
H25   H     H_    0.556345 0.092638 0.359173 0.170132
H26   H     H_    0.095124 0.109626 0.411080 0.098978
H27   H     H_    0.198829 0.103154 0.278035 0.155359
H28   H     H_    0.113487 0.150001 0.290341 0.165510
H29   H     H_    0.972814 0.189916 0.532464 0.202338
H30   H     H_    0.913707 0.099398 0.572823 0.117117
H31   H     H_    0.924387 0.149223 0.665823 0.147092
H32   H     H_    0.593104 0.607843 0.425245 0.088403
H33   H     H_    0.691987 0.601583 0.286630 0.153809
H34   H     H_    0.601150 0.648099 0.311767 0.176719
H35   H     H_    0.906565 0.246729 0.175091 0.190496
H36   H     H_    0.467256 0.688187 0.532442 0.173932
H37   H     H_    0.403314 0.600778 0.593597 0.098356
H38   H     H_    0.421589 0.662042 0.671165 0.148786
H39   H     H_    0.084709 0.246591 0.832345 0.159526
H40   H     H_    0.403389 0.747484 0.177464 0.190647
H41   H     H_    0.586498 0.745720 0.830781 0.160956
H42   H     H_    0.839393 0.534744 0.376346 0.092321
H43   H     H_    0.161402 0.531340 0.625306 0.089018
H44   H     H_    0.339775 0.034663 0.376524 0.091611
H45   H     H_    0.116533 0.749928 0.979171 0.125481
H46   H     H_    0.671968 0.028352 0.628516 0.084609
H47   H     H_    0.830959 0.723339 0.202559 0.138295
H48   H     H_    0.173276 0.716603 0.799879 0.138589
H49   H     H_    0.330104 0.221330 0.199652 0.142945
H50   H     H_    0.670405 0.219932 0.801115 0.126840
H51   H     H_    0.084805 0.328172 0.386185 0.227020
H52   H     H_    0.164175 0.367871 0.396683 0.060354
H53   H     H_    0.062905 0.412734 0.464985 0.120763
H54   H     H_    0.885396 0.333401 0.635143 0.221915
H55   H     H_    0.813144 0.368637 0.608223 0.060300
H56   H     H_    0.377202 0.249301 0.023374 0.142883
H57   H     H_    0.909366 0.417725 0.555232 0.133633
H58   H     H_    0.556311 0.810175 0.416679 0.203405
H59   H     H_    0.639607 0.861623 0.408344 0.080480
H60   H     H_    0.533704 0.897875 0.491565 0.135052
H61   H     H_    0.303936 0.846070 0.665397 0.182537
H62   H     H_    0.288401 0.890303 0.570666 0.084540
H63   H     H_    0.363679 0.928627 0.586127 0.159269
H64   H     H_    0.605804 0.616789 0.814040 0.112910
H65   H     H_    0.698131 0.592390 0.787367 0.128520
H66   H     H_    0.360599 0.570766 0.251145 0.092165
H67   H     H_    0.618821 0.249584 0.976494 0.126492
H68   H     H_    0.289754 0.595398 0.230367 0.121448
H69   H     H_    0.102193 0.120006 0.818058 0.106196
H70   H     H_    0.195774 0.089081 0.782146 0.156849
H71   H     H_    0.853294 0.073160 0.255587 0.097008
H72   H     H_    0.780176 0.098408 0.239413 0.131657
H73   H     H_    0.805192 0.773457 0.530672 0.132378
H74   H     H_    0.871833 0.741787 0.387865 0.157642
H75   H     H_    0.916579 0.766677 0.454731 0.161571
H76   H     H_    0.179119 0.753431 0.542521 0.127612
H77   H     H_    0.068933 0.735325 0.624425 0.153289
H78   H     H_    0.732206 0.708744 0.692008 0.187602
H79   H     H_    0.124973 0.755245 0.481318 0.125169
H80   H     H_    0.302163 0.273558 0.531697 0.131781
H81   H     H_    0.366781 0.241537 0.389111 0.163600
H82   H     H_    0.413697 0.265340 0.453251 0.155091
H83   H     H_    0.622283 0.261906 0.486399 0.131843
H84   H     H_    0.681386 0.260708 0.540928 0.134023
H85   H     H_    0.570559 0.245491 0.629566 0.153160
H86   H     H_    0.706413 0.195023 0.212977 0.177250
H87   H     H_    0.622391 0.258026 0.315611 0.139403
H88   H     H_    0.727283 0.294122 0.229084 0.164432
H89   H     H_    0.256340 0.717850 0.332896 0.156326
H90   H     H_    0.369442 0.246135 0.647964 0.189737
H91   H     H_    0.423301 0.282232 0.698728 0.086449
H92   H     H_    0.324692 0.327230 0.740804 0.124699
H93   H     H_    0.205920 0.694188 0.216042 0.176888
H94   H     H_    0.121810 0.755021 0.322626 0.140886
H95   H     H_    0.225213 0.793953 0.233057 0.165162
H96   H     H_    0.706076 0.594206 0.112546 0.137804
H97   H     H_    0.687825 0.593862 0.009085 0.160204
H98   H     H_    0.602936 0.610040 0.151519 0.142994
H99   H     H_    0.312480 0.675516 0.869652 0.088604
H100  H     H_    0.227507 0.208803 0.692105 0.204641
H101  H     H_    0.348802 0.761940 0.807090 0.194644
H102  H     H_    0.899534 0.824959 0.886787 0.091636
H103  H     H_    0.890844 0.789617 0.790938 0.091889
H104  H     H_    0.815976 0.167706 0.867799 0.093114
H105  H     H_    0.857172 0.251425 0.799356 0.175859
H106  H     H_    0.415943 0.334011 0.875628 0.073714
H107  H     H_    0.362948 0.406413 0.870170 0.090135
H108  H     H_    0.717917 0.436227 0.956967 0.113934
H109  H     H_    0.750051 0.362678 0.851737 0.124496
H110  H     H_    0.759747 0.463061 0.819460 0.161519
H111  H     H_    0.753802 0.222951 0.337008 0.156205
H112  H     H_    0.279650 0.479201 0.045835 0.104701
H113  H     H_    0.273052 0.389393 0.118527 0.133923
H114  H     H_    0.230838 0.478580 0.189352 0.156590
H115  H     H_    0.208414 0.947098 0.986251 0.116823
H116  H     H_    0.226328 0.872859 0.888576 0.118308
H117  H     H_    0.239650 0.972854 0.852938 0.164011
H118  H     H_    0.808582 0.969694 0.965645 0.098966
H119  H     H_    0.804906 0.897755 0.057513 0.133628
H120  H     H_    0.786502 0.998224 0.092877 0.160741
H121  H     H_    0.943584 0.134912 0.979971 0.160646
H122  H     H_    0.784375 0.559766 0.559146 0.010917
H123  H     H_    0.945568 0.195454 0.883304 0.139262
H124  H     H_    0.852041 0.139178 0.985955 0.155945
H125  H     H_    0.105635 0.136960 0.978589 0.158650
H126  H     H_    0.033092 0.214742 0.015573 0.153553
H127  H     H_    0.082126 0.203200 0.083674 0.134129
H128  H     H_    0.441242 0.636766 0.979304 0.161742
H129  H     H_    0.442904 0.699945 0.885066 0.141917
H130  H     H_    0.349958 0.641992 0.984864 0.157498
H131  H     H_    0.579841 0.644387 0.985480 0.138095
H132  H     H_    0.524800 0.732319 0.002069 0.158215
N1    N     N_R   0.908660 0.628630 0.995840 -0.065050
N2    N     N_R   0.096530 0.421430 0.063580 -0.130405
N3    N     N_R   0.403470 0.921430 0.936420 -0.136276
N4    N     N_R   0.596530 0.921430 0.063580 -0.135920
N5    N     N_R   0.927500 0.575670 0.211370 -0.058041
N6    N     N_R   0.072500 0.575670 0.788630 -0.059032
N7    N     N_R   0.427500 0.075670 0.211370 -0.059785
N8    N     N_R   0.572500 0.075670 0.788630 -0.067535
N9    N     N_R   0.908660 0.365680 0.995820 -0.132644
N10   N     N_R   0.091340 0.365680 0.004180 -0.137318
N11   N     N_R   0.408660 0.865680 0.995820 -0.129474
N12   N     N_R   0.091340 0.628630 0.004160 -0.063736
N13   N     N_R   0.591340 0.865680 0.004180 -0.140067
N14   N     N_R   0.922310 0.631420 0.151980 -0.046618
N15   N     N_R   0.077690 0.631420 0.848020 -0.053411
N16   N     N_R   0.422310 0.131420 0.151980 -0.044036
N17   N     N_R   0.577690 0.131420 0.848020 -0.050741
N18   N     N_R   0.927500 0.426330 0.211360 -0.072101
N19   N     N_R   0.072500 0.426330 0.788640 -0.078882
N20   N     N_R   0.427500 0.926330 0.211360 -0.072204
N21   N     N_R   0.572500 0.926330 0.788640 -0.077879
N22   N     N_R   0.903470 0.570760 0.936440 -0.093019
N23   N     N_R   0.408660 0.128630 0.995840 -0.056919
N24   N     N_R   0.096530 0.570760 0.063560 -0.098544
N25   N     N_R   0.403470 0.070760 0.936440 -0.115191
N26   N     N_R   0.596530 0.070760 0.063560 -0.098849
N27   N     N_3   0.667525 0.598892 0.751832 -0.230966
N28   N     N_3   0.332353 0.617941 0.241569 -0.201994
N29   N     N_3   0.161658 0.099692 0.752184 -0.231802
N30   N     N_3   0.824867 0.120654 0.246924 -0.200695
N31   N     N_3   0.294787 0.733124 0.871695 -0.198113
N32   N     N_3   0.862595 0.825693 0.859922 -0.235855
N33   N     N_3   0.801199 0.225506 0.864810 -0.196144
N34   N     N_R   0.591340 0.128630 0.004160 -0.063701
N35   N     N_3   0.357127 0.361907 0.920933 -0.239903
N36   N     N_3   0.947472 0.423054 0.351144 -0.162345
N37   N     N_3   0.062497 0.428547 0.639221 -0.152295
N38   N     N_3   0.454379 0.920599 0.343978 -0.164227
N39   N     N_3   0.597292 0.925863 0.607959 -0.181891
N40   N     N_R   0.922310 0.368460 0.151950 -0.051029
N41   N     N_R   0.077690 0.368460 0.848050 -0.057429
N42   N     N_R   0.422310 0.868460 0.151950 -0.050683
N43   N     N_R   0.577690 0.868460 0.848050 -0.058804
N44   N     N_R   0.903470 0.421430 0.936420 -0.133404
Ni1   Ni    Ni4+2 0.000000 0.630300 0.000000 0.178964
Ni2   Ni    Ni4+2 0.500000 0.130300 0.000000 0.180785
Ni3   Ni    Ni4+2 0.000000 0.369700 0.000000 0.199874
Ni4   Ni    Ni4+2 0.500000 0.869700 0.000000 0.195076
Ni5   Ni    Ni4+2 0.988090 0.497570 0.863760 0.238685
Ni6   Ni    Ni4+2 0.011910 0.497570 0.136240 0.213921
Ni7   Ni    Ni4+2 0.488090 0.997570 0.863760 0.204692
Ni8   Ni    Ni4+2 0.511910 0.997570 0.136240 0.213106
O1    O     O_3   0.060183 0.310795 0.538258 -0.625145
O2    O     O_3   0.312945 0.218667 0.809331 -0.539749
O3    O     O_3   0.161170 0.784557 0.168043 -0.637338
O4    O     O_3   0.683188 0.702649 0.073584 -0.600665
O5    O     O_3   0.848901 0.420593 0.833359 -0.577629
O6    O     O_3   0.161702 0.425485 0.149841 -0.595553
O7    O     O_3   0.335032 0.924701 0.850009 -0.597445
O8    O     O_3   0.688890 0.941700 0.111489 -0.574244
O9    O     O_3   0.872232 0.234047 0.049551 -0.638375
O10   O     O_3   0.159115 0.244330 0.920061 -0.579962
O11   O     O_3   0.368632 0.734870 0.053018 -0.641405
O12   O     O_3   0.926508 0.314840 0.474615 -0.623771
O13   O     O_3   0.654204 0.742459 0.922419 -0.638545
O14   O     O_3   0.854356 0.569636 0.827667 -0.605818
O15   O     O_3   0.126522 0.578317 0.193781 -0.636921
O16   O     O_3   0.354102 0.074962 0.824811 -0.589304
O17   O     O_3   0.629456 0.079077 0.191150 -0.617842
O18   O     O_3   0.165265 0.213558 0.348478 -0.631654
O19   O     O_3   0.842154 0.201328 0.644732 -0.628988
O20   O     O_3   0.662549 0.712036 0.355514 -0.625795
O21   O     O_3   0.337540 0.706360 0.647989 -0.616746
O22   O     O_3   0.550039 0.801931 0.556978 -0.625296
O23   O     O_3   0.400914 0.826938 0.496878 -0.612151
O24   O     O_3   0.858915 0.660246 0.497629 -0.639397
O25   O     O_3   0.141019 0.644698 0.520852 -0.617987
O26   O     O_3   0.354280 0.159666 0.498529 -0.629208
O27   O     O_3   0.637436 0.152175 0.528811 -0.627380
O28   O     O_3   0.667823 0.286133 0.157809 -0.637736

loop_
_geom_bond_atom_site_label_1
_geom_bond_atom_site_label_2
_ccdc_geom_bond_type
C99   C103  A    
C69   O4    S    
C17   O18   S    
N18   Ni6   S    
C78   N4    A    
C91   H50   S    
N4    Ni8   S    
C38   O21   S    
C73   C93   A    
C19   O20   S    
C76   N2    A    
H72   N30   S    
C80   N6    A    
C99   O16   S    
C109  O23   S    
C51   H67   S    
C97   N22   A    
C13   C70   S    
C100  C104  A    
C19   H34   S    
C37   C42   A    
C66   C72   D    
N2    Ni6   S    
N26   N34   A    
C23   C89   A    
C10   H130  S    
H5    N36   S    
C113  H85   S    
H70   N29   S    
C25   C34   S    
C92   N18   A    
C53   H78   S    
N44   Ni5   S    
C48   C53   S    
C112  H82   S    
C57   N40   A    
C76   O6    S    
C46   C48   A    
H11   N39   S    
C59   C84   A    
N8    Ni7   S    
C63   H2    S    
C80   H43   S    
C107  H55   S    
C51   C104  A    
C98   C102  A    
C108  O22   S    
C110  H74   S    
C31   C37   A    
H69   N29   S    
C17   H26   S    
N23   Ni2   S    
C116  H93   S    
C54   H89   S    
C79   N5    A    
N14   Ni1   S    
C67   C74   D    
C114  O28   S    
C4    H109  S    
C111  O25   S    
C105  H53   S    
C68   O3    S    
C72   C106  S    
N11   Ni4   S    
C55   N29   S    
C90   H49   S    
C18   O19   S    
C61   H122  S    
C1    C101  A    
C44   C50   A    
C7    H120  S    
N1    N22   A    
C26   C61   S    
C16   H22   S    
C24   C90   A    
C85   O10   S    
C12   H12   S    
C69   C101  S    
C3    H97   S    
C36   O19   S    
C107  H57   S    
C19   H32   S    
C38   C43   A    
N6    Ni5   S    
C29   C102  A    
C110  O24   S    
C60   C95   A    
C20   O21   S    
C60   N43   A    
C54   N28   S    
C54   C63   S    
C41   C45   A    
C91   N17   A    
C43   C47   A    
C15   H21   S    
C6    H116  S    
C9    H125  S    
C79   H42   S    
C67   C103  S    
N41   Ni3   S    
C17   H28   S    
N42   Ni4   S    
C116  H95   S    
C1    N1    A    
C5    O6    S    
C108  H59   S    
C45   C62   S    
C37   O20   S    
C58   N41   A    
C53   C61   S    
N10   Ni3   S    
C89   N15   A    
C90   N16   A    
C89   H48   S    
C100  O17   S    
C7    H118  S    
C87   O13   S    
C81   H44   S    
C115  H92   S    
C61   O24   S    
C35   O18   S    
C8    H124  S    
C86   O11   S    
C20   H37   S    
C30   C34   A    
C60   H41   S    
C18   H31   S    
C42   O22   S    
C15   H20   S    
C82   H46   S    
C45   C52   A    
C96   N21   A    
C100  N26   A    
C24   C81   A    
H4    N36   S    
C1    H1    S    
C81   N7    A    
C98   O15   S    
C4    H110  S    
H103  N32   S    
C114  H88   S    
C9    H127  S    
N24   Ni6   S    
C3    O4    S    
H65   N27   S    
H66   N28   S    
C30   C52   A    
C75   N44   A    
N6    N15   A    
C59   H40   S    
C39   C44   A    
C14   H17   S    
C64   O26   S    
C6    O7    S    
N1    Ni1   S    
C105  H52   S    
C14   H16   S    
C12   O14   S    
H105  N33   S    
C16   H25   S    
C92   N36   S    
C40   C103  A    
C93   N37   S    
C97   O14   S    
C57   H35   S    
C33   C35   A    
N19   Ni5   S    
C115  O2    S    
C34   C36   A    
C30   C65   S    
N18   N40   A    
C115  H90   S    
C5    H114  S    
C72   N33   S    
N7    Ni8   S    
C65   O27   S    
C27   C49   A    
C111  H79   S    
H8    N38   S    
N8    N17   A    
C18   H29   S    
C21   C71   S    
C11   H132  S    
H6    N37   S    
C68   C102  S    
C22   C79   A    
N21   N43   A    
H64   N27   S    
H71   N30   S    
C110  H75   S    
C2    C85   A    
C42   C46   A    
C112  H80   S    
C116  H94   S    
N3    N11   A    
C108  H58   S    
C21   C78   A    
C114  H86   S    
C51   N34   A    
H104  N33   S    
C22   C88   A    
C23   C80   A    
C87   N13   A    
C26   C48   A    
C111  H76   S    
C82   N8    A    
C36   C41   A    
N16   Ni2   S    
H107  N35   S    
C7    H119  S    
C88   N14   A    
C66   C104  S    
C10   H128  S    
C47   C49   A    
N34   Ni2   S    
C9    O10   S    
C98   N24   A    
N3    Ni7   S    
C70   N31   S    
C20   H36   S    
N12   N24   A    
C35   C39   A    
N25   Ni7   S    
N26   Ni8   S    
N15   Ni1   S    
C10   H129  S    
C84   C94   A    
C47   C84   S    
C14   O15   S    
C27   C63   S    
C111  H77   S    
N22   Ni5   S    
C28   C64   S    
C25   C82   A    
C112  H81   S    
C40   H56   S    
C2    C76   A    
H9    N38   S    
C56   H111  S    
C27   C32   A    
C66   O28   S    
C71   N32   S    
C74   N35   S    
C93   N19   A    
C94   N20   A    
C110  H73   S    
C24   C33   S    
C83   C106  A    
C17   H27   S    
C23   C32   S    
N43   Ni4   S    
C11   O13   S    
C77   O7    S    
C78   O8    S    
C108  H60   S    
C113  H84   S    
C83   N9    A    
C44   C73   S    
N9    Ni3   S    
C109  H61   S    
H101  N31   S    
N7    N16   A    
C83   O9    S    
C75   C106  A    
N20   Ni8   S    
C49   C54   S    
C107  H54   S    
N5    N14   A    
H68   N28   S    
C21   C87   A    
C41   O12   S    
C12   H15   S    
C115  H91   S    
C95   C96   A    
C11   H3    S    
C96   N39   S    
C99   N25   A    
C57   C62   A    
C94   N38   S    
C59   N42   A    
C8    H121  S    
C3    H98   S    
C10   O11   S    
C20   H38   S    
C75   O5    S    
C15   H19   S    
C16   O17   S    
C56   C65   S    
N40   Ni3   S    
C69   C71   D    
H7    N37   S    
C19   H33   S    
C65   H24   S    
C28   C50   A    
C46   C95   S    
C40   N23   A    
C62   C92   A    
C8    O9    S    
C77   N3    A    
C32   C38   A    
C85   N10   A    
C2    C74   S    
C4    O5    S    
C26   C31   A    
H99   N31   S    
C6    H115  S    
C9    H126  S    
C109  H62   S    
C113  H83   S    
C13   C77   A    
C25   C91   A    
C29   N12   A    
C22   C31   S    
C67   O2    S    
C56   N30   S    
C29   H45   S    
N19   N41   A    
C43   O23   S    
C55   H100  S    
C105  O1    S    
C14   H18   S    
C116  O3    S    
C4    H108  S    
C105  H51   S    
C13   C86   A    
C15   O16   S    
C109  H63   S    
C107  O12   S    
C55   C64   S    
N12   Ni1   S    
N5    Ni6   S    
N4    N13   A    
C112  O26   S    
C6    H117  S    
C7    O8    S    
C12   H14   S    
C5    H113  S    
C16   H23   S    
N20   N42   A    
N21   Ni7   S    
C8    H123  S    
C3    H96   S    
N23   N25   A    
C63   O25   S    
H106  N35   S    
C18   H30   S    
C28   C33   A    
C88   H47   S    
C50   C55   S    
C5    H112  S    
C39   O1    S    
C11   H131  S    
C113  O27   S    
N17   Ni2   S    
C86   N11   A    
C58   H39   S    
C53   N27   S    
C64   H13   S    
C58   C73   A    
H102  N32   S    
N13   Ni4   S    
C68   C70   D    
C114  H87   S    
H10   N39   S    
N2    N10   A    
C97   C101  A    
C52   C56   S    
N9    N44   A    
