data_mof_unit_20998.cif
_audit_creation_date              2012-12-11T14:48:39-0500
_audit_creation_method            fapswitch 2.2
_symmetry_space_group_name_H-M    P1
_symmetry_Int_Tables_number       1
_space_group_crystal_system       triclinic
_cell_length_a                    7.230917
_cell_length_b                    18.975648
_cell_length_c                    19.110441
_cell_angle_alpha                 90.0
_cell_angle_beta                  87.751498
_cell_angle_gamma                 89.999986
_cell_volume                      2620.15022886

loop_
_atom_site_label
_atom_site_type_symbol
_atom_type_description
_atom_site_fract_x
_atom_site_fract_y
_atom_site_fract_z
_atom_type_partial_charge
O1    O     O_R   0.350610 0.187000 0.656530 -0.523498
O2    O     O_R   0.649390 0.813000 0.343470 -0.523498
O3    O     O_R   0.149390 0.687000 0.343470 -0.523498
O4    O     O_R   0.850610 0.313000 0.656530 -0.523498
O5    O     O_R   0.655920 0.179060 0.799470 -0.533663
O6    O     O_R   0.344080 0.820940 0.200530 -0.533663
O7    O     O_R   0.844080 0.679060 0.200530 -0.533663
O8    O     O_R   0.155920 0.320940 0.799470 -0.533663
O9    O     O_R   0.826150 0.314000 0.799910 -0.541141
O10   O     O_R   0.173850 0.686000 0.200090 -0.541141
O11   O     O_R   0.673850 0.814000 0.200090 -0.541141
O12   O     O_R   0.326150 0.186000 0.799910 -0.541141
C1    C     C_R   0.485667 0.161662 0.822771 0.677660
C2    C     C_R   0.514333 0.838338 0.177229 0.677660
C3    C     C_R   0.014333 0.661662 0.177229 0.677659
C4    C     C_R   0.985667 0.338338 0.822771 0.677660
O13   O     O_R   0.680230 0.178680 0.657050 -0.521145
O14   O     O_R   0.319770 0.821320 0.342950 -0.521145
O15   O     O_R   0.819770 0.678680 0.342950 -0.521145
O16   O     O_R   0.180230 0.321320 0.657050 -0.521145
C5    C     C_R   0.513978 0.162832 0.633098 0.775323
C6    C     C_R   0.486022 0.837168 0.366902 0.775324
C7    C     C_R   0.986022 0.662832 0.366902 0.775324
C8    C     C_R   0.013978 0.337168 0.633098 0.775323
O17   O     O_3   0.504860 0.294770 0.728200 -0.375098
O18   O     O_3   0.495140 0.705230 0.271800 -0.375099
O19   O     O_3   0.995140 0.794770 0.271800 -0.375098
O20   O     O_3   0.004860 0.205230 0.728200 -0.375099
V1    V     V_3+5 0.779710 0.242290 0.728230 1.518011
V2    V     V_3+5 0.220290 0.757710 0.271770 1.518011
V3    V     V_3+5 0.720290 0.742290 0.271770 1.518011
V4    V     V_3+5 0.279710 0.257710 0.728230 1.518011
H1    H     H_    0.144486 0.469826 0.629005 0.119252
H2    H     H_    0.855514 0.530174 0.370995 0.119252
H3    H     H_    0.355515 0.969826 0.370995 0.119252
H4    H     H_    0.644484 0.030174 0.629005 0.119252
C9    C     C_1   0.027579 0.611158 0.119856 -0.112677
C10   C     C_1   0.972420 0.388842 0.880144 -0.112677
C11   C     C_1   0.472420 0.111158 0.880144 -0.112677
C12   C     C_1   0.527579 0.888841 0.119856 -0.112677
C13   C     C_2   0.069177 0.521638 0.011382 -0.017890
C14   C     C_2   0.930823 0.478361 0.988618 -0.017890
C15   C     C_2   0.430823 0.021638 0.988618 -0.017891
C16   C     C_2   0.569177 0.978361 0.011382 -0.017890
C17   C     C_1   0.957595 0.430095 0.928941 0.008737
C18   C     C_1   0.042405 0.569905 0.071059 0.008737
C19   C     C_1   0.542405 0.930095 0.071059 0.008737
C20   C     C_1   0.457595 0.069905 0.928941 0.008737
C21   C     C_R   0.006227 0.387483 0.573525 -0.058604
C22   C     C_R   0.993773 0.612516 0.426475 -0.058603
C23   C     C_R   0.493772 0.887483 0.426475 -0.058603
C24   C     C_R   0.506227 0.112516 0.573525 -0.058604
H5    H     H_    0.184247 0.590300 0.586526 0.115538
H6    H     H_    0.815753 0.409700 0.413474 0.115538
H7    H     H_    0.315755 0.090300 0.413473 0.115538
H8    H     H_    0.684245 0.909700 0.586526 0.115538
C25   C     C_R   0.113088 0.577197 0.539324 -0.249922
C26   C     C_R   0.886912 0.422803 0.460676 -0.249922
C27   C     C_R   0.386913 0.077198 0.460676 -0.249922
C28   C     C_R   0.613087 0.922802 0.539324 -0.249922
C29   C     C_R   0.085987 0.629731 0.488693 -0.006113
C30   C     C_R   0.914013 0.370269 0.511307 -0.006113
C31   C     C_R   0.414014 0.129731 0.511307 -0.006113
C32   C     C_R   0.585986 0.870269 0.488693 -0.006113
C33   C     C_R   0.924921 0.543741 0.418444 -0.250074
C34   C     C_R   0.075079 0.456258 0.581556 -0.250074
C35   C     C_R   0.575078 0.043741 0.581556 -0.250075
C36   C     C_R   0.424921 0.956259 0.418444 -0.250075
C37   C     C_R   0.951949 0.491673 0.469714 0.162241
C38   C     C_R   0.048051 0.508327 0.530286 0.162241
C39   C     C_R   0.548050 0.991673 0.530286 0.162241
C40   C     C_R   0.451950 0.008327 0.469714 0.162241
C41   C     C_2   0.741569 0.476041 0.022403 0.352771
H9    H     H_    0.639745 0.440153 0.002065 0.079463
O21   O     O_2   0.695778 0.513077 0.072350 -0.531864
C42   C     C_2   0.258431 0.523959 0.977597 0.352771
H10   H     H_    0.360255 0.559847 0.997935 0.079463
O22   O     O_2   0.304221 0.486923 0.927650 -0.531864
C43   C     C_2   0.758431 0.976041 0.977597 0.352771
H11   H     H_    0.860255 0.940153 0.997935 0.079463
O23   O     O_2   0.804222 0.013077 0.927650 -0.531864
C44   C     C_2   0.241569 0.023959 0.022403 0.352772
H12   H     H_    0.139744 0.059847 0.002065 0.079463
O24   O     O_2   0.195778 0.986923 0.072350 -0.531864
C45   C     C_2   0.846771 0.298174 0.495521 0.383980
H13   H     H_    0.752396 0.290489 0.453378 0.063965
O25   O     O_2   0.899557 0.246465 0.527051 -0.535251
C46   C     C_2   0.153229 0.701826 0.504479 0.383981
H14   H     H_    0.247604 0.709511 0.546622 0.063965
O26   O     O_2   0.100443 0.753535 0.472949 -0.535251
C47   C     C_2   0.653228 0.798174 0.504479 0.383980
H15   H     H_    0.747603 0.790489 0.546622 0.063965
O27   O     O_2   0.600443 0.746464 0.472949 -0.535251
C48   C     C_2   0.346772 0.201826 0.495521 0.383979
H16   H     H_    0.252397 0.209511 0.453378 0.063965
O28   O     O_2   0.399557 0.253536 0.527051 -0.535251

loop_
_geom_bond_atom_site_label_1
_geom_bond_atom_site_label_2
_ccdc_geom_bond_type
C26   C30   A    
C12   C19   T    
O1    C5    A    
H7    C27   S    
O13   V1    S    
C13   C14   D    
O3    C7    A    
O15   V3    S    
H4    C35   S    
C45   H13   S    
C31   C48   S    
O20   V1    S    
O9    C4    A    
C42   O22   D    
O10   C3    A    
H6    C26   S    
O4    C8    A    
O11   C2    A    
C47   O27   D    
C41   H9    S    
C3    C9    S    
C10   C17   T    
O16   C8    A    
O2    C6    A    
C13   C18   S    
O14   V2    S    
C25   C38   A    
C15   C20   S    
O5    C1    A    
O4    V1    S    
C16   C19   S    
O9    V1    S    
C27   C40   A    
O17   V4    S    
O7    C3    A    
O11   V3    S    
O18   V3    S    
O8    C4    A    
O12   V4    S    
O19   V2    S    
C41   O21   D    
C48   H16   S    
H2    C33   S    
H1    C34   S    
O5    V1    S    
C45   O25   D    
C30   C45   S    
O7    V3    S    
C21   C34   A    
O8    V4    S    
C42   H10   S    
C47   H15   S    
C43   O23   D    
H5    C25   S    
C7    C22   S    
C28   C39   A    
O1    V4    S    
O13   C5    A    
H8    C28   S    
O2    V3    S    
C14   C17   S    
O3    V2    S    
O15   C7    A    
C15   C16   D    
C29   C46   S    
O6    C2    A    
O10   V2    S    
C36   C40   A    
C46   H14   S    
C48   O28   D    
C24   C35   A    
O6    V2    S    
C46   O26   D    
C44   O24   D    
O16   V4    S    
C8    C21   S    
C15   C44   S    
C14   C41   S    
C21   C30   A    
O14   C6    A    
C16   C43   S    
C23   C32   A    
C24   C31   A    
C26   C37   A    
C25   C29   A    
C27   C31   A    
C28   C32   A    
C39   C40   A    
C13   C42   S    
C34   C38   A    
H3    C36   S    
C33   C37   A    
C35   C39   A    
C23   C36   A    
C37   C38   A    
C22   C33   A    
C1    C11   S    
C2    C12   S    
C43   H11   S    
O12   C1    A    
C44   H12   S    
C22   C29   A    
C6    C23   S    
C32   C47   S    
C9    C18   T    
C5    C24   S    
C4    C10   S    
C11   C20   T    
