data_mof_unit_50584.cif
_audit_creation_date              2012-12-11T16:48:27-0500
_audit_creation_method            fapswitch 2.2
_symmetry_space_group_name_H-M    P1
_symmetry_Int_Tables_number       1
_space_group_crystal_system       triclinic
_cell_length_a                    17.422057
_cell_length_b                    24.587923
_cell_length_c                    14.961278
_cell_angle_alpha                 90.029445
_cell_angle_beta                  125.823318
_cell_angle_gamma                 89.788467
_cell_volume                      5196.53206083

loop_
_atom_site_label
_atom_site_type_symbol
_atom_type_description
_atom_site_fract_x
_atom_site_fract_y
_atom_site_fract_z
_atom_type_partial_charge
C1    C     C_R   0.328739 0.358494 0.908795 0.169332
C2    C     C_R   0.537381 0.498707 0.710837 0.070377
C3    C     C_R   0.061328 0.848997 0.908509 -0.203350
C4    C     C_R   0.332949 0.341433 0.000550 0.021754
C5    C     C_R   0.673211 0.342604 0.005950 0.004237
C6    C     C_R   0.819480 0.858741 0.003738 -0.027392
C7    C     C_R   0.126182 0.818847 0.001083 0.009052
C8    C     C_3   0.378915 0.305991 0.812573 -0.914568
C9    C     C_3   0.669022 0.318849 0.233070 -0.964183
C10   C     C_3   0.818437 0.820010 0.766740 -0.937160
C11   C     C_3   0.118450 0.812239 0.216939 -0.942457
C12   C     C_R   0.061818 0.999497 0.365709 0.080083
C13   C     C_R   0.047560 0.998756 0.722418 0.070746
C14   C     C_R   0.174442 0.499707 0.684339 0.135527
C15   C     C_R   0.795846 0.500962 0.369960 0.136933
C16   C     C_R   0.673995 0.001384 0.698301 0.132712
C17   C     C_R   0.296683 0.000349 0.369403 0.136355
C18   C     C_2   0.920584 0.458133 0.540545 -0.115783
C19   C     C_2   0.022790 0.461769 0.622789 -0.115524
C20   C     C_2   0.420235 0.957470 0.541363 -0.113046
C21   C     C_R   0.677815 0.363433 0.094725 0.198917
C22   C     C_2   0.521476 0.961472 0.629382 -0.115321
C23   C     C_2   0.870326 0.502856 0.487438 -0.197612
C24   C     C_2   0.072432 0.500277 0.613904 -0.201027
C25   C     C_2   0.369341 0.001968 0.487531 -0.196760
C26   C     C_2   0.571973 0.003138 0.631465 -0.187473
C27   C     C_R   0.286213 0.700134 0.105600 0.137938
C28   C     C_R   0.631602 0.760641 0.922939 0.137644
C29   C     C_R   0.895419 0.264181 0.103876 0.175613
C30   C     C_R   0.107703 0.267748 0.905411 0.177449
C31   C     C_R   0.250306 0.671255 0.008566 0.037385
C32   C     C_R   0.817584 0.868050 0.910820 0.192483
C33   C     C_R   0.682510 0.722413 0.006673 0.048871
C34   C     C_R   0.867272 0.240329 0.004082 0.030014
C35   C     C_R   0.138340 0.240004 0.002751 0.024672
C36   C     C_R   0.158064 0.682429 0.915448 -0.203505
C37   C     C_R   0.778394 0.729586 0.090439 -0.208080
C38   C     C_R   0.796716 0.266771 0.906048 -0.212673
C39   C     C_R   0.214011 0.262639 0.102479 -0.209319
C40   C     C_R   0.736962 0.303885 0.907891 -0.185821
C41   C     C_R   0.275127 0.298572 0.101480 -0.190084
C42   C     C_R   0.110791 0.728751 0.914743 -0.206809
C43   C     C_R   0.150979 0.849326 0.091230 0.187551
C44   C     C_R   0.821602 0.776747 0.093828 -0.188522
C45   C     C_R   0.748559 0.314699 0.007762 0.042094
C46   C     C_R   0.259139 0.313180 0.000712 0.037687
C47   C     C_R   0.156693 0.763277 0.007028 0.046820
C48   C     C_R   0.768851 0.816889 0.013257 0.073089
C49   C     C_R   0.402145 0.621749 0.092240 -0.142097
C50   C     C_R   0.568514 0.646999 0.909894 -0.145782
C51   C     C_R   0.948973 0.151463 0.091076 -0.146905
C52   C     C_R   0.052492 0.151916 0.910162 -0.160293
C53   C     C_R   0.836128 0.300611 0.105897 0.152286
C54   C     C_R   0.315615 0.638755 0.001585 0.072229
C55   C     C_R   0.168453 0.303065 0.904261 0.165657
C56   C     C_R   0.240391 0.745596 0.104669 0.205284
C57   C     C_R   0.674749 0.807961 0.926472 0.117618
C58   C     C_3   0.864723 0.279507 0.215485 -0.488492
C59   C     C_3   0.131280 0.287698 0.788848 -0.532079
C60   C     C_3   0.331540 0.775643 0.180805 -0.511193
C61   C     C_3   0.590047 0.841614 0.892041 -0.492831
C62   C     C_3   0.381777 0.725796 0.181545 -0.525772
C63   C     C_3   0.542232 0.789313 0.887540 -0.489449
C64   C     C_3   0.929091 0.240256 0.213262 -0.562465
C65   C     C_R   0.640042 0.673161 0.003381 0.070207
C66   C     C_3   0.064002 0.249933 0.789359 -0.539333
C67   C     C_R   0.593643 0.447533 0.615633 0.167568
C68   C     C_R   0.603892 0.447409 0.531091 0.164122
C69   C     C_R   0.098201 0.948294 0.620778 0.163390
C70   C     C_R   0.101701 0.948761 0.531089 0.162982
C71   C     C_R   0.583647 0.496775 0.655231 0.033408
C72   C     C_R   0.603024 0.496533 0.483281 0.031949
C73   C     C_R   0.092080 0.997187 0.664538 0.031754
C74   C     C_R   0.097946 0.998020 0.481798 0.033343
C75   C     C_R   0.609941 0.544918 0.628972 -0.198388
C76   C     C_R   0.888132 0.183450 0.000819 0.085874
C77   C     C_R   0.619586 0.544823 0.542531 -0.202099
C78   C     C_R   0.114024 0.045699 0.634056 -0.196109
C79   C     C_R   0.116419 0.046182 0.542085 -0.200486
C80   C     C_3   0.545321 0.397122 0.480936 -0.524118
C81   C     C_3   0.533705 0.397379 0.572873 -0.528548
C82   C     C_3   0.041844 0.898890 0.482705 -0.520367
C83   C     C_3   0.037254 0.898494 0.580106 -0.521551
C84   C     C_R   0.550958 0.453680 0.303459 -0.156393
C85   C     C_R   0.509315 0.453800 0.740321 -0.137182
C86   C     C_R   0.049425 0.954444 0.303615 -0.158148
C87   C     C_R   0.114560 0.183160 0.001592 0.087699
C88   C     C_R   0.019942 0.953573 0.752421 -0.143900
C89   C     C_R   0.231350 0.544932 0.720843 -0.145816
C90   C     C_R   0.752461 0.545536 0.303775 -0.143575
C91   C     C_R   0.731530 0.046339 0.735634 -0.139266
C92   C     C_R   0.252696 0.045227 0.303940 -0.143067
C93   C     C_R   0.549547 0.544140 0.304241 -0.138696
C94   C     C_R   0.513033 0.544782 0.743298 -0.125415
C95   C     C_R   0.044999 0.044966 0.301746 -0.122288
C96   C     C_R   0.018399 0.044849 0.749570 -0.122915
C97   C     C_R   0.231396 0.454190 0.727789 -0.131442
C98   C     C_R   0.566634 0.498373 0.367443 0.088548
C99   C     C_R   0.749428 0.455529 0.307507 -0.146968
C100  C     C_R   0.730245 0.955220 0.731217 -0.150797
C101  C     C_R   0.250598 0.954972 0.306302 -0.130732
C102  C     C_R   0.312484 0.627892 0.908617 -0.127132
C103  C     C_R   0.662329 0.645168 0.094838 -0.140331
C104  C     C_R   0.853441 0.151591 0.908481 -0.131035
C105  C     C_R   0.148296 0.150633 0.092880 -0.121000
C106  C     C_R   0.413628 0.364389 0.093180 -0.171266
C107  C     C_R   0.587868 0.361188 0.911701 -0.187424
C108  C     C_R   0.903768 0.877634 0.093939 -0.169474
H1    H     H_    0.897327 0.542799 0.523363 0.131850
H2    H     H_    0.338826 0.309831 0.180077 0.127121
H3    H     H_    0.043545 0.739966 0.839436 0.130625
H4    H     H_    0.896933 0.780540 0.156926 0.133241
H5    H     H_    0.905196 0.309630 0.283004 0.190122
H6    H     H_    0.095023 0.321924 0.729487 0.185186
H7    H     H_    0.339328 0.811419 0.141267 0.195349
H8    H     H_    0.603400 0.869993 0.957629 0.202294
H9    H     H_    0.807336 0.257409 0.211782 0.226002
H10   H     H_    0.181155 0.262925 0.782421 0.218210
H11   H     H_    0.348179 0.783202 0.263564 0.193896
H12   H     H_    0.038448 0.532939 0.553804 0.133383
H13   H     H_    0.557228 0.860497 0.809696 0.182936
H14   H     H_    0.418961 0.732797 0.142376 0.206256
H15   H     H_    0.527334 0.787131 0.950303 0.198740
H16   H     H_    0.005336 0.248360 0.277733 0.195801
H17   H     H_    0.988740 0.262823 0.732127 0.196032
H18   H     H_    0.425020 0.705511 0.263522 0.189236
H19   H     H_    0.482086 0.777855 0.802584 0.185497
H20   H     H_    0.905743 0.197903 0.210486 0.208139
H21   H     H_    0.079188 0.207206 0.780138 0.197093
H22   H     H_    0.611677 0.583529 0.664738 0.128124
H23   H     H_    0.392862 0.041908 0.524931 0.130539
H24   H     H_    0.627340 0.583445 0.514153 0.124611
H25   H     H_    0.117371 0.084166 0.671261 0.127433
H26   H     H_    0.121440 0.084967 0.511845 0.124968
H27   H     H_    0.477007 0.404098 0.399144 0.201768
H28   H     H_    0.568840 0.362129 0.629694 0.186716
H29   H     H_    0.971720 0.906683 0.403487 0.202645
H30   H     H_    0.073983 0.862826 0.635143 0.191867
H31   H     H_    0.587601 0.361926 0.485168 0.190266
H32   H     H_    0.458941 0.404867 0.541988 0.200585
H33   H     H_    0.081831 0.863668 0.482263 0.189865
H34   H     H_    0.539023 0.038588 0.578950 0.130374
H35   H     H_    0.964292 0.906217 0.555446 0.201705
H36   H     H_    0.428076 0.623467 0.177583 0.111177
H37   H     H_    0.527704 0.661891 0.825979 0.092699
H38   H     H_    0.003717 0.164834 0.173473 0.100008
H39   H     H_    0.998522 0.166212 0.828124 0.100987
H40   H     H_    0.573953 0.412482 0.331676 0.098227
H41   H     H_    0.513064 0.412277 0.723167 0.100319
H42   H     H_    0.072824 0.913607 0.333976 0.096669
H43   H     H_    0.034462 0.911561 0.747898 0.112684
H44   H     H_    0.209037 0.586071 0.691992 0.088163
H45   H     H_    0.127075 0.659143 0.840383 0.130729
H46   H     H_    0.762005 0.587293 0.331111 0.087215
H47   H     H_    0.710419 0.088643 0.721583 0.097582
H48   H     H_    0.261965 0.086840 0.332006 0.087680
H49   H     H_    0.568285 0.585523 0.333374 0.082696
H50   H     H_    0.522782 0.586694 0.731177 0.092253
H51   H     H_    0.060540 0.086777 0.328882 0.083845
H52   H     H_    0.028959 0.086986 0.739139 0.093834
H53   H     H_    0.207899 0.413166 0.706791 0.086037
H54   H     H_    0.752093 0.416742 0.342434 0.108121
H55   H     H_    0.705192 0.914631 0.704331 0.118282
H56   H     H_    0.820140 0.698569 0.152218 0.131984
H57   H     H_    0.254167 0.915832 0.340308 0.090751
H58   H     H_    0.257899 0.640352 0.825605 0.090845
H59   H     H_    0.707057 0.657885 0.180123 0.094742
H60   H     H_    0.814977 0.165376 0.824060 0.082815
H61   H     H_    0.187485 0.163258 0.177959 0.081350
H62   H     H_    0.442038 0.359172 0.178939 0.107378
H63   H     H_    0.555664 0.346716 0.829210 0.106960
H64   H     H_    0.930899 0.873418 0.179581 0.116110
H65   H     H_    0.017987 0.834683 0.824354 0.112927
H66   H     H_    0.892777 0.417773 0.509293 0.116945
H67   H     H_    0.778214 0.253473 0.826805 0.124909
H68   H     H_    0.058410 0.428685 0.681666 0.119169
H69   H     H_    0.394601 0.917152 0.507613 0.114723
H70   H     H_    0.556825 0.925903 0.680851 0.109943
H71   H     H_    0.242849 0.332243 0.745396 0.149673
H72   H     H_    0.355361 0.270174 0.757320 0.241022
H73   H     H_    0.442982 0.294112 0.894830 0.266951
H74   H     H_    0.395054 0.339380 0.776199 0.243777
H75   H     H_    0.786404 0.360867 0.260411 0.154034
H76   H     H_    0.714922 0.297887 0.313851 0.245316
H77   H     H_    0.617470 0.288977 0.171120 0.265938
H78   H     H_    0.235282 0.246975 0.181422 0.125507
H79   H     H_    0.630151 0.352139 0.240807 0.249529
H80   H     H_    0.698159 0.833214 0.768045 0.144838
H81   H     H_    0.773743 0.792039 0.696311 0.243535
H82   H     H_    0.886467 0.799063 0.827500 0.260817
H83   H     H_    0.831588 0.857373 0.736072 0.247227
H84   H     H_    0.247671 0.843961 0.260878 0.145473
H85   H     H_    0.151184 0.783031 0.286703 0.243674
H86   H     H_    0.055411 0.792676 0.143454 0.264618
H87   H     H_    0.097297 0.848984 0.240199 0.242593
H88   H     H_    0.677211 0.319371 0.829836 0.121960
N1    N     N_R   0.395410 0.396350 0.944340 -0.050430
N2    N     N_R   0.474920 0.471030 0.794350 -0.039828
N3    N     N_R   0.025080 0.971030 0.205650 -0.036432
N4    N     N_R   0.974920 0.971030 0.794350 -0.040632
N5    N     N_R   0.320260 0.527820 0.794570 -0.040404
N6    N     N_R   0.679740 0.527820 0.205430 -0.038728
N7    N     N_R   0.820260 0.027820 0.794570 -0.042234
N8    N     N_R   0.179740 0.027820 0.205430 -0.040501
N9    N     N_R   0.524590 0.527840 0.205200 -0.037359
N10   N     N_R   0.475410 0.527840 0.794800 -0.041239
N11   N     N_R   0.024590 0.027840 0.205200 -0.038031
N12   N     N_R   0.604590 0.396350 0.055660 -0.052274
N13   N     N_R   0.975410 0.027840 0.794800 -0.041947
N14   N     N_R   0.320750 0.471000 0.795020 -0.045083
N15   N     N_R   0.679250 0.471000 0.204980 -0.044663
N16   N     N_R   0.820750 0.971000 0.795020 -0.044935
N17   N     N_R   0.179250 0.971000 0.204980 -0.044846
N18   N     N_R   0.393620 0.602490 0.942710 -0.040216
N19   N     N_R   0.606380 0.602490 0.057290 -0.038548
N20   N     N_R   0.893620 0.102490 0.942710 -0.038418
N21   N     N_R   0.106380 0.102490 0.057290 -0.038864
N22   N     N_R   0.451720 0.396350 0.057510 -0.047597
N23   N     N_R   0.895410 0.896350 0.944340 -0.045649
N24   N     N_R   0.548280 0.396350 0.942490 -0.045809
N25   N     N_R   0.951720 0.896350 0.057510 -0.044729
N26   N     N_R   0.048280 0.896350 0.942490 -0.044712
N27   N     N_2   0.303839 0.322827 0.820786 -0.121307
N28   N     N_2   0.726841 0.340072 0.200782 -0.121313
N29   N     N_2   0.771113 0.832959 0.817517 -0.115654
N30   N     N_2   0.186747 0.826551 0.195927 -0.116367
N31   N     N_R   0.104590 0.896350 0.055660 -0.056834
N32   N     N_R   0.449930 0.602500 0.055880 -0.042626
N33   N     N_R   0.550070 0.602500 0.944120 -0.038912
N34   N     N_R   0.949930 0.102500 0.055880 -0.039042
N35   N     N_R   0.050070 0.102500 0.944120 -0.038809
N36   N     N_R   0.525080 0.471030 0.205650 -0.036463
Ni1   Ni    Ni4+2 0.435420 0.434270 0.870230 0.206126
Ni2   Ni    Ni4+2 0.564580 0.434270 0.129770 0.202443
Ni3   Ni    Ni4+2 0.935420 0.934270 0.870230 0.207078
Ni4   Ni    Ni4+2 0.064580 0.934270 0.129770 0.203129
Ni5   Ni    Ni4+2 0.563430 0.564580 0.128740 0.205664
Ni6   Ni    Ni4+2 0.436570 0.564580 0.871260 0.211234
Ni7   Ni    Ni4+2 0.063430 0.064580 0.128740 0.203212
Ni8   Ni    Ni4+2 0.936570 0.064580 0.871260 0.206676

loop_
_geom_bond_atom_site_label_1
_geom_bond_atom_site_label_2
_ccdc_geom_bond_type
C8    H73   S    
N12   N24   A    
C81   H32   S    
C38   C40   A    
C103  H59   S    
C108  N25   A    
C21   N28   S    
C55   C59   S    
N2    N10   A    
C36   C42   A    
C94   N10   A    
N4    Ni3   S    
N6    N15   A    
C22   H70   S    
C93   N9    A    
C27   C56   A    
N6    Ni5   S    
C33   C65   S    
C48   C57   A    
C39   C41   A    
C71   C75   A    
C99   N15   A    
C28   C57   A    
N4    N13   A    
N31   Ni4   S    
C10   H82   S    
C80   H27   S    
C6    C48   S    
C30   C35   A    
C60   H11   S    
C95   H51   S    
C21   N12   A    
C60   C62   S    
N18   Ni6   S    
C11   H87   S    
C82   H29   S    
C12   C74   S    
C82   H33   S    
C59   C66   S    
C5    C107  A    
C35   C39   A    
C4    C46   S    
N23   N25   A    
C20   C25   D    
C58   C64   S    
C49   C54   A    
C49   H36   S    
C90   N6    A    
C91   N7    A    
C50   N33   A    
C61   H13   S    
C18   C19   S    
N14   Ni1   S    
C14   C24   S    
C61   C63   S    
C102  N18   A    
C17   C101  A    
C19   H68   S    
C59   H6    S    
C89   N5    A    
C39   H78   S    
C35   C87   S    
C3    H65   S    
C89   H44   S    
C101  N17   A    
H75   N28   S    
C64   H20   S    
C46   C55   A    
C70   C74   A    
C58   H5    S    
N20   N34   A    
C41   C46   A    
C11   H86   S    
C12   C95   A    
C69   C73   A    
N19   Ni5   S    
C7    C43   A    
C90   H46   S    
N17   Ni4   S    
N18   N32   A    
N21   Ni7   S    
C92   N8    A    
C43   N30   S    
N11   Ni7   S    
C86   N3    A    
C66   H21   S    
H84   N30   S    
C29   C64   S    
C45   C53   A    
C102  H58   S    
C10   N29   S    
C34   C38   A    
C51   N34   A    
C95   N11   A    
C106  H62   S    
N34   Ni7   S    
C17   C92   A    
N8    Ni7   S    
C84   N36   A    
N36   Ni2   S    
C50   C65   A    
C43   N31   A    
C36   H45   S    
C14   C97   A    
C84   H40   S    
C16   C26   S    
C40   C45   A    
C23   H1    S    
N26   Ni3   S    
C24   H12   S    
C10   H81   S    
C97   N14   A    
C13   C96   A    
C27   C31   A    
C67   C68   A    
N20   Ni8   S    
N23   Ni3   S    
N24   Ni1   S    
N5    Ni6   S    
C51   C76   A    
N22   Ni2   S    
C92   H48   S    
H80   N29   S    
C62   H18   S    
N1    Ni1   S    
C78   C79   A    
C16   C100  A    
C107  H63   S    
C2    C85   A    
C3    C7    A    
C64   H16   S    
C73   C78   A    
C5    C45   S    
N8    N17   A    
C100  N16   A    
C58   H9    S    
C33   C37   A    
C56   C60   S    
H71   N27   S    
N35   Ni8   S    
C29   C53   A    
C77   H24   S    
C7    C47   S    
C101  H57   S    
C76   C104  A    
C14   C89   A    
C91   H47   S    
C72   C77   A    
C69   C83   S    
C27   C62   S    
C104  H60   S    
C99   H54   S    
C8    H72   S    
C18   C23   D    
C87   C105  A    
N15   Ni2   S    
C2    C94   A    
C68   C72   A    
N13   Ni8   S    
C61   H8    S    
N3    N11   A    
N10   Ni6   S    
C2    C71   S    
C96   N13   A    
C49   N32   A    
N9    Ni5   S    
C75   C77   A    
C104  N20   A    
N7    Ni8   S    
C30   C66   S    
C8    N27   S    
C105  H61   S    
C37   H56   S    
C18   H66   S    
C50   H37   S    
C96   H52   S    
C20   C22   S    
C28   C33   A    
C67   C81   S    
C3    N26   A    
C97   H53   S    
C74   C79   A    
C108  H64   S    
N25   Ni4   S    
C88   H43   S    
N7    N16   A    
C65   C103  A    
C68   C80   S    
C25   H23   S    
C44   H4    S    
N5    N14   A    
C62   H14   S    
N16   Ni3   S    
C81   H28   S    
C40   H88   S    
C8    H74   S    
C79   H26   S    
C103  N19   A    
C106  N22   A    
N19   N33   A    
C54   C102  A    
C52   C87   A    
C1    N1    A    
C11   H85   S    
C15   C99   A    
C80   C81   S    
C9    H79   S    
N2    Ni1   S    
C1    N27   S    
C31   C54   S    
C63   H15   S    
C53   C58   S    
C75   H22   S    
C52   N35   A    
C57   C61   S    
C20   H69   S    
C59   H10   S    
C80   H31   S    
C30   C55   A    
C9    H77   S    
C10   H83   S    
C51   H38   S    
C66   H17   S    
C12   C86   A    
C41   H2    S    
C1    C4    A    
C84   C98   A    
C88   N4    A    
C37   C44   A    
C86   H42   S    
C19   C24   D    
C17   C25   S    
N32   Ni5   S    
C9    H76   S    
N3    Ni4   S    
N21   N35   A    
C105  N21   A    
C83   H35   S    
C93   H49   S    
C9    N28   S    
C38   H67   S    
C4    C106  A    
N26   N31   A    
C11   N30   S    
C29   C34   A    
C13   C88   A    
C15   C23   S    
C100  H55   S    
C67   C71   A    
C42   C47   A    
C42   H3    S    
C69   C70   A    
C70   C82   S    
C78   H25   S    
C85   H41   S    
C32   N23   A    
C72   C98   S    
C107  N24   A    
C28   C63   S    
C44   C48   A    
C85   N2    A    
C5    C21   A    
C32   N29   S    
C16   C91   A    
C94   H50   S    
C6    C32   A    
C22   C26   D    
C6    C108  A    
C31   C36   A    
C47   C56   A    
C60   H7    S    
N9    N36   A    
C13   C73   S    
C82   C83   S    
N33   Ni6   S    
C26   H34   S    
N12   Ni2   S    
C93   C98   A    
C83   H30   S    
C63   H19   S    
N1    N22   A    
C34   C76   S    
C52   H39   S    
C15   C90   A    
