data_mof_unit_55857.cif
_audit_creation_date              2012-12-10T17:29:23-0500
_audit_creation_method            fapswitch 2.2
_symmetry_space_group_name_H-M    P1
_symmetry_Int_Tables_number       1
_space_group_crystal_system       triclinic
_cell_length_a                    12.066201
_cell_length_b                    12.880067
_cell_length_c                    13.079088
_cell_angle_alpha                 85.983954
_cell_angle_beta                  113.062374
_cell_angle_gamma                 93.044191
_cell_volume                      1864.89147169

loop_
_atom_site_label
_atom_site_type_symbol
_atom_type_description
_atom_site_fract_x
_atom_site_fract_y
_atom_site_fract_z
_atom_type_partial_charge
C1    C     C_R   0.478175 0.299551 0.499191 0.909600
C2    C     C_R   0.611992 0.525923 0.825986 -0.095273
C3    C     C_R   0.546426 0.809712 0.529981 -0.148232
C4    C     C_R   0.567010 0.505110 0.707696 0.864491
C5    C     C_R   0.467435 0.187950 0.503736 -0.060766
C6    C     C_R   0.347575 0.029800 0.483857 -0.180027
C7    C     C_R   0.354929 0.137407 0.477918 -0.117808
C8    C     C_R   0.572355 0.131436 0.534822 -0.251767
C9    C     C_R   0.565287 0.024372 0.537605 0.157409
C10   C     C_R   0.452323 0.973413 0.512372 0.167660
C11   C     C_R   0.444791 0.866856 0.512019 -0.236919
C12   C     C_R   0.566670 0.557730 0.986331 0.097707
C13   C     C_R   0.662052 0.859713 0.563621 -0.049512
C14   C     C_R   0.669534 0.967850 0.565050 -0.226026
C15   C     C_R   0.006574 0.603648 0.397036 -0.179526
C16   C     C_R   0.525575 0.699700 0.510056 0.897162
C17   C     C_R   0.129131 0.597188 0.411073 0.055712
C18   C     C_R   0.156701 0.453372 0.543036 0.053578
C19   C     C_R   0.035958 0.461293 0.535651 0.057972
C20   C     C_R   0.960173 0.536388 0.461023 -0.010453
C21   C     C_R   0.839645 0.542503 0.453368 0.012335
C22   C     C_R   0.870436 0.408232 0.593167 0.061778
C23   C     C_R   0.537013 0.569915 0.871012 0.010520
C24   C     C_R   0.988749 0.396742 0.601878 -0.207505
C25   C     C_R   0.433769 0.505231 0.290548 0.969530
C26   C     C_R   0.258283 0.571237 0.982599 -0.152630
C27   C     C_R   0.398012 0.526173 0.170060 -0.185930
C28   C     C_R   0.727042 0.492741 0.896562 -0.141135
C29   C     C_R   0.763634 0.494605 0.010978 -0.050356
C30   C     C_R   0.683580 0.523286 0.056119 -0.162341
C31   C     C_2   0.776676 0.803602 0.602635 0.976706
C32   C     C_2   0.927634 0.680887 0.313824 0.915657
C33   C     C_2   0.177831 0.683731 0.357865 1.013175
C34   C     C_R   0.473537 0.569249 0.024824 0.029614
C35   C     C_2   0.235250 0.375984 0.623177 0.955731
C36   C     C_R   0.355176 0.592392 0.948949 -0.056981
C37   C     C_R   0.337836 0.631021 0.840617 0.483140
C38   C     C_R   0.430727 0.622099 0.803808 -0.219906
C39   C     C_R   0.493016 0.550442 0.135868 -0.275724
C40   C     C_R   0.278280 0.528124 0.089656 0.458371
H1    H     H_    0.260255 0.990908 0.463574 0.183521
H2    H     H_    0.787196 0.461729 0.863531 0.192180
H3    H     H_    0.715386 0.514393 0.145422 0.135751
H4    H     H_    0.851832 0.467430 0.065189 0.208842
H5    H     H_    0.417895 0.652927 0.721096 0.209706
H6    H     H_    0.358006 0.828834 0.494331 0.213128
H7    H     H_    0.127871 0.357493 0.234003 0.373716
H8    H     H_    0.941449 0.795198 0.599205 0.384100
H9    H     H_    0.858028 0.735954 0.153804 0.359009
H10   H     H_    0.181655 0.838482 0.320862 0.340997
H11   H     H_    0.138308 0.767478 0.585301 0.398381
H12   H     H_    0.756644 0.007971 0.588469 0.175132
H13   H     H_    0.346820 0.340855 0.781792 0.343094
H14   H     H_    0.273029 0.180661 0.451735 0.207475
H15   H     H_    0.659781 0.170504 0.555824 0.163470
H16   H     H_    0.777475 0.596734 0.395113 0.145268
H17   H     H_    0.835811 0.358815 0.644908 0.126202
H18   H     H_    0.042444 0.337946 0.661152 0.164726
H19   H     H_    0.166378 0.579401 0.923633 0.239632
H20   H     H_    0.583756 0.553503 0.196983 0.175692
N1    N     N_R   0.798200 0.480260 0.519790 -0.102083
N2    N     N_R   0.201820 0.519740 0.480210 -0.176976
O1    O     O_R   0.579910 0.341070 0.505280 -0.639791
O2    O     O_2   0.069946 0.420035 0.005382 -0.313235
O3    O     O_3   0.197526 0.371596 0.212440 -0.556754
O4    O     O_2   0.794119 0.729202 0.669979 -0.576189
O5    O     O_R   0.867309 0.839350 0.566444 -0.753431
O6    O     O_2   0.879351 0.747322 0.343328 -0.583360
O7    O     O_R   0.912875 0.679525 0.202473 -0.765868
O8    O     O_2   0.233169 0.666816 0.300781 -0.559979
O9    O     O_R   0.151243 0.786409 0.366406 -0.827529
O10   O     O_2   0.101499 0.612338 0.716985 -0.317209
O11   O     O_2   0.175049 0.775427 0.809656 -0.270740
O12   O     O_R   0.388440 0.353740 0.492580 -0.595928
O13   O     O_3   0.219710 0.744541 0.635314 -0.578895
O14   O     O_2   0.236707 0.287834 0.595087 -0.651286
O15   O     O_R   0.298244 0.400889 0.733781 -0.789241
O16   O     O_R   0.643280 0.490550 0.663120 -0.601764
O17   O     O_R   0.451810 0.503220 0.650420 -0.611531
O18   O     O_R   0.611560 0.646260 0.507420 -0.597163
O19   O     O_R   0.420090 0.658930 0.494720 -0.628498
O20   O     O_R   0.548190 0.496780 0.349580 -0.651241
O21   O     O_R   0.356720 0.509450 0.336880 -0.516050
O22   O     O_2   0.086090 0.546621 0.140874 -0.270772
S1    S     S_3+6 0.153450 0.466975 0.111352 0.029704
S2    S     S_3+6 0.203516 0.691546 0.750113 0.008066
Zn1   Zn    Zn3+2 0.627850 0.491540 0.508480 0.985735
Zn2   Zn    Zn3+2 0.372150 0.508460 0.491520 1.032959

loop_
_geom_bond_atom_site_label_1
_geom_bond_atom_site_label_2
_ccdc_geom_bond_type
O16   Zn1   S    
C31   O4    D    
C2    C4    S    
C19   C20   A    
H10   O9    S    
C22   H17   S    
C15   C32   S    
C31   O5    S    
C12   C23   A    
C37   C38   A    
C1    C5    S    
C1    O12   A    
C18   C35   S    
C28   C29   A    
H11   O13   S    
O18   Zn1   S    
O20   Zn1   S    
C18   C19   A    
C38   H5    S    
N1    Zn1   S    
C14   H12   S    
C27   C39   A    
C8    C9    A    
C6    H1    S    
C26   H19   S    
C21   N1    A    
C3    C13   A    
C32   O6    D    
C12   C30   A    
O21   Zn2   S    
H9    O7    S    
C13   C14   A    
C17   C33   S    
C1    O1    A    
C8    H15   S    
O17   Zn2   S    
C15   C20   A    
C35   O14   D    
C34   C39   A    
C37   S2    S    
O22   S1    D    
C4    O17   A    
C5    C7    A    
C18   N2    A    
N2    Zn2   S    
C35   O15   S    
C16   O18   A    
C40   S1    S    
H13   O15   S    
C9    C14   A    
C4    O16   A    
C29   C30   A    
C17   N2    A    
C5    C8    A    
O13   S2    S    
C27   C40   A    
C6    C7    A    
C33   O8    D    
C26   C36   A    
C29   H4    S    
C25   O20   A    
C22   C24   A    
C30   H3    S    
C12   C34   A    
O2    S1    D    
C9    C10   A    
C15   C17   A    
C36   C37   A    
O1    Zn1   S    
C13   C31   S    
C6    C10   A    
C21   H16   S    
O10   S2    D    
O3    S1    S    
C32   O7    S    
C25   C27   S    
C23   C38   A    
C19   C24   A    
C22   N1    A    
C26   C40   A    
C39   H20   S    
C28   H2    S    
C16   O19   A    
C34   C36   A    
H8    O5    S    
O11   S2    D    
O19   Zn2   S    
C3    C11   A    
C10   C11   A    
C33   O9    S    
C20   C21   A    
C24   H18   S    
C2    C23   A    
C25   O21   A    
C11   H6    S    
C2    C28   A    
C7    H14   S    
O12   Zn2   S    
H7    O3    S    
C3    C16   S    
