data_mof_unit_47772.cif
_audit_creation_date              2012-12-10T19:07:06-0500
_audit_creation_method            fapswitch 2.2
_symmetry_space_group_name_H-M    P1
_symmetry_Int_Tables_number       1
_space_group_crystal_system       triclinic
_cell_length_a                    27.810324
_cell_length_b                    10.852588
_cell_length_c                    9.53595
_cell_angle_alpha                 89.912493
_cell_angle_beta                  89.881113
_cell_angle_gamma                 90.323854
_cell_volume                      2878.02752421

loop_
_atom_site_label
_atom_site_type_symbol
_atom_type_description
_atom_site_fract_x
_atom_site_fract_y
_atom_site_fract_z
_atom_type_partial_charge
C1    C     C_R   0.500086 0.262676 0.499972 0.807120
C2    C     C_R   0.278882 0.510827 0.627649 -0.104383
C3    C     C_R   0.253630 0.497713 0.501721 0.362179
C4    C     C_R   0.101930 0.497046 0.504251 -0.044025
C5    C     C_R   0.127366 0.386385 0.485700 -0.020693
C6    C     C_R   0.102021 0.276135 0.468108 -0.145071
C7    C     C_R   0.127773 0.607911 0.521845 -0.021164
C8    C     C_R   0.354492 0.499106 0.500581 -0.038719
C9    C     C_R   0.645414 0.498476 0.500877 -0.031943
C10   C     C_R   0.974253 0.382949 0.499044 0.043432
C11   C     C_R   0.974670 0.610295 0.513339 0.043573
C12   C     C_R   0.407452 0.499753 0.500126 0.801636
C13   C     C_R   0.949208 0.496556 0.506341 0.067202
C14   C     C_R   0.947084 0.272205 0.499918 -0.204913
C15   C     C_R   0.897150 0.273261 0.502081 -0.145974
C16   C     C_R   0.872213 0.384507 0.503981 -0.018979
C17   C     C_R   0.898066 0.496436 0.506474 -0.044530
C18   C     C_R   0.872642 0.608258 0.508934 -0.019885
C19   C     C_R   0.822164 0.606128 0.508310 0.533214
C20   C     C_R   0.821727 0.386471 0.503727 0.531404
C21   C     C_R   0.720360 0.455436 0.621158 -0.109053
C22   C     C_R   0.670239 0.456823 0.619879 -0.230845
C23   C     C_R   0.500425 0.737293 0.499740 0.813417
C24   C     C_R   0.671611 0.539344 0.383544 -0.229638
C25   C     C_R   0.721734 0.538321 0.385055 -0.101554
C26   C     C_R   0.746276 0.496350 0.503807 0.361057
C27   C     C_R   0.025329 0.383554 0.492017 0.043187
C28   C     C_R   0.050790 0.496854 0.505168 0.067677
C29   C     C_R   0.025747 0.609980 0.519160 0.043158
C30   C     C_R   0.052086 0.274481 0.470995 -0.205186
C31   C     C_R   0.102844 0.717945 0.540534 -0.144784
C32   C     C_R   0.947911 0.720905 0.513075 -0.204788
C33   C     C_R   0.897984 0.719613 0.511161 -0.145768
C34   C     C_R   0.592518 0.499726 0.500044 0.797134
C35   C     C_R   0.052916 0.719221 0.539465 -0.205113
C36   C     C_R   0.501947 0.061737 0.621428 0.078166
C37   C     C_R   0.500576 0.130070 0.498449 -0.113141
C38   C     C_R   0.500033 0.064793 0.370510 -0.205400
C39   C     C_R   0.500289 0.935639 0.370214 -0.208314
C40   C     C_R   0.501154 0.869863 0.497984 -0.092417
C41   C     C_R   0.502393 0.937573 0.621055 0.100929
C42   C     C_3   0.503382 0.927010 0.776859 -0.499670
C43   C     C_3   0.502211 0.069251 0.778138 -0.200068
C44   C     C_R   0.526408 0.585330 0.073320 0.262295
C45   C     C_R   0.177854 0.388704 0.484637 0.534160
C46   C     C_R   0.470049 0.424761 0.074803 -0.094808
C47   C     C_R   0.470085 0.424655 0.925776 -0.071200
C48   C     C_R   0.526350 0.585473 0.925837 0.257224
C49   C     C_3   0.579476 0.602948 0.919363 -0.487615
C50   C     C_3   0.579581 0.601999 0.078150 -0.518515
C51   C     C_R   0.178246 0.606023 0.520945 0.534896
C52   C     C_R   0.278723 0.485183 0.375213 -0.103740
C53   C     C_R   0.328873 0.486170 0.374431 -0.214553
C54   C     C_R   0.329018 0.511193 0.627306 -0.216884
Cu1   Cu    Cu3+1 0.500000 0.499980 0.640670 0.949519
Cu2   Cu    Cu3+1 0.500000 0.500020 0.359330 0.935275
H1    H     H_    0.347769 0.521384 0.726073 0.157688
H2    H     H_    0.259302 0.475143 0.277552 0.137866
H3    H     H_    0.121872 0.804223 0.556198 0.187797
H4    H     H_    0.964371 0.810900 0.511467 0.135527
H5    H     H_    0.653510 0.574150 0.291757 0.148402
H6    H     H_    0.879286 0.806942 0.511171 0.186471
H7    H     H_    0.741569 0.570410 0.294107 0.141293
H8    H     H_    0.036787 0.807706 0.557659 0.136966
H9    H     H_    0.499121 0.112753 0.271034 0.158968
H10   H     H_    0.470065 0.883717 0.819213 0.195394
H11   H     H_    0.259585 0.520427 0.725742 0.137995
H12   H     H_    0.537493 0.885945 0.815033 0.194320
H13   H     H_    0.467754 0.106499 0.819326 0.143920
H14   H     H_    0.446760 0.361537 0.131010 0.136616
H15   H     H_    0.446856 0.361284 0.870071 0.133109
H16   H     H_    0.598352 0.522319 0.874293 0.221999
H17   H     H_    0.589779 0.693582 0.873603 0.193005
H18   H     H_    0.598150 0.520075 0.121436 0.210949
H19   H     H_    0.590194 0.691892 0.124819 0.197292
H20   H     H_    0.120723 0.189990 0.451856 0.187541
H21   H     H_    0.650954 0.424310 0.711377 0.152594
H22   H     H_    0.739097 0.423071 0.713461 0.137929
H23   H     H_    0.878123 0.185851 0.502220 0.186730
H24   H     H_    0.963228 0.182305 0.501597 0.135660
H25   H     H_    0.035609 0.185863 0.453498 0.136904
H26   H     H_    0.347522 0.476384 0.275288 0.155873
N1    N     N_R   0.202112 0.497469 0.502332 -0.470031
N2    N     N_R   0.797840 0.496273 0.505543 -0.468847
N3    N     N_R   0.500300 0.500930 0.147930 -0.186487
N4    N     N_R   0.500310 0.500890 0.852020 -0.180768
O1    O     O_R   0.500000 0.319640 0.618810 -0.577383
O2    O     O_2   0.796687 0.279620 0.500342 -0.539839
O3    O     O_2   0.203316 0.711823 0.537634 -0.531654
O4    O     O_2   0.797544 0.712921 0.511439 -0.535748
O5    O     O_R   0.500010 0.319680 0.381230 -0.594165
O6    O     O_R   0.430260 0.500000 0.618780 -0.587602
O7    O     O_R   0.430270 0.500040 0.381190 -0.583121
O8    O     O_R   0.499990 0.680320 0.618770 -0.577795
O9    O     O_R   0.500000 0.680360 0.381190 -0.585271
O10   O     O_R   0.569730 0.499960 0.618810 -0.580736
O11   O     O_R   0.569740 0.500000 0.381220 -0.589316
O12   O     O_2   0.202545 0.283121 0.467035 -0.532826
H27   H     H_    0.499546 0.888112 0.270429 0.165253
C55   C     C_R   0.546650 0.128230 0.841588 0.186222
C56   C     C_R   0.591635 0.128248 0.773166 -0.122212
C57   C     C_R   0.631419 0.185561 0.835104 -0.152323
C58   C     C_R   0.626864 0.242803 0.965576 -0.138719
C59   C     C_R   0.582648 0.241464 0.035227 -0.123702
C60   C     C_R   0.542846 0.183978 0.973858 -0.139247
H28   H     H_    0.596062 0.084454 0.672108 0.131381
H29   H     H_    0.665791 0.185954 0.781637 0.151127
H30   H     H_    0.657634 0.287726 0.012939 0.136326
H31   H     H_    0.579163 0.284901 0.136833 0.150661
H32   H     H_    0.508872 0.183170 0.029309 0.103496

loop_
_geom_bond_atom_site_label_1
_geom_bond_atom_site_label_2
_ccdc_geom_bond_type
C10   C27   A    
C1    O1    A    
Cu2   O9    S    
C21   C26   A    
C56   C57   A    
C41   C42   S    
Cu1   Cu2   S    
C55   C60   A    
C24   H5    S    
C5    C6    A    
C28   C29   A    
C60   H32   S    
C34   O10   A    
C45   O12   S    
C4    C7    A    
C59   H31   S    
C9    C22   A    
C15   C16   A    
C19   N2    A    
C34   O11   A    
C18   C19   A    
C25   H7    S    
C31   H3    S    
Cu2   O5    S    
C15   H23   S    
C16   C17   A    
C49   H16   S    
C21   H22   S    
C35   H8    S    
C14   H24   S    
C16   C20   A    
C46   N3    A    
C1    O5    A    
C21   C22   A    
C27   C30   A    
C42   H12   S    
C36   C41   A    
C45   N1    A    
Cu2   O11   S    
Cu1   O8    S    
C59   C60   A    
C4    C28   A    
Cu2   O7    S    
C7    C31   A    
C47   N4    A    
C43   C55   S    
C2    H11   S    
C2    C54   A    
C8    C54   A    
C39   C40   A    
C33   H6    S    
C48   N4    A    
C25   C26   A    
C5    C45   A    
C53   H26   S    
C37   C38   A    
Cu1   O6    S    
C39   H27   S    
C38   H9    S    
C8    C12   S    
C17   C18   A    
C57   H29   S    
C24   C25   A    
C47   H15   S    
C58   H30   S    
C52   H2    S    
C48   C49   S    
C6    C30   A    
C11   C32   A    
C20   N2    A    
C3    N1    S    
C9    C34   S    
C31   C35   A    
C12   O7    A    
C42   C43   S    
C32   H4    S    
C44   N3    A    
C51   N1    A    
C58   C59   A    
C52   C53   A    
C44   C50   S    
C56   H28   S    
C46   C47   A    
C40   C41   A    
C26   N2    S    
C12   O6    A    
C22   H21   S    
Cu1   O10   S    
C10   C13   A    
C8    C53   A    
C3    C52   A    
C9    C24   A    
C6    H20   S    
C1    C37   S    
C29   C35   A    
C23   O8    A    
C13   C17   A    
C32   C33   A    
C30   H25   S    
C50   H18   S    
C2    C3    A    
C7    C51   A    
C19   O4    S    
C50   H19   S    
C51   O3    S    
C11   C13   A    
Cu2   N3    S    
C38   C39   A    
Cu1   N4    S    
C20   O2    S    
C55   C56   A    
C23   O9    A    
C49   H17   S    
Cu1   O1    S    
C57   C58   A    
C18   C33   A    
C46   H14   S    
C44   C48   A    
C4    C5    A    
C11   C29   A    
C36   C37   A    
C49   C50   S    
C27   C28   A    
C42   H10   S    
C14   C15   A    
C36   C43   S    
C43   H13   S    
C23   C40   S    
C10   C14   A    
C54   H1    S    
