data_mof_unit_60849.cif
_audit_creation_date              2012-12-10T19:17:28-0500
_audit_creation_method            fapswitch 2.2
_symmetry_space_group_name_H-M    P1
_symmetry_Int_Tables_number       1
_space_group_crystal_system       triclinic
_cell_length_a                    22.183757
_cell_length_b                    22.37793
_cell_length_c                    14.970354
_cell_angle_alpha                 89.946213
_cell_angle_beta                  90.044755
_cell_angle_gamma                 90.019622
_cell_volume                      7431.67538157

loop_
_atom_site_label
_atom_site_type_symbol
_atom_type_description
_atom_site_fract_x
_atom_site_fract_y
_atom_site_fract_z
_atom_type_partial_charge
C1    C     C_R   0.081091 0.419042 0.500048 0.895511
C2    C     C_R   0.081207 0.580881 0.499989 0.906204
C3    C     C_R   0.581101 0.919051 0.500048 0.895927
C4    C     C_R   0.581220 0.080870 0.499991 0.906946
C5    C     C_1   0.164693 0.661413 0.499683 0.039964
C6    C     C_1   0.162603 0.336677 0.499946 0.040806
C7    C     C_1   0.664821 0.161293 0.499721 0.040108
C8    C     C_1   0.662760 0.836826 0.499913 0.041037
C9    C     C_1   0.840757 0.333478 0.500352 0.064410
C10   C     C_1   0.837428 0.663335 0.498167 0.080958
C11   C     C_1   0.340670 0.833558 0.500072 0.064490
C12   C     C_1   0.337125 0.163040 0.498000 0.080937
C13   C     C_1   0.876362 0.372964 0.500111 -0.169878
C14   C     C_1   0.874643 0.625364 0.499496 -0.160994
C15   C     C_1   0.376311 0.873013 0.500053 -0.170305
C16   C     C_1   0.374495 0.125220 0.499457 -0.160778
C17   C     C_3   0.017884 0.437902 0.052283 -0.366183
C18   C     C_3   0.017881 0.437900 0.947943 -0.370080
C19   C     C_3   0.044957 0.546698 0.052162 -0.369501
C20   C     C_3   0.044958 0.546695 0.947819 -0.372474
C21   C     C_3   0.516082 0.937410 0.052286 -0.365670
C22   C     C_3   0.516080 0.937408 0.947944 -0.371159
C23   C     C_3   0.546283 0.045396 0.052168 -0.368001
C24   C     C_3   0.546285 0.045392 0.947825 -0.373636
C25   C     C_3   0.999748 0.500036 0.089793 0.256766
C26   C     C_3   0.999747 0.500033 0.910213 0.256162
C27   C     C_3   0.499747 0.000034 0.089796 0.256171
C28   C     C_3   0.499747 0.000030 0.910215 0.256856
C29   C     C_3   0.936388 0.515511 0.947731 -0.366572
C30   C     C_3   0.936389 0.515516 0.052088 -0.373027
C31   C     C_3   0.436860 0.017300 0.947734 -0.365229
C32   C     C_3   0.436861 0.017303 0.052090 -0.374279
C33   C     C_1   0.999787 0.500017 0.809383 0.000804
C34   C     C_1   0.999787 0.500021 0.190618 -0.002440
C35   C     C_1   0.499786 0.000016 0.809384 -0.000367
C36   C     C_1   0.499787 0.000019 0.190619 -0.001155
C37   C     C_R   0.918958 0.418998 0.500014 0.898580
C38   C     C_R   0.918825 0.580854 0.499926 0.907915
C39   C     C_R   0.418950 0.919007 0.500010 0.898052
C40   C     C_R   0.418819 0.080848 0.499922 0.907844
C41   C     C_3   0.788730 0.261154 0.599123 0.977961
C42   C     C_3   0.814847 0.234098 0.433802 0.921455
C43   C     C_3   0.792124 0.740891 0.592255 0.965375
C44   C     C_3   0.805272 0.757064 0.420369 0.939122
C45   C     C_3   0.292688 0.757226 0.596603 0.978235
C46   C     C_3   0.311807 0.737076 0.427052 0.922006
C47   C     C_3   0.297953 0.246613 0.586415 0.965233
C48   C     C_3   0.299428 0.251348 0.411914 0.939937
C49   C     C_3   0.257404 0.692370 0.424931 -0.530268
C50   C     C_3   0.245334 0.704674 0.589788 -0.575796
C51   C     C_3   0.253568 0.303799 0.423377 -0.516006
C52   C     C_3   0.243895 0.292778 0.588096 -0.610046
C53   C     C_3   0.760580 0.189240 0.430915 -0.530333
C54   C     C_3   0.741619 0.208361 0.592863 -0.575500
C55   C     C_3   0.758618 0.808734 0.432696 -0.516467
C56   C     C_3   0.737961 0.786954 0.592749 -0.609720
C57   C     C_1   0.126376 0.624494 0.499917 -0.150792
C58   C     C_1   0.125259 0.374509 0.500117 -0.157861
C59   C     C_1   0.626452 0.124424 0.499928 -0.150222
C60   C     C_1   0.625345 0.874590 0.500113 -0.157257
C61   C     C_3   0.796759 0.285811 0.501013 0.011820
C62   C     C_3   0.792300 0.709970 0.497246 0.004383
C63   C     C_3   0.296669 0.785890 0.500411 0.011592
C64   C     C_3   0.291912 0.209594 0.496857 0.003789
C65   C     C_3   0.211117 0.706527 0.499406 0.052367
C66   C     C_3   0.208086 0.290699 0.499434 0.060175
C67   C     C_3   0.711272 0.206385 0.499505 0.052092
C68   C     C_3   0.708305 0.790907 0.499363 0.059939
C69   C     C_3   0.183193 0.769544 0.482800 0.337268
C70   C     C_3   0.178642 0.227658 0.487477 0.344332
C71   C     C_3   0.684210 0.268536 0.474525 0.337282
C72   C     C_3   0.680127 0.729109 0.473902 0.345007
C73   C     C_3   0.736237 0.314195 0.468741 -0.535004
C74   C     C_3   0.729759 0.680676 0.479612 -0.551908
C75   C     C_3   0.234982 0.815438 0.476409 -0.535009
C76   C     C_3   0.228649 0.179585 0.492889 -0.551248
H1    H     H_    0.266222 0.659814 0.594483 0.170413
H2    H     H_    0.274139 0.645715 0.432865 0.189234
H3    H     H_    0.256879 0.339604 0.601684 0.162515
H4    H     H_    0.277495 0.346163 0.439280 0.162598
H5    H     H_    0.762147 0.163808 0.603677 0.170634
H6    H     H_    0.776899 0.143056 0.444764 0.189336
H7    H     H_    0.749704 0.832589 0.615047 0.163039
H8    H     H_    0.781159 0.849713 0.458219 0.162528
H9    H     H_    0.234274 0.693292 0.359176 0.204076
H10   H     H_    0.212795 0.706906 0.645972 0.205102
H11   H     H_    0.229552 0.312366 0.359327 0.214850
H12   H     H_    0.212945 0.281615 0.643925 0.223909
H13   H     H_    0.740258 0.187312 0.363204 0.203844
H14   H     H_    0.706786 0.212902 0.645612 0.205268
H15   H     H_    0.738989 0.821615 0.366997 0.214631
H16   H     H_    0.703469 0.772285 0.641803 0.224022
H17   H     H_    0.725182 0.354761 0.508352 0.242603
H18   H     H_    0.741523 0.330337 0.398923 0.232724
H19   H     H_    0.719327 0.648148 0.533568 0.242561
H20   H     H_    0.730865 0.653893 0.417176 0.229181
H21   H     H_    0.225704 0.854293 0.520581 0.242603
H22   H     H_    0.237381 0.834391 0.407829 0.232854
H23   H     H_    0.222056 0.150783 0.552598 0.242463
H24   H     H_    0.225695 0.148845 0.434806 0.229570
H25   H     H_    0.063515 0.425541 0.923315 0.166484
H26   H     H_    0.063520 0.425546 0.077048 0.168317
H27   H     H_    0.091162 0.536624 0.923191 0.162616
H28   H     H_    0.091161 0.536631 0.076928 0.164482
H29   H     H_    0.561339 0.923759 0.923319 0.166183
H30   H     H_    0.561343 0.923765 0.077053 0.169803
H31   H     H_    0.592179 0.034015 0.923200 0.162745
H32   H     H_    0.592178 0.034023 0.076936 0.165300
H33   H     H_    0.032940 0.592058 0.076780 0.168808
H34   H     H_    0.032944 0.592054 0.923041 0.168979
H35   H     H_    0.985965 0.403272 0.076997 0.168931
H36   H     H_    0.985959 0.403271 0.923259 0.168160
H37   H     H_    0.535579 0.091078 0.076787 0.169639
H38   H     H_    0.535584 0.091074 0.923048 0.168144
H39   H     H_    0.483178 0.903699 0.076998 0.168094
H40   H     H_    0.483172 0.903698 0.923258 0.167169
H41   H     H_    0.902765 0.482511 0.076797 0.169018
H42   H     H_    0.902765 0.482503 0.923044 0.167300
H43   H     H_    0.922107 0.560224 0.076712 0.162707
H44   H     H_    0.922103 0.560217 0.922947 0.166319
H45   H     H_    0.402299 0.985263 0.076796 0.168724
H46   H     H_    0.402298 0.985259 0.923043 0.167884
H47   H     H_    0.423871 0.062397 0.076719 0.162343
H48   H     H_    0.423872 0.062393 0.922952 0.166511
N1    N     N_1   0.999850 0.500000 0.731150 -0.079274
N2    N     N_1   0.999850 0.500000 0.268850 -0.080543
N3    N     N_1   0.499850 1.000000 0.731150 -0.079645
N4    N     N_1   0.499850 0.000000 0.268850 -0.080201
O1    O     O_R   0.061440 0.438650 0.574260 -0.610898
O2    O     O_R   0.061440 0.438650 0.425740 -0.608204
O3    O     O_R   0.061440 0.561350 0.574260 -0.611042
O4    O     O_R   0.061440 0.561350 0.425740 -0.606614
O5    O     O_R   0.561440 0.938650 0.574260 -0.612381
O6    O     O_R   0.561440 0.938650 0.425740 -0.606631
O7    O     O_R   0.561440 0.061350 0.574260 -0.612356
O8    O     O_R   0.561440 0.061350 0.425740 -0.604561
O9    O     O_R   0.938580 0.438650 0.574260 -0.599496
O10   O     O_R   0.938580 0.438650 0.425740 -0.609479
O11   O     O_R   0.938580 0.561350 0.574260 -0.593551
O12   O     O_R   0.938580 0.561350 0.425740 -0.623050
O13   O     O_R   0.438580 0.938650 0.574260 -0.599322
O14   O     O_R   0.438580 0.938650 0.425740 -0.610632
O15   O     O_R   0.438580 0.061350 0.574260 -0.594655
O16   O     O_R   0.438580 0.061350 0.425740 -0.622116
Zn1   Zn    Zn3+2 0.000010 0.500000 0.599130 0.995583
Zn2   Zn    Zn3+2 0.000010 0.500000 0.400870 0.982256
Zn3   Zn    Zn3+2 0.500010 1.000000 0.599130 0.993806
Zn4   Zn    Zn3+2 0.500010 1.000000 0.400870 0.984004
O17   O     O_3   0.848037 0.246300 0.631212 -0.615372
C77   C     C_3   0.852914 0.195269 0.686511 -0.340109
H49   H     H_    0.859515 0.154770 0.644868 0.206291
H50   H     H_    0.814300 0.189244 0.732601 0.133293
H51   H     H_    0.893823 0.200229 0.728495 0.203794
O18   O     O_3   0.866479 0.201538 0.464712 -0.642098
C78   C     C_3   0.922389 0.231514 0.454298 -0.198898
H52   H     H_    0.936264 0.251711 0.518721 0.210291
H53   H     H_    0.923242 0.266426 0.401633 0.176685
H54   H     H_    0.957145 0.197978 0.436429 0.198399
O19   O     O_3   0.852237 0.763721 0.605268 -0.582458
C79   C     C_3   0.857630 0.821492 0.642013 -0.297475
H55   H     H_    0.846299 0.855993 0.591392 0.171836
H56   H     H_    0.905512 0.828655 0.660470 0.215349
H57   H     H_    0.830964 0.826959 0.704111 0.127864
O20   O     O_3   0.865478 0.779268 0.428964 -0.602533
C80   C     C_3   0.880282 0.823305 0.364438 -0.285144
H58   H     H_    0.876508 0.868369 0.394797 0.163487
H59   H     H_    0.852385 0.821721 0.302723 0.180817
H60   H     H_    0.927957 0.816932 0.344301 0.207636
O21   O     O_3   0.353186 0.741225 0.621811 -0.615469
C81   C     C_3   0.360262 0.688026 0.671753 -0.338733
H61   H     H_    0.365074 0.649344 0.625924 0.206363
H62   H     H_    0.323607 0.680017 0.720608 0.132511
H63   H     H_    0.402828 0.691352 0.710331 0.204802
O22   O     O_3   0.364515 0.703354 0.450183 -0.641892
C82   C     C_3   0.419971 0.733769 0.437549 -0.200467
H64   H     H_    0.436467 0.751365 0.502324 0.211630
H65   H     H_    0.418780 0.770727 0.388114 0.176143
H66   H     H_    0.453855 0.701053 0.413665 0.195986
O23   O     O_3   0.358536 0.269868 0.587126 -0.582486
C83   C     C_3   0.366111 0.329743 0.614262 -0.294017
H67   H     H_    0.351316 0.360823 0.560732 0.171042
H68   H     H_    0.414956 0.337816 0.624492 0.217888
H69   H     H_    0.343690 0.339404 0.678848 0.127119
O24   O     O_3   0.359789 0.273738 0.408313 -0.601650
C84   C     C_3   0.369955 0.313261 0.335781 -0.291981
H70   H     H_    0.368058 0.360119 0.359813 0.164015
H71   H     H_    0.338028 0.307801 0.279052 0.181094
H72   H     H_    0.416046 0.305337 0.309692 0.203288
O25   O     O_3   0.824232 0.259273 0.346962 -0.638412
C85   C     C_3   0.840680 0.216416 0.281578 -0.309558
H73   H     H_    0.853320 0.171831 0.308717 0.185335
H74   H     H_    0.879778 0.233803 0.243387 0.188908
H75   H     H_    0.802731 0.210530 0.234047 0.180797
O26   O     O_3   0.764031 0.309324 0.650075 -0.618295
C86   C     C_3   0.768701 0.301581 0.743388 -0.231912
H76   H     H_    0.816435 0.302659 0.765737 0.191635
H77   H     H_    0.745393 0.260555 0.766531 0.133497
H78   H     H_    0.745808 0.339758 0.776177 0.188101
O27   O     O_3   0.794571 0.732094 0.333580 -0.627826
C87   C     C_3   0.838618 0.690760 0.304271 -0.280073
H79   H     H_    0.884449 0.698198 0.331943 0.197755
H80   H     H_    0.842365 0.694383 0.230600 0.183437
H81   H     H_    0.823549 0.644573 0.319391 0.167665
O28   O     O_3   0.780269 0.694846 0.656081 -0.624109
C88   C     C_3   0.792161 0.712627 0.744841 -0.247436
H82   H     H_    0.767387 0.753892 0.763362 0.134893
H83   H     H_    0.841348 0.717852 0.756407 0.198265
H84   H     H_    0.776320 0.676736 0.790262 0.184621
O29   O     O_3   0.317681 0.765808 0.342016 -0.637683
C89   C     C_3   0.331250 0.725748 0.271430 -0.313151
H85   H     H_    0.344958 0.680172 0.293219 0.184957
H86   H     H_    0.368672 0.744764 0.231336 0.187055
H87   H     H_    0.291348 0.721724 0.227086 0.181461
O30   O     O_3   0.270219 0.803147 0.654036 -0.617872
C90   C     C_3   0.278741 0.791588 0.745862 -0.233588
H88   H     H_    0.327314 0.791858 0.763874 0.191706
H89   H     H_    0.256377 0.749633 0.767258 0.133202
H90   H     H_    0.257310 0.828286 0.784117 0.187812
O31   O     O_3   0.283104 0.220835 0.331218 -0.627108
C91   C     C_3   0.325191 0.177573 0.301801 -0.280278
H91   H     H_    0.372605 0.186597 0.321362 0.196731
H92   H     H_    0.323967 0.176310 0.227770 0.183351
H93   H     H_    0.311460 0.132669 0.325786 0.167851
O32   O     O_3   0.290628 0.205040 0.658111 -0.623850
C92   C     C_3   0.308330 0.228496 0.741645 -0.248487
H94   H     H_    0.284735 0.270911 0.757576 0.134257
H95   H     H_    0.358021 0.234197 0.745098 0.199561
H96   H     H_    0.295772 0.195838 0.794207 0.183574
I1    I     I_    0.120737 0.795087 0.587285 -0.311750
I2    I     I_    0.129604 0.773342 0.361657 -0.367301
I3    I     I_    0.110440 0.209030 0.587405 -0.376950
I4    I     I_    0.130534 0.220191 0.361944 -0.350860
I5    I     I_    0.617467 0.298231 0.570400 -0.313745
I6    I     I_    0.635902 0.267182 0.348493 -0.363009
I7    I     I_    0.605591 0.704335 0.559999 -0.380325
I8    I     I_    0.640808 0.730168 0.341359 -0.346560

loop_
_geom_bond_atom_site_label_1
_geom_bond_atom_site_label_2
_ccdc_geom_bond_type
C47   O32   S    
C24   H38   S    
C85   H73   S    
C78   H53   S    
O21   C81   S    
C6    C58   T    
C19   C20   S    
C18   C26   S    
C73   H17   S    
O16   Zn4   S    
O32   C92   S    
C91   H92   S    
C55   C68   S    
N2    Zn2   S    
C2    C57   S    
C82   H65   S    
C20   H27   S    
C10   C62   S    
C88   H82   S    
O24   C84   S    
C76   H23   S    
O15   Zn3   S    
C46   C49   S    
C80   H58   S    
C49   C65   S    
C9    C61   S    
O9    Zn1   S    
O20   C80   S    
C42   O18   S    
C18   H36   S    
C31   H48   S    
C54   H14   S    
C1    O1    A    
C90   H89   S    
C42   C53   S    
C12   C64   S    
C48   C64   S    
O2    Zn2   S    
C81   H61   S    
C75   H21   S    
C92   H96   S    
C49   H2    S    
C17   C18   S    
C71   I6    S    
C9    C13   T    
C70   I3    S    
C47   O23   S    
C85   H75   S    
O22   C82   S    
C11   C15   T    
C89   H85   S    
C48   C51   S    
C12   C16   T    
C28   C35   S    
C87   H79   S    
C77   H51   S    
C2    O4    A    
C23   C24   S    
C46   O22   S    
C69   C75   S    
C26   C29   S    
O5    Zn3   S    
C41   C61   S    
C52   H3    S    
C69   I2    S    
C13   C37   S    
C21   H30   S    
C83   H69   S    
C34   N2    T    
C25   C34   S    
C4    O8    A    
C86   H78   S    
C3    C60   S    
C22   H40   S    
O26   C86   S    
C21   C27   S    
O27   C87   S    
C80   H59   S    
C22   C28   S    
C21   C22   S    
C78   H54   S    
C32   H47   S    
C36   N4    T    
C55   H15   S    
C73   H18   S    
C53   C67   S    
C17   H35   S    
C7    C59   T    
C91   H91   S    
C83   H68   S    
O29   C89   S    
C82   H66   S    
C88   H83   S    
C29   H44   S    
C74   H20   S    
C2    O3    A    
C79   H57   S    
C39   O13   A    
C52   H12   S    
C87   H80   S    
C41   O26   S    
C5    C65   S    
C1    O2    A    
C10   C14   T    
C90   H90   S    
O12   Zn2   S    
C47   C64   S    
C48   O24   S    
C50   H10   S    
O30   C90   S    
N4    Zn4   S    
C84   H72   S    
C54   C67   S    
C44   C62   S    
C56   C68   S    
C45   C63   S    
C75   H22   S    
O23   C83   S    
C53   H6    S    
C3    O5    A    
C51   C66   S    
C79   H56   S    
C90   H88   S    
C29   C30   S    
C69   I1    S    
C23   H37   S    
C19   H28   S    
C26   C33   S    
C31   C32   S    
C39   O14   A    
C56   H16   S    
C68   C72   S    
C33   N1    T    
C45   O30   S    
C64   C76   S    
C24   H31   S    
C35   N3    T    
C42   C61   S    
C15   C39   S    
O18   C78   S    
O8    Zn4   S    
C16   C40   S    
C4    O7    A    
C20   H34   S    
C91   H93   S    
O7    Zn3   S    
C72   C74   S    
C8    C68   S    
C80   H60   S    
C23   C27   S    
C37   O10   A    
C40   O16   A    
C53   H13   S    
C77   H50   S    
C51   H11   S    
C14   C38   S    
C89   H87   S    
C50   H1    S    
C17   H26   S    
O31   C91   S    
C52   C66   S    
C83   H67   S    
C63   C75   S    
C56   H7    S    
C71   C73   S    
C88   H84   S    
C25   C30   S    
O11   Zn1   S    
C85   H74   S    
C92   H94   S    
C27   C32   S    
O1    Zn1   S    
C74   H19   S    
C28   C31   S    
C62   C74   S    
C24   C28   S    
C31   H46   S    
C20   C26   S    
C45   O21   S    
C47   C52   S    
C30   H41   S    
C27   C36   S    
C76   H24   S    
C46   O29   S    
O6    Zn4   S    
C29   H42   S    
C43   O19   S    
C21   H39   S    
C72   I7    S    
C5    C57   T    
C46   C63   S    
C48   O31   S    
C3    O6    A    
C61   C73   S    
C79   H55   S    
C89   H86   S    
O19   C79   S    
C17   C25   S    
C82   H64   S    
N1    Zn1   S    
O17   C77   S    
C8    C60   T    
C70   C76   S    
C44   C55   S    
C84   H70   S    
C66   C70   S    
C19   H33   S    
C81   H62   S    
C45   C50   S    
O10   Zn2   S    
C87   H81   S    
C65   C69   S    
C23   H32   S    
C51   H4    S    
C4    C59   S    
C92   H95   S    
O3    Zn1   S    
C67   C71   S    
C71   I5    S    
C22   H29   S    
O25   C85   S    
C19   C25   S    
C50   C65   S    
C70   I4    S    
C41   C54   S    
C43   O28   S    
C84   H71   S    
O13   Zn3   S    
C7    C67   S    
C86   H76   S    
C72   I8    S    
C43   C56   S    
C6    C66   S    
C38   O11   A    
C41   O17   S    
O28   C88   S    
C44   O27   S    
O4    Zn2   S    
O14   Zn4   S    
C30   H43   S    
C40   O15   A    
C78   H52   S    
C42   O25   S    
C38   O12   A    
C77   H49   S    
C32   H45   S    
C37   O9    A    
C44   O20   S    
C49   H9    S    
C55   H8    S    
C1    C58   S    
C11   C63   S    
C18   H25   S    
C54   H5    S    
C43   C62   S    
N3    Zn3   S    
C86   H77   S    
C81   H63   S    
