data_mof_unit_11230.cif
_audit_creation_date              2012-12-11T16:24:55-0500
_audit_creation_method            fapswitch 2.2
_symmetry_space_group_name_H-M    P1
_symmetry_Int_Tables_number       1
_space_group_crystal_system       triclinic
_cell_length_a                    22.636345
_cell_length_b                    30.967856
_cell_length_c                    18.850725
_cell_angle_alpha                 90.229601
_cell_angle_beta                  127.304414
_cell_angle_gamma                 90.8805
_cell_volume                      10508.3254174

loop_
_atom_site_label
_atom_site_type_symbol
_atom_type_description
_atom_site_fract_x
_atom_site_fract_y
_atom_site_fract_z
_atom_type_partial_charge
C1    C     C_R   0.953625 0.617247 0.077959 -0.228809
C2    C     C_R   0.102373 0.462482 0.435484 -0.267016
C3    C     C_R   0.317685 0.470390 0.445226 -0.159199
C4    C     C_R   0.852148 0.040779 0.423200 -0.176094
C5    C     C_R   0.122298 0.960251 0.694613 -0.160546
C6    C     C_R   0.132421 0.034117 0.744431 -0.155455
C7    C     C_R   0.817697 0.970402 0.445203 -0.159203
C8    C     C_R   0.304494 0.504381 0.388534 0.138767
C9    C     C_R   0.665868 0.497491 0.739796 0.138966
C10   C     C_R   0.804528 0.004383 0.388500 0.138768
C11   C     C_R   0.165872 0.997493 0.739813 0.138978
C12   C     C_R   0.433461 0.505399 0.565011 0.114688
C13   C     C_R   0.590110 0.041229 0.718660 -0.260219
C14   C     C_R   0.511425 0.499556 0.641908 0.110228
C15   C     C_R   0.933475 0.005408 0.564989 0.114691
C16   C     C_R   0.011430 0.999564 0.641907 0.110231
C17   C     C_R   0.789270 0.535255 0.799483 -0.151545
C18   C     C_R   0.203429 0.465342 0.243085 -0.136810
C19   C     C_R   0.203104 0.536936 0.241947 -0.144512
C20   C     C_R   0.788815 0.463368 0.798127 -0.135304
C21   C     C_R   0.289271 0.035255 0.799487 -0.151555
C22   C     C_R   0.703444 0.965342 0.243069 -0.136801
C23   C     C_R   0.703126 0.036938 0.241923 -0.144568
C24   C     C_R   0.602363 0.962483 0.435482 -0.267027
C25   C     C_R   0.288816 0.963368 0.798135 -0.135304
C26   C     C_R   0.041367 0.464426 0.243039 -0.101612
C27   C     C_R   0.010264 0.536819 0.800042 -0.130861
C28   C     C_R   0.008429 0.464621 0.797051 -0.125955
C29   C     C_R   0.041337 0.536470 0.242937 -0.122385
C30   C     C_R   0.541363 0.964426 0.243038 -0.101629
C31   C     C_R   0.510273 0.036819 0.800053 -0.130861
C32   C     C_R   0.508445 0.964620 0.797071 -0.125949
C33   C     C_R   0.541333 0.036470 0.242935 -0.122408
C34   C     C_R   0.905084 0.641869 0.006265 0.162231
C35   C     C_R   0.109611 0.541752 0.661443 0.142975
C36   C     C_R   0.115390 0.366520 0.997188 0.143761
C37   C     C_R   0.096516 0.644701 0.002185 0.112120
C38   C     C_R   0.875710 0.368051 0.997152 0.093223
C39   C     C_R   0.405040 0.141856 0.006263 0.162137
C40   C     C_R   0.615343 0.866491 0.997197 0.143839
C41   C     C_R   0.596493 0.144708 0.002193 0.112236
C42   C     C_R   0.375713 0.868049 0.997151 0.093211
C43   C     C_R   0.744703 0.498755 0.776963 0.048531
C44   C     C_R   0.242776 0.502007 0.292953 0.040880
C45   C     C_R   0.244706 0.998756 0.776974 0.048533
C46   C     C_R   0.116210 0.462570 0.518181 0.145253
C47   C     C_R   0.742802 0.002008 0.292924 0.040910
C48   C     C_R   0.055207 0.500749 0.294834 0.070313
C49   C     C_R   0.032943 0.501116 0.778205 0.074089
C50   C     C_R   0.555200 0.000749 0.294831 0.070319
C51   C     C_R   0.532960 0.001116 0.778227 0.074083
C52   C     C_R   0.091912 0.462842 0.719999 -0.253875
C53   C     C_R   0.101378 0.540908 0.434901 -0.253491
C54   C     C_R   0.591929 0.962843 0.720019 -0.253877
C55   C     C_R   0.601360 0.040909 0.434894 -0.253502
C56   C     C_R   0.074270 0.501778 0.741047 0.115256
C57   C     C_R   0.609618 0.041753 0.661453 0.142978
C58   C     C_R   0.088880 0.501412 0.390370 0.114631
C59   C     C_R   0.574290 0.001778 0.741071 0.115256
C60   C     C_R   0.588866 0.001413 0.390365 0.114635
C61   C     C_3   0.874985 0.381036 0.202343 -0.261550
C62   C     C_3   0.968660 0.715657 0.789601 -0.315339
C63   C     C_3   0.043265 0.264570 0.890331 -0.255198
C64   C     C_3   0.019875 0.755126 0.072287 -0.231767
C65   C     C_3   0.374984 0.881042 0.202334 -0.261554
C66   C     C_3   0.468654 0.215656 0.789593 -0.315418
C67   C     C_3   0.543203 0.764539 0.890345 -0.255399
C68   C     C_R   0.616204 0.962572 0.518181 0.145251
C69   C     C_3   0.519904 0.255108 0.072259 -0.231820
C70   C     C_3   0.842615 0.361031 0.838637 -0.403405
C71   C     C_3   0.886183 0.320012 0.856699 -0.902080
C72   C     C_3   0.135074 0.640768 0.161132 -0.340291
C73   C     C_3   0.218031 0.649822 0.233842 -0.966625
C74   C     C_3   0.164892 0.363222 0.161560 -0.382043
C75   C     C_3   0.147487 0.314712 0.151869 -0.934960
C76   C     C_3   0.849891 0.640723 0.840452 -0.381486
C77   C     C_3   0.771885 0.657319 0.798179 -0.919153
C78   C     C_3   0.342615 0.861031 0.838636 -0.403408
C79   C     C_R   0.115864 0.502283 0.629200 0.026820
C80   C     C_3   0.386183 0.820012 0.856693 -0.902060
C81   C     C_3   0.635002 0.140761 0.161119 -0.340533
C82   C     C_3   0.717926 0.149891 0.233819 -0.966769
C83   C     C_3   0.664790 0.863198 0.161546 -0.382086
C84   C     C_3   0.647229 0.814707 0.151804 -0.934978
C85   C     C_3   0.349883 0.140725 0.840460 -0.381473
C86   C     C_3   0.271874 0.157319 0.798177 -0.919173
C87   C     C_3   0.697009 0.229703 0.862233 -0.300005
C88   C     C_3   0.338450 0.735836 0.124807 -0.288781
C89   C     C_3   0.391095 0.312016 0.195585 -0.273388
C90   C     C_R   0.118534 0.502190 0.556950 0.028011
C91   C     C_3   0.743880 0.713542 0.098356 -0.307795
C92   C     C_3   0.197080 0.729687 0.862292 -0.299921
C93   C     C_3   0.838427 0.235813 0.124800 -0.288683
C94   C     C_3   0.890972 0.811918 0.195675 -0.273504
C95   C     C_3   0.243930 0.213372 0.098368 -0.307642
C96   C     C_R   0.615868 0.002284 0.629208 0.026816
C97   C     C_R   0.055376 0.386155 0.924120 -0.199614
C98   C     C_R   0.618528 0.002191 0.556950 0.028008
C99   C     C_R   0.111112 0.462755 0.662465 0.137611
C100  C     C_R   0.115090 0.541570 0.517500 0.141966
C101  C     C_R   0.611122 0.962756 0.662477 0.137610
C102  C     C_R   0.615077 0.041571 0.517496 0.141967
C103  C     C_R   0.114772 0.580933 0.628384 -0.209080
C104  C     C_R   0.119913 0.423554 0.558024 -0.210965
C105  C     C_R   0.614769 0.080935 0.628388 -0.209087
C106  C     C_R   0.619914 0.923555 0.558028 -0.210963
C107  C     C_R   0.117504 0.580840 0.556513 -0.205728
C108  C     C_R   0.046292 0.619705 0.927329 -0.197532
C109  C     C_R   0.117490 0.423649 0.630151 -0.198177
C110  C     C_R   0.617491 0.080842 0.556509 -0.205739
C111  C     C_R   0.617498 0.923650 0.630161 -0.198183
C112  C     C_R   0.709215 0.297276 0.920281 0.643486
C113  C     C_R   0.217316 0.743334 0.071070 0.633288
C114  C     C_R   0.290733 0.323154 0.051898 0.645348
C115  C     C_R   0.782924 0.714716 0.012351 0.627264
C116  C     C_R   0.209229 0.797267 0.920290 0.643455
C117  C     C_R   0.717301 0.243339 0.071066 0.633284
C118  C     C_R   0.790691 0.823108 0.051973 0.645272
C119  C     C_R   0.938295 0.387902 0.073009 -0.103980
C120  C     C_R   0.282920 0.214767 0.012314 0.627284
C121  C     C_R   0.766590 0.317583 0.924918 -0.458236
C122  C     C_R   0.191989 0.701741 0.067608 -0.459624
C123  C     C_R   0.241509 0.348121 0.054310 -0.422382
C124  C     C_R   0.818044 0.678104 0.015888 -0.413148
C125  C     C_R   0.266599 0.817577 0.924922 -0.458285
C126  C     C_R   0.691970 0.201749 0.067618 -0.459719
C127  C     C_R   0.741462 0.848080 0.054362 -0.422520
C128  C     C_R   0.318025 0.178137 0.015883 -0.413498
C129  C     C_R   0.814553 0.347548 0.993223 -0.096626
C130  C     C_R   0.453601 0.117238 0.077959 -0.228794
C131  C     C_R   0.117675 0.689664 0.003104 -0.090369
C132  C     C_R   0.164884 0.339844 0.993075 -0.106598
C133  C     C_R   0.877160 0.681523 0.011895 -0.102392
C134  C     C_R   0.314555 0.847547 0.993221 -0.096642
C135  C     C_R   0.617654 0.189672 0.003113 -0.090250
C136  C     C_R   0.664837 0.839808 0.993108 -0.106730
C137  C     C_R   0.377148 0.181526 0.011896 -0.102182
C138  C     C_R   0.800696 0.359861 0.054435 0.636079
C139  C     C_R   0.067131 0.719574 0.939054 0.697493
C140  C     C_R   0.136464 0.309835 0.922733 0.620705
C141  C     C_R   0.555354 0.886139 0.924124 -0.199608
C142  C     C_R   0.906378 0.721520 0.010738 0.619168
C143  C     C_R   0.300694 0.859863 0.054428 0.636078
C144  C     C_R   0.567115 0.219580 0.939050 0.697487
C145  C     C_R   0.636425 0.809793 0.922778 0.620632
C146  C     C_R   0.406392 0.221511 0.010722 0.619184
C147  C     C_R   0.870337 0.384465 0.924350 0.204475
C148  C     C_R   0.116527 0.620881 0.076038 0.209934
C149  C     C_R   0.128099 0.384812 0.072991 0.190444
C150  C     C_R   0.883889 0.620216 0.929439 0.207117
C151  C     C_R   0.370339 0.884464 0.924350 0.204474
C152  C     C_R   0.546284 0.119710 0.927334 -0.197604
C153  C     C_R   0.616504 0.120886 0.076042 0.209952
C154  C     C_R   0.628059 0.884794 0.072993 0.190453
C155  C     C_R   0.383871 0.120211 0.929439 0.207125
C156  C     C_R   0.742566 0.339345 0.049243 -0.318611
C157  C     C_R   0.092692 0.761666 0.942713 -0.350746
C158  C     C_R   0.185478 0.288137 0.915421 -0.311830
C159  C     C_R   0.867433 0.758592 0.000723 -0.362540
C160  C     C_R   0.242565 0.839346 0.049238 -0.318631
C161  C     C_R   0.592678 0.261670 0.942702 -0.350862
C162  C     C_R   0.685446 0.788083 0.915496 -0.311882
C163  C     C_R   0.438297 0.887900 0.073009 -0.103969
C164  C     C_R   0.367460 0.258597 0.000669 -0.362697
C165  C     C_R   0.699992 0.306778 0.985771 -0.036390
C166  C     C_R   0.167693 0.772797 0.005892 -0.063864
C167  C     C_R   0.261717 0.291956 0.983848 -0.047785
C168  C     C_R   0.805053 0.754745 0.999056 -0.057878
C169  C     C_R   0.200001 0.806774 0.985775 -0.036457
C170  C     C_R   0.667679 0.272801 0.005882 -0.063891
C171  C     C_R   0.761682 0.791908 0.983928 -0.048012
C172  C     C_R   0.305070 0.254779 0.998987 -0.057889
C173  C     C_R   0.416056 0.541339 0.510854 -0.159169
C174  C     C_R   0.090094 0.541229 0.718639 -0.260210
C175  C     C_R   0.545694 0.461243 0.646218 -0.158380
C176  C     C_R   0.555524 0.535087 0.695888 -0.176466
C177  C     C_R   0.381769 0.471000 0.533241 -0.177197
C178  C     C_R   0.916095 0.041337 0.510814 -0.159177
C179  C     C_R   0.045697 0.961246 0.646243 -0.158383
C180  C     C_R   0.055528 0.035097 0.695878 -0.176489
C181  C     C_R   0.881772 0.971017 0.533224 -0.177212
C182  C     C_R   0.352099 0.540785 0.423245 -0.176101
C183  C     C_R   0.622294 0.460251 0.694580 -0.160546
C184  C     C_R   0.632417 0.534110 0.744431 -0.155436
H1    H     H_    0.985877 0.626488 0.147679 0.114484
H2    H     H_    0.231549 0.678073 0.112678 0.194397
H3    H     H_    0.782058 0.354095 0.797427 0.184443
H4    H     H_    0.851566 0.382165 0.798255 0.196753
H5    H     H_    0.252864 0.628182 0.226631 0.258811
H6    H     H_    0.232584 0.684038 0.232698 0.279682
H7    H     H_    0.231543 0.644890 0.300524 0.250521
H8    H     H_    0.104409 0.671223 0.145698 0.208972
H9    H     H_    0.114346 0.618696 0.188254 0.173550
H10   H     H_    0.086467 0.308539 0.105779 0.259226
H11   H     H_    0.174171 0.297612 0.126564 0.260840
H12   H     H_    0.169445 0.301388 0.218058 0.250568
H13   H     H_    0.263198 0.373399 0.104707 0.174985
H14   H     H_    0.225932 0.368877 0.203502 0.183356
H15   H     H_    0.142931 0.377153 0.195443 0.186226
H16   H     H_    0.738263 0.634050 0.805585 0.251753
H17   H     H_    0.775095 0.688545 0.829543 0.269002
H18   H     H_    0.743074 0.662837 0.726085 0.255469
H19   H     H_    0.885598 0.668365 0.849913 0.268471
H20   H     H_    0.848488 0.617477 0.794443 0.177806
H21   H     H_    0.445640 0.828406 0.891185 0.278298
H22   H     H_    0.382414 0.797385 0.899299 0.245448
H23   H     H_    0.364101 0.803388 0.792526 0.256241
H24   H     H_    0.797617 0.646772 0.018928 0.185093
H25   H     H_    0.282057 0.854095 0.797428 0.184447
H26   H     H_    0.351564 0.882166 0.798252 0.196753
H27   H     H_    0.752826 0.128299 0.226647 0.258832
H28   H     H_    0.732365 0.184121 0.232611 0.279731
H29   H     H_    0.731452 0.144955 0.300507 0.250582
H30   H     H_    0.604250 0.171176 0.145657 0.209079
H31   H     H_    0.614340 0.118660 0.188264 0.173628
H32   H     H_    0.586190 0.808602 0.105745 0.259259
H33   H     H_    0.673819 0.797562 0.126427 0.260703
H34   H     H_    0.669181 0.801377 0.217986 0.250591
H35   H     H_    0.274202 0.808037 0.876363 0.193928
H36   H     H_    0.725846 0.868787 0.203487 0.183345
H37   H     H_    0.642880 0.877176 0.195450 0.186240
H38   H     H_    0.238249 0.134049 0.805576 0.251747
H39   H     H_    0.275080 0.188544 0.829541 0.269001
H40   H     H_    0.243069 0.162838 0.726084 0.255470
H41   H     H_    0.385593 0.168369 0.849936 0.268481
H42   H     H_    0.348488 0.117483 0.794450 0.177809
H43   H     H_    0.714970 0.213596 0.924754 0.133328
H44   H     H_    0.744904 0.234680 0.860606 0.141629
H45   H     H_    0.656931 0.207365 0.806214 0.172503
H46   H     H_    0.731526 0.178084 0.112700 0.194389
H47   H     H_    0.325103 0.744573 0.059523 0.129447
H48   H     H_    0.338067 0.700181 0.130875 0.141583
H49   H     H_    0.395904 0.747814 0.177257 0.173504
H50   H     H_    0.385495 0.276208 0.190072 0.128194
H51   H     H_    0.361455 0.325313 0.220806 0.135051
H52   H     H_    0.450975 0.320219 0.245814 0.177389
H53   H     H_    0.764359 0.746754 0.126029 0.132338
H54   H     H_    0.786797 0.689450 0.142537 0.145956
H55   H     H_    0.695055 0.706751 0.097217 0.178455
H56   H     H_    0.215123 0.713605 0.924868 0.133290
H57   H     H_    0.763147 0.873356 0.104760 0.175001
H58   H     H_    0.244927 0.734673 0.860577 0.141659
H59   H     H_    0.157001 0.707319 0.806333 0.172478
H60   H     H_    0.825000 0.244462 0.059436 0.129351
H61   H     H_    0.838128 0.200167 0.131068 0.141655
H62   H     H_    0.895867 0.247849 0.177142 0.173469
H63   H     H_    0.885239 0.776118 0.190086 0.128176
H64   H     H_    0.861370 0.825260 0.220902 0.135113
H65   H     H_    0.950874 0.820044 0.245934 0.177399
H66   H     H_    0.265103 0.246428 0.126705 0.132059
H67   H     H_    0.286338 0.188943 0.142035 0.146298
H68   H     H_    0.297573 0.146815 0.018933 0.184990
H69   H     H_    0.194978 0.206860 0.097118 0.178356
H70   H     H_    0.733088 0.346718 0.097747 0.163409
H71   H     H_    0.055703 0.784986 0.893132 0.172211
H72   H     H_    0.163913 0.263821 0.863122 0.173855
H73   H     H_    0.025550 0.376451 0.855264 0.164659
H74   H     H_    0.883810 0.789880 0.991706 0.185635
H75   H     H_    0.233083 0.846722 0.097737 0.163414
H76   H     H_    0.555692 0.284988 0.893116 0.172252
H77   H     H_    0.663887 0.763765 0.863202 0.173900
H78   H     H_    0.383861 0.289874 0.991643 0.185686
H79   H     H_    0.455200 0.568109 0.533036 0.118179
H80   H     H_    0.513175 0.433423 0.604741 0.116755
H81   H     H_    0.530172 0.564736 0.694681 0.118877
H82   H     H_    0.393663 0.443233 0.574410 0.116859
H83   H     H_    0.955251 0.068100 0.532993 0.118184
H84   H     H_    0.011808 0.630264 0.859089 0.143279
H85   H     H_    0.013178 0.933424 0.604774 0.116759
H86   H     H_    0.030175 0.064750 0.694650 0.118873
H87   H     H_    0.893649 0.943258 0.574406 0.116862
H88   H     H_    0.342700 0.567623 0.381099 0.117314
H89   H     H_    0.646154 0.431306 0.690273 0.109919
H90   H     H_    0.664960 0.562721 0.781816 0.111126
H91   H     H_    0.280172 0.442685 0.421101 0.107716
H92   H     H_    0.842763 0.067608 0.381044 0.117302
H93   H     H_    0.146158 0.931302 0.690323 0.109919
H94   H     H_    0.164963 0.062730 0.781805 0.111112
H95   H     H_    0.963192 0.381238 0.141938 0.125073
H96   H     H_    0.780171 0.942705 0.421085 0.107724
H97   H     H_    0.772032 0.567899 0.792113 0.127670
H98   H     H_    0.213565 0.433336 0.269266 0.079999
H99   H     H_    0.210747 0.569085 0.267882 0.126931
H100  H     H_    0.770626 0.430436 0.789956 0.091557
H101  H     H_    0.272034 0.067899 0.792115 0.127672
H102  H     H_    0.713595 0.933335 0.269248 0.080003
H103  H     H_    0.710809 0.069096 0.267838 0.126959
H104  H     H_    0.270628 0.930436 0.789967 0.091555
H105  H     H_    0.055984 0.431584 0.265285 0.072027
H106  H     H_    0.485855 0.126481 0.147679 0.114479
H107  H     H_    0.018772 0.570340 0.793072 0.091288
H108  H     H_    0.012725 0.431809 0.782867 0.094505
H109  H     H_    0.055960 0.569765 0.265040 0.081422
H110  H     H_    0.555979 0.931584 0.265284 0.072033
H111  H     H_    0.518783 0.070340 0.793086 0.091290
H112  H     H_    0.512758 0.931807 0.782909 0.094514
H113  H     H_    0.555955 0.069765 0.265037 0.081427
H114  H     H_    0.084612 0.432222 0.741436 0.124099
H115  H     H_    0.094222 0.571311 0.402871 0.115798
H116  H     H_    0.584631 0.932222 0.741457 0.124099
H117  H     H_    0.525527 0.876435 0.855267 0.164643
H118  H     H_    0.594199 0.071312 0.402862 0.115798
H119  H     H_    0.080981 0.571661 0.738543 0.115598
H120  H     H_    0.096030 0.431753 0.403912 0.112673
H121  H     H_    0.581000 0.071661 0.738568 0.115596
H122  H     H_    0.596024 0.931754 0.403912 0.112676
H123  H     H_    0.111374 0.611496 0.653804 0.126319
H124  H     H_    0.119517 0.392922 0.529725 0.129719
H125  H     H_    0.611372 0.111497 0.653810 0.126312
H126  H     H_    0.619519 0.892923 0.529729 0.129720
H127  H     H_    0.116240 0.611338 0.527673 0.128927
H128  H     H_    0.511802 0.130267 0.859093 0.143287
H129  H     H_    0.115205 0.393090 0.656306 0.135965
H130  H     H_    0.616220 0.111339 0.527665 0.128923
H131  H     H_    0.615218 0.893090 0.656320 0.135966
H132  H     H_    0.900014 0.348552 0.215567 0.135357
H133  H     H_    0.835470 0.381746 0.218762 0.159376
H134  H     H_    0.920836 0.404411 0.248028 0.169176
H135  H     H_    0.010479 0.706272 0.779490 0.146725
H136  H     H_    0.953484 0.749968 0.772073 0.170573
H137  H     H_    0.917751 0.695711 0.742605 0.165262
H138  H     H_    0.056640 0.270396 0.957018 0.141020
H139  H     H_    0.463194 0.881237 0.141938 0.125070
H140  H     H_    0.071874 0.235396 0.891427 0.185944
H141  H     H_    0.982653 0.257867 0.842257 0.170441
H142  H     H_    0.075524 0.747480 0.091694 0.159529
H143  H     H_    0.025169 0.756790 0.135017 0.125590
H144  H     H_    0.004784 0.786981 0.039387 0.156441
H145  H     H_    0.400023 0.848560 0.215560 0.135355
H146  H     H_    0.335471 0.881746 0.218755 0.159372
H147  H     H_    0.420830 0.904420 0.248015 0.169178
H148  H     H_    0.417753 0.195707 0.742600 0.165284
H149  H     H_    0.510478 0.206272 0.779494 0.146726
H150  H     H_    0.774187 0.308046 0.876353 0.193922
H151  H     H_    0.453473 0.249964 0.772052 0.170588
H152  H     H_    0.556533 0.770376 0.957004 0.141044
H153  H     H_    0.571838 0.735365 0.891496 0.185915
H154  H     H_    0.482597 0.757829 0.842236 0.170503
H155  H     H_    0.575564 0.247435 0.091733 0.159550
H156  H     H_    0.525161 0.256828 0.134968 0.125594
H157  H     H_    0.504838 0.286946 0.039282 0.156476
H158  H     H_    0.945639 0.328406 0.891185 0.278272
H159  H     H_    0.882418 0.297388 0.899314 0.245468
H160  H     H_    0.864096 0.303383 0.792534 0.256228
N1    N     N_R   0.963040 0.582050 0.045950 -0.054897
N2    N     N_R   0.082060 0.582000 0.045840 -0.071512
N3    N     N_R   0.082060 0.418000 0.045840 -0.072353
N4    N     N_R   0.917940 0.582000 0.954160 -0.071925
N5    N     N_R   0.417940 0.918000 0.954160 -0.065546
N6    N     N_R   0.582060 0.082000 0.045840 -0.071525
N7    N     N_R   0.582060 0.918000 0.045840 -0.072337
N8    N     N_R   0.417940 0.082000 0.954160 -0.071919
N9    N     N_R   0.858490 0.522630 0.835610 -0.040703
N10   N     N_R   0.141510 0.477370 0.164390 -0.042380
N11   N     N_R   0.141510 0.522630 0.164390 -0.038395
N12   N     N_R   0.036960 0.417950 0.954050 -0.058283
N13   N     N_R   0.858490 0.477370 0.835610 -0.042618
N14   N     N_R   0.358490 0.022630 0.835610 -0.040703
N15   N     N_R   0.641510 0.977370 0.164390 -0.042380
N16   N     N_R   0.641510 0.022630 0.164390 -0.038403
N17   N     N_R   0.358490 0.977370 0.835610 -0.042619
N18   N     N_R   0.022480 0.477420 0.164500 -0.035055
N19   N     N_R   0.977520 0.522580 0.835500 -0.041027
N20   N     N_R   0.977520 0.477420 0.835500 -0.041313
N21   N     N_R   0.022480 0.522580 0.164500 -0.037160
N22   N     N_R   0.522480 0.977420 0.164500 -0.035055
N23   N     N_R   0.036960 0.582050 0.954050 -0.060142
N24   N     N_R   0.477520 0.022580 0.835500 -0.041027
N25   N     N_R   0.477520 0.977420 0.835500 -0.041316
N26   N     N_R   0.522480 0.022580 0.164500 -0.037163
N27   N     N_R   0.963040 0.417950 0.045950 -0.060596
N28   N     N_R   0.463040 0.082050 0.045950 -0.054897
N29   N     N_R   0.536960 0.917950 0.954050 -0.058287
N30   N     N_R   0.536960 0.082050 0.954050 -0.060135
N31   N     N_R   0.463040 0.917950 0.045950 -0.060587
N32   N     N_R   0.917940 0.418000 0.954160 -0.065544
Ni1   Ni    Ni4+2 0.051820 0.551870 0.104030 0.204014
Ni2   Ni    Ni4+2 0.948180 0.448130 0.895970 0.211250
Ni3   Ni    Ni4+2 0.948180 0.551870 0.895970 0.206314
Ni4   Ni    Ni4+2 0.051820 0.448130 0.104030 0.202016
Ni5   Ni    Ni4+2 0.551820 0.051870 0.104030 0.204009
Ni6   Ni    Ni4+2 0.448180 0.948130 0.895970 0.211250
Ni7   Ni    Ni4+2 0.448180 0.051870 0.895970 0.206316
Ni8   Ni    Ni4+2 0.551820 0.948130 0.104030 0.202030
O1    O     O_3   0.840169 0.394170 0.113725 -0.617890
O2    O     O_3   0.290334 0.755784 0.138376 -0.614921
O3    O     O_3   0.366666 0.330019 0.113548 -0.611023
O4    O     O_3   0.721023 0.710447 0.010396 -0.623112
O5    O     O_3   0.160787 0.768593 0.850868 -0.615005
O6    O     O_3   0.790321 0.255788 0.138354 -0.614944
O7    O     O_3   0.866625 0.829946 0.113688 -0.610967
O8    O     O_3   0.221005 0.210549 0.010350 -0.623231
O9    O     O_3   0.992870 0.707876 0.877202 -0.611593
O10   O     O_3   0.061108 0.301115 0.861756 -0.638134
O11   O     O_3   0.968566 0.722708 0.012376 -0.602009
O12   O     O_3   0.340163 0.894175 0.113713 -0.617887
O13   O     O_3   0.492854 0.207881 0.877192 -0.611582
O14   O     O_3   0.561068 0.801080 0.861783 -0.638065
O15   O     O_3   0.468599 0.222672 0.012393 -0.602039
O16   O     O_3   0.660752 0.268620 0.850837 -0.615004

loop_
_geom_bond_atom_site_label_1
_geom_bond_atom_site_label_2
_ccdc_geom_bond_type
C105  C110  A    
C87   H44   S    
C71   H158  S    
C152  N30   A    
C27   N19   A    
C77   H18   S    
C70   C147  S    
C83   C154  S    
C141  H117  S    
C68   C106  A    
N17   Ni6   S    
C21   N14   A    
C89   H52   S    
C79   C99   A    
C157  H71   S    
C119  H95   S    
C183  H89   S    
C97   N12   A    
N14   N17   A    
C85   C155  S    
C63   H140  S    
C5    C179  A    
C79   C90   A    
C22   H102  S    
C134  C143  A    
C117  C170  A    
C113  C122  A    
C164  H78   S    
C78   C151  S    
C36   C97   A    
C69   O15   S    
C117  C126  A    
C95   H69   S    
C21   C45   A    
C16   C179  A    
C106  C111  A    
C33   H113  S    
C22   C47   A    
C124  H24   S    
N24   N25   A    
C158  C167  A    
N23   Ni3   S    
C38   C129  S    
C137  C146  A    
C127  C136  A    
C28   H108  S    
C37   C108  A    
C3    C8    A    
C113  C166  A    
N26   Ni5   S    
C162  H77   S    
C33   C50   A    
C87   H45   S    
C67   O14   S    
C82   H28   S    
C118  O7    S    
C56   C174  A    
C17   C43   A    
C14   C175  A    
C18   C44   A    
C114  O3    S    
C91   H53   S    
C2    C58   A    
C139  O9    S    
N1    N4    A    
C93   H61   S    
C30   N22   A    
C38   C119  A    
C124  C133  A    
C88   H48   S    
C173  C182  A    
N14   Ni7   S    
N3    Ni4   S    
C32   N25   A    
C101  C111  A    
C6    H94   S    
C54   H116  S    
C19   C44   A    
C175  C183  A    
C64   H143  S    
C176  C184  A    
C42   C163  A    
C119  N27   A    
N20   Ni2   S    
C72   C73   S    
C93   H60   S    
C53   C58   A    
C1    H1    S    
C87   O16   S    
C19   H99   S    
C163  H139  S    
C42   C134  S    
C25   H104  S    
C63   H138  S    
C9    C184  A    
C130  N28   A    
C118  C171  A    
C112  C165  A    
C92   H59   S    
C158  H72   S    
C83   H37   S    
C139  C157  A    
C93   O6    S    
N15   N16   A    
C103  C107  A    
C91   O4    S    
N9    N13   A    
C89   H50   S    
C80   H22   S    
C62   H135  S    
C69   H155  S    
C123  C132  A    
C152  H128  S    
C54   C101  A    
C23   N16   A    
C143  C160  A    
C85   C86   S    
C61   H133  S    
C88   H49   S    
C133  C142  A    
C71   H159  S    
C36   C132  S    
C78   C80   S    
C122  H2    S    
C13   C57   A    
C81   C153  S    
C52   H114  S    
C108  H84   S    
C1    N1    A    
C105  H125  S    
C61   H132  S    
C92   O5    S    
C107  H127  S    
C96   C98   A    
C76   C150  S    
N3    N12   A    
C78   H26   S    
C73   H6    S    
C70   H4    S    
N11   Ni1   S    
C75   H12   S    
C40   C141  A    
C26   N18   A    
C95   H66   S    
N32   Ni2   S    
C1    C34   A    
C41   C153  A    
C54   C59   A    
C9    C43   S    
C23   C47   A    
C7    C181  A    
C52   C56   A    
C67   H154  S    
C143  O12   S    
C84   H33   S    
C29   H109  S    
C18   N10   A    
C146  C164  A    
C160  H75   S    
C37   C131  S    
N8    Ni7   S    
C39   C155  A    
C64   O11   S    
N15   Ni8   S    
C82   H29   S    
C28   C49   A    
C83   C84   S    
C88   O2    S    
C160  C169  A    
C33   N26   A    
C25   N17   A    
C42   C151  A    
C155  N8    A    
C114  C123  A    
C70   H3    S    
N27   N32   A    
C116  C125  A    
C164  C172  A    
C85   H41   S    
C86   H39   S    
C25   C45   A    
C122  C131  A    
C41   C135  S    
C65   H145  S    
C94   H63   S    
C92   H56   S    
C6    C180  A    
C65   O12   S    
C123  H13   S    
C151  N5    A    
C31   C51   A    
C77   H17   S    
C55   H118  S    
C3    H91   S    
C13   C59   A    
C64   H142  S    
C67   H152  S    
C50   C60   S    
C89   H51   S    
C112  C121  A    
C81   H31   S    
C35   C79   A    
N12   Ni2   S    
C77   H16   S    
C131  C139  A    
C75   H10   S    
N10   N11   A    
C118  C127  A    
N18   Ni4   S    
C19   N11   A    
C174  H119  S    
N8    N28   A    
C27   H107  S    
C115  C168  A    
C55   C60   A    
C94   H64   S    
C72   H8    S    
C180  H86   S    
C16   C180  A    
C75   H11   S    
C181  H87   S    
C125  C134  A    
C7    C10   A    
C141  N29   A    
C144  C161  A    
C127  H57   S    
C142  C159  A    
C34   C150  A    
C76   H19   S    
N10   Ni4   S    
C40   C136  S    
C55   C102  A    
C13   H121  S    
C5    C11   A    
C35   C103  A    
C63   O10   S    
C99   C109  A    
C68   C98   A    
C150  N4    A    
N24   Ni7   S    
C14   C176  A    
C62   H137  S    
C145  O14   S    
C57   C96   A    
N19   N20   A    
C74   C149  S    
C70   C71   S    
N29   Ni6   S    
C163  N31   A    
C65   H147  S    
C26   C48   A    
C17   H97   S    
N31   Ni8   S    
C112  O16   S    
C32   H112  S    
C30   C50   A    
C96   C101  A    
N2    N23   A    
C28   N20   A    
C31   H111  S    
C94   O7    S    
C64   H144  S    
C53   C100  A    
C184  H90   S    
C140  O10   S    
C63   H141  S    
C114  C167  A    
N4    Ni3   S    
C95   H67   S    
C72   H9    S    
C106  H126  S    
N25   Ni6   S    
C46   C104  A    
N7    N29   A    
C32   C51   A    
C9    C183  A    
C138  O1    S    
C153  N6    A    
C104  H124  S    
C66   H151  S    
C176  H81   S    
C161  H76   S    
C29   N21   A    
C126  C135  A    
C179  H85   S    
C87   H43   S    
N28   Ni5   S    
N2    Ni1   S    
C102  C110  A    
C7    H96   S    
C6    C11   A    
C142  O11   S    
C30   H110  S    
C8    C182  A    
C165  C170  S    
C62   H136  S    
C115  C124  A    
C109  H129  S    
C148  N2    A    
C121  C129  A    
C31   N24   A    
C120  C128  A    
C48   C58   S    
C167  C172  S    
C46   C90   A    
C132  C140  A    
N13   Ni2   S    
C61   O1    S    
N9    Ni3   S    
C98   C102  A    
C177  H82   S    
N21   Ni1   S    
C156  C165  A    
C15   C181  A    
C91   H54   S    
C146  O15   S    
C37   C148  A    
C24   H122  S    
C38   C147  A    
C93   H62   S    
C24   C68   A    
C88   H47   S    
C74   H15   S    
C116  O5    S    
C20   H100  S    
C21   H101  S    
C73   H5    S    
N22   Ni8   S    
C12   C173  A    
N18   N21   A    
C23   H103  S    
C57   C105  A    
C39   C137  S    
C26   H105  S    
N19   Ni3   S    
C66   H148  S    
C81   C82   S    
C97   H73   S    
C41   C152  A    
C2    C46   A    
C128  H68   S    
C126  H46   S    
C67   H153  S    
C104  C109  A    
C36   C149  A    
C145  C162  A    
C15   C16   S    
C69   H157  S    
C159  C168  A    
C66   H149  S    
N5    Ni6   S    
C92   H58   S    
N7    Ni8   S    
N16   Ni5   S    
C116  C169  A    
C4    C178  A    
N22   N26   A    
C136  C145  A    
C89   O3    S    
C108  N23   A    
C140  C158  A    
C12   C177  A    
C69   H156  S    
C40   C154  A    
C86   H40   S    
C90   C100  A    
C95   O8    S    
C156  H70   S    
C168  C171  S    
C62   O9    S    
C61   H134  S    
C10   C47   S    
C74   C75   S    
C129  C138  A    
C29   C48   A    
C71   H160  S    
C4    H92   S    
C74   H14   S    
C5    H93   S    
C76   C77   S    
C178  H83   S    
C120  C172  A    
C34   C133  S    
C72   C148  S    
C17   N9    A    
C182  H88   S    
C128  C137  A    
C175  H80   S    
C111  H131  S    
C81   H30   S    
C18   H98   S    
C24   C60   A    
C130  H106  S    
C144  O13   S    
C66   O13   S    
C78   H25   S    
C73   H7    S    
C84   H34   S    
C121  H150  S    
C161  C170  A    
C125  H35   S    
C135  C144  A    
C12   C14   S    
C159  H74   S    
C103  H123  S    
C149  N3    A    
C51   C59   S    
N30   Ni7   S    
C53   H115  S    
C4    C10   A    
C94   H65   S    
C20   C43   A    
C82   H27   S    
N6    Ni5   S    
C138  C156  A    
C100  C107  A    
N27   Ni4   S    
C35   C174  A    
C8    C44   S    
C157  C166  A    
C76   H20   S    
C20   N13   A    
C39   C130  A    
C49   C56   S    
C86   H38   S    
C52   C99   A    
C3    C177  A    
C83   H36   S    
N6    N30   A    
N1    Ni1   S    
C117  O6    S    
C147  N32   A    
C80   H21   S    
C115  O4    S    
C173  H79   S    
C11   C45   S    
C113  O2    S    
C65   H146  S    
C27   C49   A    
C162  C171  A    
C80   H23   S    
C166  C169  S    
C15   C178  A    
C91   H55   S    
C154  N7    A    
C110  H130  S    
C85   H42   S    
N5    N31   A    
C2    H120  S    
C22   N15   A    
C84   H32   S    
C120  O8    S    
