data_mof_unit_11831.cif
_audit_creation_date              2012-12-10T16:44:43-0500
_audit_creation_method            fapswitch 2.2
_symmetry_space_group_name_H-M    P1
_symmetry_Int_Tables_number       1
_space_group_crystal_system       triclinic
_cell_length_a                    15.017434
_cell_length_b                    8.772251
_cell_length_c                    7.47408
_cell_angle_alpha                 102.325814
_cell_angle_beta                  92.196959
_cell_angle_gamma                 90.948175
_cell_volume                      960.899319334

loop_
_atom_site_label
_atom_site_type_symbol
_atom_type_description
_atom_site_fract_x
_atom_site_fract_y
_atom_site_fract_z
_atom_type_partial_charge
C1    C     C_R   0.493100 0.200568 0.455112 0.768330
C2    C     C_R   0.505176 0.799062 0.545037 0.856285
C3    C     C_R   0.044208 0.200534 0.432362 0.471952
C4    C     C_R   0.953749 0.763964 0.619720 0.533920
C5    C     C_2   0.482073 0.033024 0.434384 0.153666
C6    C     C_2   0.516991 0.964994 0.566136 0.141205
C7    C     C_R   0.329458 0.499350 0.505984 0.884801
C8    C     C_R   0.670163 0.488485 0.492122 0.855915
C9    C     C_R   0.814717 0.626248 0.505481 0.269536
C10   C     C_R   0.187430 0.347213 0.488389 0.263616
C11   C     C_R   0.766264 0.484835 0.474524 -0.196963
C12   C     C_R   0.233351 0.492546 0.521429 -0.186457
C13   C     C_R   0.809714 0.341622 0.444665 0.296831
C14   C     C_R   0.188659 0.633147 0.566195 0.331479
C15   C     C_R   0.904196 0.340236 0.451733 -0.014383
C16   C     C_R   0.094495 0.630427 0.569195 -0.065000
C17   C     C_R   0.952792 0.483547 0.500081 -0.090416
C18   C     C_R   0.047041 0.485676 0.514616 -0.075379
C19   C     C_R   0.907042 0.625530 0.537733 -0.024962
C20   C     C_R   0.093364 0.343419 0.478242 0.005632
C21   C     C_R   0.951097 0.200290 0.417646 -0.292043
C22   C     C_R   0.046376 0.767181 0.629215 -0.317259
Cu1   Cu    Cu3+1 0.510010 0.517380 0.684380 0.951839
Cu2   Cu    Cu3+1 0.489990 0.482620 0.315620 0.954209
H1    H     H_    0.916964 0.087932 0.380484 0.179802
H2    H     H_    0.078428 0.877267 0.693778 0.187545
H3    H     H_    0.425793 0.393411 0.953458 0.230855
H4    H     H_    0.572486 0.611072 0.047565 0.220652
N1    N     N_2   0.474890 0.456420 0.038520 -0.224814
N2    N     N_2   0.525110 0.543580 0.961480 -0.234383
O1    O     O_R   0.506510 0.286130 0.619770 -0.569522
O2    O     O_R   0.493490 0.713870 0.380230 -0.572888
O3    O     O_R   0.489600 0.256770 0.308360 -0.602343
O4    O     O_R   0.510400 0.743230 0.691640 -0.577676
O5    O     O_R   0.378710 0.514640 0.655720 -0.590892
O6    O     O_R   0.621290 0.485360 0.344280 -0.599292
O7    O     O_R   0.361800 0.485290 0.344300 -0.579887
O8    O     O_R   0.638200 0.514710 0.655700 -0.594596
O9    O     O_3   0.773785 0.767495 0.512247 -0.733498
H5    H     H_    0.712013 0.750654 0.460171 0.296794
O10   O     O_3   0.232678 0.208297 0.461052 -0.712320
H6    H     H_    0.295490 0.226688 0.506277 0.311409
O11   O     O_3   0.757894 0.206620 0.405853 -0.790601
H7    H     H_    0.785715 0.130475 0.469638 0.334176
O12   O     O_3   0.240416 0.768999 0.603369 -0.761015
H8    H     H_    0.204691 0.859417 0.590437 0.349333
O13   O     O_3   0.086096 0.059490 0.418866 -0.571256
C23   C     C_3   0.095439 0.990730 0.232233 0.086596
H9    H     H_    0.134180 0.069066 0.162794 0.156841
H10   H     H_    0.029099 0.966841 0.163737 0.105246
C24   C     C_3   0.143781 0.836947 0.218286 -0.340249
H11   H     H_    0.211293 0.861022 0.285050 0.275166
H12   H     H_    0.105512 0.760896 0.289004 0.234254
C25   C     C_3   0.152988 0.748212 0.021992 -0.911069
H13   H     H_    0.176060 0.827590 0.935496 0.277506
H14   H     H_    0.088250 0.692090 0.966066 0.253126
H15   H     H_    0.202307 0.654806 0.018908 0.277089
O14   O     O_3   0.908990 0.892460 0.710812 -0.571719
C26   C     C_3   0.900007 0.880659 0.895967 0.035550
H16   H     H_    0.901246 0.000950 0.981502 0.165705
H17   H     H_    0.955402 0.817205 0.947466 0.112968
C27   C     C_3   0.812829 0.796985 0.924068 -0.334977
H18   H     H_    0.755647 0.845950 0.859946 0.255569
H19   H     H_    0.816355 0.670597 0.862632 0.213450
C28   C     C_3   0.796615 0.812228 0.126143 -0.890942
H20   H     H_    0.854381 0.767927 0.195375 0.277166
H21   H     H_    0.735812 0.742912 0.140630 0.254110
H22   H     H_    0.786326 0.935917 0.191419 0.283302
O15   O     O_3   0.417376 0.949612 0.310199 -0.615394
C29   C     C_3   0.427209 0.962388 0.126535 0.137787
H23   H     H_    0.423999 0.841967 0.041052 0.187906
H24   H     H_    0.492689 0.012392 0.099272 0.163719
C30   C     C_3   0.348283 0.051373 0.066594 -0.351444
H25   H     H_    0.286064 0.992140 0.090870 0.238300
H26   H     H_    0.346965 0.172089 0.149454 0.248041
C31   C     C_3   0.348912 0.056860 0.864683 -0.832781
H27   H     H_    0.402338 0.137439 0.841766 0.278419
H28   H     H_    0.284169 0.099593 0.820849 0.255361
H29   H     H_    0.360202 0.939371 0.780421 0.303689
O16   O     O_3   0.551072 0.048922 0.734976 -0.625906
C32   C     C_3   0.641936 0.086761 0.724463 0.022550
H30   H     H_    0.650459 0.163072 0.626004 0.201091
H31   H     H_    0.680620 0.980266 0.680186 0.162405
C33   C     C_3   0.677805 0.174480 0.913521 -0.255286
H32   H     H_    0.630685 0.266443 0.971940 0.257196
H33   H     H_    0.683126 0.092003 0.007210 0.220038
C34   C     C_3   0.768756 0.251781 0.903146 -0.886493
H34   H     H_    0.761803 0.349801 0.831527 0.258584
H35   H     H_    0.815177 0.166482 0.828012 0.278120
H36   H     H_    0.797381 0.298920 0.043549 0.267474

loop_
_geom_bond_atom_site_label_1
_geom_bond_atom_site_label_2
_ccdc_geom_bond_type
C34   H34   S    
H3    N1    S    
O10   H6    S    
C33   C34   S    
C1    O1    A    
C32   H30   S    
C1    O3    A    
O12   H8    S    
N1    N2    D    
C1    C5    S    
C31   H28   S    
C8    O6    A    
C5    C6    D    
C9    O9    S    
C2    O2    A    
C30   H25   S    
Cu2   N1    S    
C27   H19   S    
C4    C19   A    
C9    C19   A    
C23   C24   S    
C10   C20   A    
C28   H21   S    
C5    O15   S    
Cu1   Cu2   S    
C31   H29   S    
C29   H23   S    
C28   H22   S    
C23   H10   S    
C26   H16   S    
C10   O10   S    
C30   H26   S    
C2    C6    S    
C8    O8    A    
C32   H31   S    
Cu2   O7    S    
C14   O12   S    
C7    C12   S    
C25   H14   S    
C26   H17   S    
C24   H11   S    
Cu1   N2    S    
C33   H32   S    
O9    H5    S    
O14   C26   S    
C24   H12   S    
Cu1   O1    S    
O11   H7    S    
Cu2   O2    S    
C27   H18   S    
C4    C22   A    
C6    O16   S    
O13   C23   S    
Cu1   O4    S    
C29   C30   S    
C17   C18   A    
C7    O7    A    
C3    C20   A    
Cu2   O6    S    
C31   H27   S    
C9    C11   A    
C10   C12   A    
C23   H9    S    
C12   C14   A    
Cu1   O5    S    
C13   C15   A    
C30   C31   S    
C14   C16   A    
C3    C21   A    
C13   O11   S    
C32   C33   S    
C15   C17   A    
C21   H1    S    
C25   H13   S    
C26   C27   S    
C16   C22   A    
C27   C28   S    
C7    O5    A    
C33   H33   S    
O16   C32   S    
Cu1   O8    S    
Cu2   O3    S    
C24   C25   S    
H4    N2    S    
C11   C13   A    
C2    O4    A    
C8    C11   S    
C3    O13   S    
C17   C19   A    
C18   C20   A    
O15   C29   S    
C15   C21   A    
C16   C18   A    
C28   H20   S    
C22   H2    S    
C34   H36   S    
C4    O14   S    
C34   H35   S    
C29   H24   S    
C25   H15   S    
