data_mof_unit_48552.cif
_audit_creation_date              2012-12-10T18:09:44-0500
_audit_creation_method            fapswitch 2.2
_symmetry_space_group_name_H-M    P1
_symmetry_Int_Tables_number       1
_space_group_crystal_system       triclinic
_cell_length_a                    10.662238
_cell_length_b                    12.627262
_cell_length_c                    13.094283
_cell_angle_alpha                 81.889018
_cell_angle_beta                  90.690871
_cell_angle_gamma                 102.08568
_cell_volume                      1706.34957932

loop_
_atom_site_label
_atom_site_type_symbol
_atom_type_description
_atom_site_fract_x
_atom_site_fract_y
_atom_site_fract_z
_atom_type_partial_charge
C1    C     C_R   0.488797 0.438703 0.691327 0.847834
C2    C     C_R   0.498474 0.448087 0.974254 0.085162
C3    C     C_R   0.544353 0.465557 0.871633 0.096966
C4    C     C_R   0.741114 0.498762 0.503382 0.819532
C5    C     C_R   0.542667 0.530267 0.036838 0.082296
C6    C     C_R   0.645048 0.619436 0.002101 0.177812
C7    C     C_R   0.701346 0.626395 0.905338 -0.264619
C8    C     C_R   0.651914 0.550140 0.840863 -0.198924
C9    C     C_R   0.486955 0.526539 0.133065 -0.260001
C10   C     C_R   0.642525 0.686538 0.166160 -0.208125
C11   C     C_R   0.479382 0.399301 0.801517 -0.102090
C12   C     C_3   0.121367 0.499344 0.506343 0.089211
C13   C     C_R   0.346091 0.097333 0.329640 -0.306682
C14   C     C_R   0.659778 0.800455 0.624167 0.026889
C15   C     C_R   0.704521 0.907566 0.641287 -0.247787
C16   C     C_R   0.515358 0.561265 0.308818 0.839563
C17   C     C_R   0.648730 0.989388 0.589498 -0.180364
C18   C     C_R   0.543816 0.963654 0.523808 0.006759
C19   C     C_R   0.510185 0.855243 0.501860 0.249268
C20   C     C_R   0.477569 0.042573 0.473612 -0.050424
C21   C     C_R   0.399515 0.016979 0.388216 0.189907
C22   C     C_R   0.373409 0.910839 0.363839 -0.283630
C23   C     C_3   0.091635 0.577158 0.410912 -0.414801
C24   C     C_R   0.424034 0.830146 0.422718 -0.200971
C25   C     C_R   0.480935 0.144734 0.506306 0.055294
C26   C     C_R   0.368385 0.201541 0.357463 -0.011290
C27   C     C_R   0.258173 0.498639 0.503853 0.828771
C28   C     C_3   0.899790 0.377322 0.511919 -0.123173
C29   C     C_3   0.043181 0.381839 0.499407 -0.454214
C30   C     C_3   0.945932 0.572885 0.406353 -0.066954
C31   C     C_3   0.937731 0.545903 0.601310 -0.486715
C32   C     C_3   0.877496 0.497301 0.504618 0.095248
C33   C     C_1   0.157450 0.641472 0.632634 0.203081
C34   C     C_3   0.079737 0.536709 0.608404 -0.148834
C35   C     C_1   0.851836 0.309604 0.610999 0.146513
C36   C     C_1   0.511894 0.161463 0.611017 0.209578
C37   C     C_3   0.885158 0.555187 0.298970 -0.393620
C38   C     C_3   0.919531 0.464489 0.243873 -0.337489
C39   C     C_3   0.836413 0.447435 0.149368 -0.852158
C40   C     C_R   0.692072 0.698532 0.066229 -0.204955
C41   C     C_R   0.542648 0.597825 0.200082 -0.051474
C42   C     C_R   0.389098 0.303817 0.837366 -0.170673
C43   C     C_R   0.358521 0.277095 0.941781 -0.147399
C44   C     C_R   0.410102 0.349339 0.009773 -0.194869
H1    H     H_    0.847695 0.334059 0.451200 0.145331
H2    H     H_    0.290051 0.202596 0.969513 0.140382
H3    H     H_    0.699064 0.557490 0.766744 0.148019
H4    H     H_    0.331562 0.265707 0.310932 0.130134
H5    H     H_    0.311066 0.889434 0.300588 0.149899
H6    H     H_    0.289148 0.080071 0.262507 0.141208
H7    H     H_    0.704286 0.736415 0.662063 0.127937
H8    H     H_    0.693436 0.072519 0.597648 0.163473
H9    H     H_    0.784051 0.927485 0.692246 0.152816
H10   H     H_    0.397613 0.749629 0.402271 0.208228
H11   H     H_    0.075979 0.321446 0.558759 0.182067
H12   H     H_    0.934757 0.657152 0.414850 0.141135
H13   H     H_    0.061395 0.357869 0.423191 0.173405
H14   H     H_    0.130083 0.555785 0.340173 0.153861
H15   H     H_    0.927816 0.632690 0.596290 0.181096
H16   H     H_    0.885351 0.502728 0.673330 0.164532
H17   H     H_    0.089777 0.473128 0.674316 0.132583
H18   H     H_    0.733282 0.422796 0.172347 0.273218
H19   H     H_    0.852365 0.523858 0.093367 0.266064
H20   H     H_    0.862420 0.381779 0.111049 0.246032
H21   H     H_    0.020899 0.487075 0.216463 0.209360
H22   H     H_    0.905475 0.385562 0.294649 0.218602
H23   H     H_    0.143141 0.662519 0.416171 0.163570
H24   H     H_    0.779406 0.541659 0.306337 0.207629
H25   H     H_    0.914963 0.633418 0.245988 0.190892
H26   H     H_    0.687195 0.741944 0.218465 0.154179
H27   H     H_    0.782481 0.691607 0.878878 0.142599
H28   H     H_    0.771161 0.766110 0.040998 0.136153
H29   H     H_    0.403697 0.464811 0.160599 0.135388
H30   H     H_    0.338781 0.251886 0.784281 0.159133
H31   H     H_    0.381070 0.324730 0.089682 0.125966
N1    N     N_R   0.433240 0.222190 0.444680 -0.118956
N2    N     N_R   0.566070 0.776970 0.554790 -0.128002
N3    N     N_1   0.217957 0.723459 0.651726 -0.195644
N4    N     N_1   0.816205 0.257262 0.689007 -0.212570
N5    N     N_1   0.535809 0.171665 0.696001 -0.193639
O1    O     O_R   0.468120 0.366740 0.627160 -0.604540
O2    O     O_R   0.510770 0.544830 0.662520 -0.608739
O3    O     O_R   0.663880 0.410950 0.482330 -0.615663
O4    O     O_R   0.706530 0.589040 0.517700 -0.640116
O5    O     O_R   0.489230 0.455170 0.337480 -0.614562
O6    O     O_R   0.531880 0.633260 0.372840 -0.634815
O7    O     O_R   0.293470 0.410960 0.482300 -0.625456
O8    O     O_R   0.336120 0.589050 0.517670 -0.626614
Zn1   Zn    Zn3+2 0.471520 0.381090 0.476390 0.939439
Zn2   Zn    Zn3+2 0.528480 0.618910 0.523610 0.927531

loop_
_geom_bond_atom_site_label_1
_geom_bond_atom_site_label_2
_ccdc_geom_bond_type
C23   H14   S    
C37   H25   S    
C12   C29   S    
C1    C11   S    
C7    C8    A    
C39   H20   S    
C12   C23   S    
C9    H29   S    
C15   H9    S    
C28   C29   S    
C7    H27   S    
C38   C39   S    
C33   N3    T    
C20   C25   A    
C1    O1    A    
C37   H24   S    
C11   C42   A    
C10   C40   A    
C18   C19   A    
C14   N2    A    
C23   H23   S    
C19   N2    A    
C31   C32   S    
C28   C35   S    
C2    C44   A    
C26   N1    A    
C18   C20   A    
C26   H4    S    
N1    Zn1   S    
O1    Zn1   S    
C21   C22   A    
C10   C41   A    
C16   O6    A    
O4    Zn2   S    
C17   H8    S    
C17   C18   A    
O3    Zn1   S    
N2    Zn2   S    
C42   H30   S    
C12   C27   S    
C23   C30   S    
C38   H22   S    
C28   C32   S    
C3    C8    A    
C36   N5    T    
C28   H1    S    
O5    Zn1   S    
C29   H11   S    
C1    O2    A    
C30   H12   S    
C34   H17   S    
C30   C37   S    
C31   H16   S    
C44   H31   S    
C43   C44   A    
C5    C9    A    
C37   C38   S    
C14   H7    S    
C4    O4    A    
C38   H21   S    
C33   C34   S    
C31   C34   S    
C13   C21   A    
C27   O7    A    
C4    C32   S    
C22   H5    S    
C10   H26   S    
O8    Zn2   S    
O7    Zn1   S    
O6    Zn2   S    
C16   O5    A    
C6    C40   A    
C13   C26   A    
C2    C5    A    
C42   C43   A    
C12   C34   S    
C31   H15   S    
C15   C17   A    
C39   H18   S    
C40   H28   S    
C29   H13   S    
C6    C7    A    
C39   H19   S    
C9    C41   A    
O2    Zn2   S    
C25   N1    A    
C2    C3    A    
C8    H3    S    
C30   C32   S    
C5    C6    A    
C4    O3    A    
C35   N4    T    
C19   C24   A    
C22   C24   A    
C27   O8    A    
C43   H2    S    
C3    C11   A    
C25   C36   S    
C13   H6    S    
C20   C21   A    
C14   C15   A    
C24   H10   S    
C16   C41   S    
