data_mof_unit_63751.cif
_audit_creation_date              2012-12-10T18:00:54-0500
_audit_creation_method            fapswitch 2.2
_symmetry_space_group_name_H-M    P1
_symmetry_Int_Tables_number       1
_space_group_crystal_system       triclinic
_cell_length_a                    18.457614
_cell_length_b                    18.45763
_cell_length_c                    32.822669
_cell_angle_alpha                 89.989429
_cell_angle_beta                  90.003142
_cell_angle_gamma                 89.982437
_cell_volume                      11182.1511933

loop_
_atom_site_label
_atom_site_type_symbol
_atom_type_description
_atom_site_fract_x
_atom_site_fract_y
_atom_site_fract_z
_atom_type_partial_charge
C1    C     C_1   0.500005 0.999984 0.100746 0.031968
C2    C     C_1   0.500020 0.000015 0.936830 0.000800
C3    C     C_2   0.892544 0.780236 0.716347 0.311707
C4    C     C_2   0.780866 0.106889 0.282770 0.304637
C5    C     C_2   0.225496 0.887818 0.708985 0.250086
C6    C     C_2   0.762792 0.650076 0.181887 0.306963
C7    C     C_2   0.107762 0.220236 0.715718 0.303158
C8    C     C_2   0.215442 0.102591 0.725618 0.327819
C9    C     C_2   0.663516 0.776532 0.177420 0.334157
C10   C     C_2   0.109223 0.779933 0.713657 0.297520
C11   C     C_2   0.898572 0.213768 0.271232 0.344325
C12   C     C_2   0.784952 0.897911 0.726298 0.334681
C13   C     C_1   0.999950 0.500016 0.063170 -0.000521
C14   C     C_2   0.232426 0.119379 0.298534 0.322022
C15   C     C_2   0.776618 0.336312 0.822613 0.333161
C16   C     C_2   0.101367 0.785775 0.271785 0.338016
C17   C     C_2   0.836337 0.276630 0.677389 0.332984
C18   C     C_2   0.286230 0.601431 0.228786 0.344114
C19   C     C_2   0.602588 0.715440 0.774389 0.328117
C20   C     C_2   0.380593 0.267588 0.201460 0.322145
C21   C     C_2   0.279930 0.609213 0.786340 0.297346
C22   C     C_2   0.714222 0.398635 0.228197 0.338244
C23   C     C_2   0.397909 0.284949 0.773694 0.334360
C24   C     C_1   0.999952 0.499981 0.936829 0.006011
C25   C     C_2   0.723489 0.836438 0.322584 0.334252
C26   C     C_2   0.849963 0.737191 0.318109 0.307086
C27   C     C_2   0.280234 0.392542 0.783645 0.311341
C28   C     C_2   0.606646 0.281289 0.217754 0.310476
C29   C     C_2   0.387805 0.725491 0.791019 0.250119
C30   C     C_2   0.276815 0.389785 0.212001 0.326602
C31   C     C_2   0.720233 0.607759 0.784289 0.303558
C32   C     C_2   0.393108 0.719136 0.217248 0.304379
C33   C     C_2   0.737114 0.150193 0.681842 0.306498
C34   C     C_1   0.999979 0.499988 0.563171 0.006028
C35   C     C_1   0.999987 0.500015 0.436830 -0.000523
C36   C     C_1   0.500050 0.000017 0.563170 0.000806
C37   C     C_1   0.500050 0.999981 0.436829 0.004895
C38   C     C_1   0.500021 0.999995 0.018787 0.038069
C39   C     C_1   0.500023 0.000005 0.981213 0.036950
C40   C     C_1   0.999942 0.500004 0.018787 0.036481
C41   C     C_1   0.500013 0.000017 0.899254 0.025575
C42   C     C_1   0.999942 0.499992 0.981212 0.038208
C43   C     C_1   0.999976 0.499997 0.518788 0.038218
C44   C     C_1   0.999979 0.500007 0.481213 0.036485
C45   C     C_1   0.500059 0.000004 0.518787 0.036952
C46   C     C_1   0.500059 0.999992 0.481212 0.038066
C47   C     C_R   0.500013 0.999993 0.354108 0.501221
C48   C     C_R   0.500014 0.000007 0.645892 0.495753
C49   C     C_R   1.000000 0.500011 0.354108 0.492295
C50   C     C_R   0.999996 0.499992 0.645892 0.509343
C51   C     C_R   0.999989 0.499993 0.854108 0.509344
C52   C     C_1   0.999964 0.500019 0.100746 0.023342
C53   C     C_R   0.999986 0.500007 0.145892 0.492306
C54   C     C_R   0.500004 0.000011 0.854108 0.495743
C55   C     C_R   0.500000 0.999990 0.145892 0.501223
C56   C     C_R   0.359572 0.140425 0.249999 0.462609
C57   C     C_R   0.640453 0.859566 0.750005 0.461799
C58   C     C_R   0.859579 0.359521 0.250017 0.461141
C59   C     C_R   0.140420 0.640418 0.749999 0.616957
C60   C     C_R   0.640442 0.859554 0.250001 0.456969
C61   C     C_R   0.359565 0.140454 0.749995 0.461757
C62   C     C_R   0.140481 0.640423 0.249983 0.461147
C63   C     C_1   0.999967 0.499980 0.899254 0.035256
C64   C     C_R   0.859553 0.359550 0.750000 0.454540
C65   C     C_R   0.359549 0.859551 0.750001 0.476911
C66   C     C_R   0.640397 0.140486 0.249974 0.469867
C67   C     C_R   0.859594 0.640470 0.749980 0.473004
C68   C     C_R   0.140442 0.359561 0.250001 0.460468
C69   C     C_R   0.640435 0.140437 0.749999 0.465768
C70   C     C_R   0.359511 0.859601 0.250026 0.469834
C71   C     C_R   0.140471 0.359593 0.750020 0.472901
C72   C     C_R   0.859571 0.640433 0.249999 0.465726
C73   C     C_R   0.233004 0.820941 0.263697 0.002818
C74   C     C_1   0.999986 0.499987 0.600746 0.035278
C75   C     C_R   0.704200 0.241704 0.784427 0.009535
C76   C     C_R   0.183110 0.237099 0.270008 0.003364
C77   C     C_R   0.820533 0.766543 0.735487 -0.003032
C78   C     C_R   0.766813 0.179083 0.263792 0.003113
C79   C     C_R   0.236368 0.817667 0.730888 -0.032321
C80   C     C_R   0.758235 0.704151 0.215590 0.010136
C81   C     C_R   0.179572 0.233668 0.735255 0.004259
C82   C     C_R   0.232707 0.178754 0.737152 0.007514
C83   C     C_R   0.706793 0.760806 0.214769 0.007989
C84   C     C_R   0.181818 0.764094 0.731524 -0.010518
C85   C     C_1   0.999995 0.500017 0.399254 0.023335
C86   C     C_R   0.821787 0.232081 0.261579 -0.002320
C87   C     C_R   0.767440 0.821494 0.737383 -0.000420
C88   C     C_R   0.238919 0.184798 0.272064 0.001975
C89   C     C_R   0.760854 0.293124 0.785248 0.007469
C90   C     C_R   0.178115 0.767832 0.261677 -0.000303
C91   C     C_R   0.793136 0.260859 0.714752 0.007596
C92   C     C_R   0.267918 0.678214 0.238430 -0.002496
C93   C     C_R   0.678752 0.732706 0.762851 0.007735
C94   C     C_R   0.315189 0.261086 0.227933 0.001948
C95   C     C_R   0.264092 0.681812 0.768474 -0.010487
C96   C     C_1   0.500036 0.000019 0.600746 0.025583
C97   C     C_R   0.732167 0.321887 0.238313 -0.000132
C98   C     C_R   0.321493 0.267439 0.762613 -0.000642
C99   C     C_R   0.739204 0.793185 0.285233 0.007909
C100  C     C_R   0.795869 0.741756 0.284407 0.010140
C101  C     C_R   0.266542 0.320532 0.764509 -0.003190
C102  C     C_R   0.679057 0.266997 0.236293 0.002945
C103  C     C_R   0.317661 0.736366 0.769114 -0.032358
C104  C     C_R   0.262896 0.316901 0.229997 0.003389
C105  C     C_R   0.733667 0.679571 0.764749 0.004405
C106  C     C_R   0.320915 0.733187 0.236216 0.002991
C107  C     C_1   0.500035 0.999980 0.399254 0.031957
C108  C     C_R   0.741709 0.204211 0.715572 0.009504
C109  C     C_R   0.196466 0.696449 0.250030 -0.051012
C110  C     C_R   0.803540 0.303534 0.750001 -0.048067
C111  C     C_R   0.303578 0.196414 0.249996 -0.044756
C112  C     C_R   0.696505 0.803597 0.750035 -0.049489
C113  C     C_R   0.803552 0.303535 0.249969 -0.050794
C114  C     C_R   0.196353 0.696349 0.749998 0.016786
C115  C     C_R   0.696453 0.803535 0.250002 -0.048265
C116  C     C_R   0.303597 0.196506 0.749965 -0.049763
C117  C     C_R   0.196454 0.303619 0.749971 -0.045951
C118  C     C_1   0.500013 0.999986 0.063171 0.004904
C119  C     C_R   0.803594 0.696417 0.249998 -0.039864
C120  C     C_R   0.303524 0.803528 0.750002 -0.018917
C121  C     C_R   0.696363 0.196466 0.250022 -0.043089
C122  C     C_R   0.803620 0.696453 0.750028 -0.045723
C123  C     C_R   0.196460 0.303547 0.250004 -0.044829
C124  C     C_R   0.696412 0.196418 0.749999 -0.040515
C125  C     C_R   0.303533 0.803636 0.249978 -0.043261
C126  C     C_2   0.218713 0.893351 0.282226 0.310232
C127  C     C_2   0.650172 0.237105 0.818155 0.306551
C128  C     C_2   0.110235 0.223179 0.288007 0.326608
H1    H     H_    0.244165 0.941562 0.270064 0.111819
H2    H     H_    0.608077 0.795607 0.179962 0.103352
H3    H     H_    0.085550 0.833420 0.717013 0.173194
H4    H     H_    0.933203 0.253009 0.286275 0.096558
H5    H     H_    0.744800 0.931666 0.711347 0.108558
H6    H     H_    0.258409 0.069011 0.289908 0.099576
H7    H     H_    0.795673 0.391751 0.820093 0.102197
H8    H     H_    0.067143 0.746211 0.286874 0.108078
H9    H     H_    0.891777 0.295678 0.679910 0.102025
H10   H     H_    0.246988 0.566801 0.213742 0.096494
H11   H     H_    0.569735 0.755452 0.790033 0.093217
H12   H     H_    0.626685 0.185448 0.826685 0.113791
H13   H     H_    0.430963 0.241594 0.210081 0.099578
H14   H     H_    0.333419 0.585544 0.782985 0.173230
H15   H     H_    0.753785 0.432861 0.213109 0.108157
H16   H     H_    0.431662 0.244796 0.788646 0.108398
H17   H     H_    0.704403 0.891875 0.320045 0.103430
H18   H     H_    0.873488 0.685541 0.326646 0.113888
H19   H     H_    0.255137 0.441008 0.771518 0.142434
H20   H     H_    0.558437 0.255831 0.229911 0.111740
H21   H     H_    0.436733 0.751545 0.780209 0.127012
H22   H     H_    0.232600 0.421302 0.199313 0.083874
H23   H     H_    0.078731 0.267390 0.300699 0.083849
H24   H     H_    0.746239 0.559219 0.772829 0.118943
H25   H     H_    0.441402 0.745748 0.228563 0.122929
H26   H     H_    0.685457 0.126716 0.673311 0.113783
H27   H     H_    0.941009 0.755136 0.728472 0.142296
H28   H     H_    0.754252 0.058597 0.271458 0.122860
H29   H     H_    0.251545 0.936743 0.719798 0.126953
H30   H     H_    0.814443 0.626569 0.173345 0.113812
H31   H     H_    0.059221 0.246241 0.727180 0.119043
H32   H     H_    0.255456 0.069740 0.709973 0.093054
O1    O     O_3   0.500000 0.000000 0.250000 -0.435428
O2    O     O_R   0.500000 0.939250 0.665880 -0.518356
O3    O     O_R   0.939250 0.500000 0.334120 -0.526092
O4    O     O_R   0.060750 0.500000 0.665880 -0.518220
O5    O     O_R   1.000000 0.439250 0.834120 -0.519029
O6    O     O_R   1.000000 0.560750 0.165880 -0.526580
O7    O     O_R   0.560750 0.000000 0.834120 -0.526420
O8    O     O_R   0.439250 0.000000 0.165880 -0.519503
O9    O     O_R   1.000000 0.560750 0.834120 -0.517902
O10   O     O_R   1.000000 0.439250 0.165880 -0.520796
O11   O     O_R   0.439250 0.000000 0.834120 -0.518910
O12   O     O_3   0.500000 0.000000 0.750000 -0.435784
O13   O     O_R   0.560750 0.000000 0.165880 -0.518603
O14   O     O_R   0.414510 0.146140 0.272120 -0.538187
O15   O     O_R   0.585490 0.853860 0.727880 -0.536538
O16   O     O_R   0.853860 0.414510 0.272120 -0.531668
O17   O     O_R   0.146140 0.585490 0.727880 -0.512208
O18   O     O_R   0.585490 0.853860 0.272120 -0.535940
O19   O     O_R   0.414510 0.146140 0.727880 -0.531155
O20   O     O_R   0.146140 0.585490 0.272120 -0.533535
O21   O     O_R   0.853860 0.414510 0.727880 -0.539271
O22   O     O_R   0.414510 0.853860 0.727880 -0.538076
O23   O     O_3   1.000000 0.500000 0.250000 -0.436442
O24   O     O_R   0.585490 0.146140 0.272120 -0.543190
O25   O     O_R   0.853860 0.585490 0.727880 -0.536291
O26   O     O_R   0.146140 0.414510 0.272120 -0.532406
O27   O     O_R   0.585490 0.146140 0.727880 -0.537180
O28   O     O_R   0.414510 0.853860 0.272120 -0.538489
O29   O     O_R   0.146140 0.414510 0.727880 -0.545199
O30   O     O_R   0.853860 0.585490 0.272120 -0.536508
O31   O     O_R   0.914510 0.646140 0.772120 -0.545027
O32   O     O_R   0.085490 0.353860 0.227880 -0.532232
O33   O     O_R   0.353860 0.914510 0.772120 -0.538211
O34   O     O_3   1.000000 0.500000 0.750000 -0.442169
O35   O     O_R   0.646140 0.085490 0.227880 -0.538372
O36   O     O_R   0.085490 0.353860 0.772120 -0.536473
O37   O     O_R   0.914510 0.646140 0.227880 -0.536654
O38   O     O_R   0.646140 0.085490 0.772120 -0.537060
O39   O     O_R   0.353860 0.914510 0.227880 -0.543308
O40   O     O_R   0.914510 0.353860 0.227880 -0.533407
O41   O     O_R   0.085490 0.646140 0.772120 -0.512256
O42   O     O_R   0.353860 0.085490 0.227880 -0.538197
O43   O     O_R   0.646140 0.914510 0.772120 -0.530981
O44   O     O_R   0.085490 0.646140 0.227880 -0.531798
O45   O     O_R   0.500000 0.939250 0.334120 -0.518843
O46   O     O_R   0.914510 0.353860 0.772120 -0.539326
O47   O     O_R   0.646140 0.914510 0.227880 -0.535879
O48   O     O_R   0.353860 0.085490 0.772120 -0.536711
O49   O     O_2   0.180458 0.899407 0.312387 -0.416992
O50   O     O_2   0.628820 0.291565 0.835531 -0.419395
O51   O     O_2   0.083333 0.162776 0.287209 -0.384251
O52   O     O_2   0.897969 0.817515 0.685762 -0.415640
O53   O     O_2   0.820209 0.101116 0.312507 -0.425926
O54   O     O_2   0.189863 0.891221 0.677702 -0.450300
O55   O     O_2   0.708308 0.628712 0.164546 -0.417589
O56   O     O_R   0.500000 0.060750 0.665880 -0.526962
O57   O     O_2   0.102596 0.182253 0.685401 -0.427770
O58   O     O_2   0.157575 0.075086 0.734874 -0.429860
O59   O     O_2   0.690349 0.771328 0.143543 -0.430109
O60   O     O_2   0.076218 0.734324 0.694131 -0.488994
O61   O     O_2   0.924606 0.155750 0.260970 -0.388764
O62   O     O_2   0.843267 0.924755 0.735270 -0.421396
O63   O     O_2   0.201111 0.122083 0.331265 -0.418431
O64   O     O_2   0.771467 0.309405 0.856477 -0.430570
O65   O     O_2   0.074849 0.843787 0.261889 -0.409009
O66   O     O_2   0.809440 0.271491 0.643524 -0.431116
O67   O     O_R   0.060750 0.500000 0.334120 -0.521298
O68   O     O_2   0.344248 0.575395 0.239057 -0.388855
O69   O     O_2   0.575085 0.657574 0.765136 -0.429774
O70   O     O_2   0.377873 0.298926 0.168731 -0.418077
O71   O     O_2   0.234316 0.576199 0.805863 -0.489405
O72   O     O_2   0.656211 0.425152 0.238084 -0.408913
O73   O     O_2   0.424755 0.343265 0.764719 -0.421478
O74   O     O_2   0.728716 0.809587 0.356459 -0.429674
O75   O     O_2   0.871325 0.791670 0.335451 -0.417528
O76   O     O_2   0.317509 0.397964 0.814229 -0.416554
O77   O     O_2   0.600588 0.319551 0.187591 -0.416464
O78   O     O_R   0.939250 0.500000 0.665880 -0.518701
O79   O     O_2   0.391198 0.689850 0.822303 -0.450376
O80   O     O_2   0.337221 0.416681 0.212797 -0.384331
O81   O     O_2   0.682246 0.602591 0.814608 -0.426851
O82   O     O_2   0.398877 0.679798 0.187515 -0.426461
O83   O     O_2   0.791577 0.128840 0.664467 -0.419396
O84   O     O_R   0.500000 0.060750 0.334120 -0.519273
Zn1   Zn    Zn3+2 0.413190 0.000000 0.218630 0.961522
Zn2   Zn    Zn3+2 0.086810 0.500000 0.281370 0.963058
Zn3   Zn    Zn3+2 0.500000 0.913190 0.718630 0.963219
Zn4   Zn    Zn3+2 0.500000 0.086810 0.281370 0.961770
Zn5   Zn    Zn3+2 0.086810 0.500000 0.718630 1.004935
Zn6   Zn    Zn3+2 0.913190 0.500000 0.281370 0.961949
Zn7   Zn    Zn3+2 0.500000 0.086810 0.718630 0.962164
Zn8   Zn    Zn3+2 0.500000 0.913190 0.281370 0.965768
Zn9   Zn    Zn3+2 0.586810 0.000000 0.781370 0.962750
Zn10  Zn    Zn3+2 0.000000 0.413190 0.218630 0.963571
Zn11  Zn    Zn3+2 0.000000 0.586810 0.781370 1.005303
Zn12  Zn    Zn3+2 0.586810 0.000000 0.218630 0.966050
Zn13  Zn    Zn3+2 0.413190 0.000000 0.781370 0.962614
Zn14  Zn    Zn3+2 1.000000 0.586810 0.218630 0.961460
Zn15  Zn    Zn3+2 0.000000 0.413190 0.781370 0.972793
Zn16  Zn    Zn3+2 0.913190 0.500000 0.718630 0.973221

loop_
_geom_bond_atom_site_label_1
_geom_bond_atom_site_label_2
_ccdc_geom_bond_type
C26   O75   D    
O46   Zn15  S    
C48   O56   A    
C16   C90   S    
C70   O39   A    
O7    Zn9   S    
C24   C42   S    
O9    Zn11  S    
C103  C120  A    
C17   C91   S    
O23   Zn10  S    
C54   O7    A    
C43   C44   T    
C11   H4    S    
C11   O61   D    
O28   Zn8   S    
C81   C82   A    
C82   C116  A    
O14   Zn4   S    
O12   Zn13  S    
O21   Zn16  S    
C45   C46   T    
C22   O72   D    
C4    C78   S    
C106  C125  A    
C58   O40   A    
C93   C112  A    
C86   C113  A    
C8    C82   S    
O6    Zn14  S    
C91   C110  A    
C21   H14   S    
C37   C107  T    
C50   C74   S    
C128  O51   D    
C62   O20   A    
C47   O84   A    
C67   O31   A    
C92   C109  A    
C30   H22   S    
C57   C112  S    
C48   O2    A    
C68   O32   A    
O13   Zn12  S    
C60   O18   A    
C73   C126  S    
C21   O71   D    
C81   C117  A    
C94   C111  A    
O30   Zn6   S    
C23   O73   D    
O34   Zn11  S    
C29   C103  S    
O29   Zn5   S    
O34   Zn15  S    
C10   C84   S    
O2    Zn3   S    
C18   H10   S    
C78   C121  A    
C59   O41   A    
C10   H3    S    
C55   O13   A    
C13   C40   S    
C66   O24   A    
C77   C122  A    
O25   Zn16  S    
C7    H31   S    
C93   C105  A    
C72   O37   A    
C57   O15   A    
C88   C111  A    
O44   Zn14  S    
C2    C39   S    
C25   C99   S    
C6    O55   D    
C22   H15   S    
C58   C113  S    
O33   Zn13  S    
O78   Zn16  S    
C4    O53   D    
C5    C79   S    
C102  C121  A    
C69   O27   A    
C56   C111  S    
O34   Zn16  S    
C97   C102  A    
C19   C93   S    
C70   O28   A    
C78   C86   A    
O15   Zn3   S    
O8    Zn1   S    
C80   C119  A    
C68   O26   A    
C22   C97   S    
C32   C106  S    
O35   Zn12  S    
C31   C105  S    
C33   C108  S    
C55   O8    A    
C108  C124  A    
C80   C83   A    
C64   C110  S    
C20   H13   S    
C56   O42   A    
C72   O30   A    
C6    H30   S    
C95   C103  A    
C66   O35   A    
C65   O33   A    
C65   O22   A    
O12   Zn9   S    
C5    H29   S    
C16   O65   D    
O34   Zn5   S    
C20   O70   D    
C71   C117  S    
C50   O4    A    
C75   C124  A    
C16   H8    S    
C83   C115  A    
C14   O63   D    
O11   Zn13  S    
O32   Zn10  S    
C51   C63   S    
C9    H2    S    
O1    Zn4   S    
C62   O44   A    
C104  C123  A    
C47   O45   A    
C33   H26   S    
C87   C112  A    
C14   H6    S    
O12   Zn3   S    
C26   H18   S    
O41   Zn11  S    
C64   O46   A    
C89   C110  A    
C27   C101  S    
C8    O58   D    
O31   Zn11  S    
C76   C88   A    
O5    Zn15  S    
C56   O14   A    
O23   Zn2   S    
C7    O57   D    
O36   Zn15  S    
O47   Zn12  S    
O1    Zn1   S    
C79   C84   A    
C49   C85   S    
C28   O77   D    
C15   C89   S    
C13   C52   T    
O19   Zn7   S    
C17   O66   D    
C36   C96   T    
C128  H23   S    
C98   C116  A    
C99   C100  A    
C50   O78   A    
O23   Zn14  S    
O17   Zn5   S    
C79   C120  A    
C57   O43   A    
C61   C116  S    
C3    H27   S    
C66   C121  S    
O18   Zn8   S    
C11   C86   S    
C4    H28   S    
C100  C119  A    
C71   O29   A    
C35   C44   S    
C19   O69   D    
C12   O62   D    
C18   O68   D    
C27   O76   D    
C9    C83   S    
C28   C102  S    
C64   O21   A    
C53   O10   A    
O10   Zn10  S    
C92   C106  A    
C7    C81   S    
C34   C74   T    
C25   O74   D    
C61   O19   A    
C24   C63   T    
C36   C45   S    
C12   H5    S    
C69   O38   A    
C76   C128  S    
C127  O50   D    
C23   H16   S    
C33   O83   D    
C49   O67   A    
C127  H12   S    
C15   O64   D    
C97   C113  A    
C8    H32   S    
C67   C122  S    
O26   Zn2   S    
C72   C119  S    
C52   C53   S    
C70   C125  S    
C10   O60   D    
C3    O52   D    
O42   Zn1   S    
C20   C94   S    
C84   C114  A    
O48   Zn13  S    
C48   C96   S    
C12   C87   S    
C32   O82   D    
C126  H1    S    
C28   H20   S    
C54   O11   A    
C31   O81   D    
O3    Zn6   S    
C58   O16   A    
C34   C43   S    
C76   C123  A    
C30   O80   D    
O37   Zn14  S    
C126  O49   D    
C73   C90   A    
O1    Zn8   S    
C25   H17   S    
C91   C108  A    
C60   O47   A    
O38   Zn9   S    
C98   C101  A    
C21   C95   S    
O24   Zn4   S    
O12   Zn7   S    
C47   C107  S    
C69   C124  S    
C18   C92   S    
C26   C100  S    
O4    Zn5   S    
C1    C55   S    
O23   Zn6   S    
C101  C117  A    
C2    C41   T    
O45   Zn8   S    
C68   C123  S    
O22   Zn3   S    
C59   O17   A    
O16   Zn6   S    
C31   H24   S    
C35   C85   T    
C9    O59   D    
C71   O36   A    
C38   C39   T    
C62   C109  S    
O56   Zn7   S    
C73   C125  A    
C5    O54   D    
C99   C115  A    
C40   C42   T    
C65   C120  S    
C105  C122  A    
C75   C127  S    
C1    C118  T    
O1    Zn12  S    
O27   Zn7   S    
C41   C54   S    
C49   O3    A    
C29   H21   S    
C51   O5    A    
O39   Zn1   S    
C61   O48   A    
C94   C104  A    
C32   H25   S    
C38   C118  S    
O84   Zn4   S    
C53   O6    A    
C23   C98   S    
C15   H7    S    
C77   C87   A    
C27   H19   S    
C6    C80   S    
C75   C89   A    
C30   C104  S    
C60   C115  S    
C17   H9    S    
C95   C114  A    
C90   C109  A    
O43   Zn9   S    
C37   C46   S    
C3    C77   S    
C59   C114  S    
C14   C88   S    
C29   O79   D    
C19   H11   S    
C67   O25   A    
C51   O9    A    
O40   Zn10  S    
O67   Zn2   S    
O20   Zn2   S    
