data_mof_unit_20025.cif
_audit_creation_date              2012-12-10T18:54:26-0500
_audit_creation_method            fapswitch 2.2
_symmetry_space_group_name_H-M    P1
_symmetry_Int_Tables_number       1
_space_group_crystal_system       triclinic
_cell_length_a                    10.752805
_cell_length_b                    9.947934
_cell_length_c                    22.377428
_cell_angle_alpha                 91.20461
_cell_angle_beta                  90.528794
_cell_angle_gamma                 90.295656
_cell_volume                      2393.00781639

loop_
_atom_site_label
_atom_site_type_symbol
_atom_type_description
_atom_site_fract_x
_atom_site_fract_y
_atom_site_fract_z
_atom_type_partial_charge
Br1   Br    Br    0.033608 0.441619 0.079504 -0.375281
Br2   Br    Br    0.685272 0.055330 0.911799 -0.368622
Br3   Br    Br    0.736774 0.395877 0.187075 -0.355643
Br4   Br    Br    0.216127 0.637693 0.793690 -0.382756
Br5   Br    Br    0.739049 0.356113 0.335337 -0.406974
Br6   Br    Br    0.224191 0.591221 0.645747 -0.410043
Br7   Br    Br    0.269157 0.643308 0.327655 -0.423073
Br8   Br    Br    0.741914 0.505995 0.692099 -0.481181
C1    C     C_R   0.260212 0.499537 0.499049 1.041605
C2    C     C_R   0.572402 0.486451 0.716401 0.092968
C3    C     C_R   0.389238 0.512521 0.228999 0.523010
C4    C     C_R   0.545681 0.461061 0.776180 0.526286
C5    C     C_R   0.467002 0.412558 0.202534 -0.103794
C6    C     C_R   0.419526 0.443328 0.793554 -0.121157
C7    C     C_R   0.063973 0.389406 0.523974 0.369526
C8    C     C_R   0.935406 0.606286 0.473751 0.333534
C9    C     C_R   0.935185 0.394217 0.528563 0.379423
C10   C     C_R   0.063686 0.608893 0.475622 0.384468
C11   C     C_R   0.872047 0.500506 0.501152 -0.349548
C12   C     C_R   0.739571 0.500277 0.500608 1.005795
C13   C     C_R   0.127282 0.498833 0.499229 -0.363824
C14   C     C_R   0.465781 0.075342 0.550064 0.339959
C15   C     C_R   0.536093 0.924518 0.450315 0.389826
C16   C     C_R   0.526237 0.068359 0.449100 0.382175
C17   C     C_R   0.474076 0.931476 0.550974 0.341011
C18   C     C_R   0.500283 0.498049 0.388279 0.973298
C19   C     C_R   0.497284 0.501592 0.611618 0.994134
C20   C     C_R   0.471727 0.271178 0.867070 0.659259
C21   C     C_R   0.310743 0.348448 0.125150 0.653940
C22   C     C_R   0.277602 0.373217 0.875117 0.612146
C23   C     C_R   0.583523 0.393964 0.231334 0.280953
C24   C     C_R   0.506666 0.253056 0.117036 0.612093
C25   C     C_R   0.275381 0.357105 0.937328 -0.169570
C26   C     C_R   0.494545 0.238466 0.054463 -0.166142
C27   C     C_R   0.380735 0.300149 0.964580 -0.123717
C28   C     C_R   0.389179 0.295563 0.027132 -0.119068
C29   C     C_R   0.475029 0.243024 0.928670 -0.156613
C30   C     C_R   0.290224 0.342715 0.062890 -0.164858
C31   C     C_R   0.173535 0.398607 0.972668 0.466179
C32   C     C_R   0.583918 0.171429 0.018824 0.449944
C33   C     C_R   0.178792 0.386465 0.035186 0.200298
C34   C     C_R   0.329856 0.510024 0.758216 0.284624
C35   C     C_R   0.570570 0.167437 0.956137 0.224464
C36   C     C_3   0.083323 0.593791 0.944566 -0.110540
C37   C     C_3   0.787103 0.197378 0.045560 -0.043754
C38   C     C_3   0.364199 0.674444 0.159988 -0.205032
C39   C     C_3   0.641397 0.558482 0.857322 -0.159916
C40   C     C_3   0.122266 0.172661 0.507591 -0.199106
C41   C     C_3   0.860499 0.687879 0.385996 -0.045690
C42   C     C_3   0.907003 0.268755 0.614038 -0.092693
C43   C     C_3   0.128979 0.827037 0.483685 -0.150784
C44   C     C_3   0.455909 0.146843 0.649382 -0.068626
C45   C     C_R   0.594213 0.419370 0.292992 0.172478
C46   C     C_3   0.558939 0.857967 0.350731 -0.167197
C47   C     C_3   0.412549 0.141220 0.371081 -0.234240
C48   C     C_3   0.587211 0.856443 0.628780 -0.173276
C49   C     C_R   0.354230 0.527656 0.697457 0.197956
C50   C     C_R   0.499098 0.489175 0.323059 -0.358011
C51   C     C_R   0.474698 0.504532 0.675772 -0.329720
C52   C     C_R   0.399747 0.542024 0.290173 0.104744
H1    H     H_    0.173020 0.623648 0.924139 0.156547
H2    H     H_    0.558544 0.553917 0.886606 0.126448
H3    H     H_    0.644709 0.656354 0.834084 0.176571
H4    H     H_    0.725043 0.553329 0.886560 0.210341
H5    H     H_    0.184680 0.093697 0.524546 0.179192
H6    H     H_    0.154508 0.199193 0.462175 0.138745
H7    H     H_    0.026686 0.129930 0.504827 0.177060
H8    H     H_    0.846619 0.785494 0.363907 0.198115
H9    H     H_    0.776590 0.625540 0.376818 0.163915
H10   H     H_    0.943858 0.640245 0.365389 0.186330
H11   H     H_    0.824114 0.241393 0.640383 0.183890
H12   H     H_    0.076579 0.640414 0.989945 0.160655
H13   H     H_    0.951656 0.358308 0.636215 0.209183
H14   H     H_    0.970902 0.181693 0.615615 0.192122
H15   H     H_    0.198220 0.897374 0.465095 0.136749
H16   H     H_    0.158263 0.806226 0.530475 0.179219
H17   H     H_    0.037228 0.877625 0.483398 0.181220
H18   H     H_    0.557414 0.168074 0.646558 0.130692
H19   H     H_    0.435745 0.054174 0.674171 0.198255
H20   H     H_    0.414906 0.229499 0.676527 0.172031
H21   H     H_    0.456626 0.844045 0.349948 0.174148
H22   H     H_    0.598305 0.772390 0.324732 0.159753
H23   H     H_    0.007211 0.635225 0.916801 0.216737
H24   H     H_    0.588088 0.949986 0.327439 0.217552
H25   H     H_    0.368171 0.041498 0.363353 0.116852
H26   H     H_    0.417533 0.191122 0.327294 0.205642
H27   H     H_    0.350468 0.201724 0.400501 0.168823
H28   H     H_    0.630894 0.955723 0.638564 0.104171
H29   H     H_    0.649988 0.799266 0.598337 0.191207
H30   H     H_    0.582160 0.802115 0.671493 0.206918
H31   H     H_    0.860508 0.156554 0.075117 0.221499
H32   H     H_    0.762876 0.299248 0.063184 0.177430
H33   H     H_    0.826933 0.206084 0.000191 0.178512
H34   H     H_    0.422598 0.622382 0.125961 0.139494
H35   H     H_    0.421769 0.746174 0.187480 0.158873
H36   H     H_    0.293741 0.733822 0.135638 0.207734
N1    N     N_R   0.388371 0.363151 0.845756 -0.336960
N2    N     N_R   0.429728 0.339716 0.147287 -0.336016
N3    N     N_R   0.500000 0.857200 0.500000 -0.199670
N4    N     N_R   0.500000 0.142800 0.500000 -0.196329
O1    O     O_R   0.316770 0.614620 0.500000 -0.569564
O2    O     O_2   0.214632 0.355543 0.163186 -0.423478
O3    O     O_2   0.170522 0.387021 0.844422 -0.427921
O4    O     O_2   0.586681 0.175372 0.147223 -0.460622
O5    O     O_3   0.068614 0.452727 0.946353 -0.546999
O6    O     O_3   0.684294 0.108394 0.045128 -0.558910
O7    O     O_3   0.301779 0.581907 0.196188 -0.513428
O8    O     O_3   0.643823 0.449099 0.816204 -0.521998
O9    O     O_3   0.128906 0.283274 0.547961 -0.548777
O10   O     O_3   0.872823 0.712260 0.448088 -0.577968
O11   O     O_3   0.868347 0.290505 0.554474 -0.604322
O12   O     O_R   0.683230 0.385380 0.500000 -0.546511
O13   O     O_3   0.126892 0.710172 0.446962 -0.545812
O14   O     O_3   0.396804 0.144407 0.592851 -0.548160
O15   O     O_3   0.608973 0.855418 0.409101 -0.551769
O16   O     O_3   0.534546 0.132026 0.395310 -0.537588
O17   O     O_3   0.465169 0.867508 0.604692 -0.555241
O18   O     O_R   0.683230 0.614620 0.500000 -0.578219
O19   O     O_R   0.316770 0.385380 0.500000 -0.587558
O20   O     O_R   0.499970 0.614690 0.416160 -0.568508
O21   O     O_R   0.500030 0.385310 0.583840 -0.577432
O22   O     O_R   0.500030 0.614690 0.583840 -0.568232
O23   O     O_R   0.499970 0.385310 0.416160 -0.568877
O24   O     O_2   0.549698 0.209271 0.828792 -0.467044
Zn1   Zn    Zn3+2 0.500000 0.653120 0.500000 1.050651
Zn2   Zn    Zn3+2 0.500000 0.346880 0.500000 1.054990

loop_
_geom_bond_atom_site_label_1
_geom_bond_atom_site_label_2
_ccdc_geom_bond_type
C20   N1    A    
C15   N3    A    
C47   H25   S    
C41   H8    S    
C10   C13   A    
C48   O17   S    
C7    O9    S    
C11   C12   S    
C36   H23   S    
C37   H33   S    
C39   H2    S    
C46   H24   S    
C19   O21   A    
C8    O10   S    
C31   C33   A    
C36   O5    S    
C22   N1    A    
C25   C31   A    
C21   N2    A    
N4    Zn2   S    
Br5   C45   S    
C27   C29   A    
C43   H15   S    
C42   H14   S    
C39   H3    S    
C48   H28   S    
C47   O16   S    
C50   C52   A    
C34   C49   A    
C7    C9    A    
C5    N2    S    
C37   H32   S    
C9    C11   A    
C12   O12   A    
C17   N3    A    
C32   C35   A    
C38   H35   S    
C27   C28   A    
C14   C17   A    
C22   O3    S    
O1    Zn1   S    
C15   C16   A    
C24   O4    S    
O18   Zn1   S    
C40   H5    S    
C44   H19   S    
O12   Zn2   S    
C6    C34   A    
C48   H30   S    
C40   O9    S    
C1    O1    A    
C41   H9    S    
C38   O7    S    
Br6   C49   S    
C44   H18   S    
C9    O11   S    
C10   O13   S    
C12   O18   A    
C19   O22   A    
C14   N4    A    
C21   C30   A    
C43   H16   S    
C30   C33   A    
N3    Zn1   S    
C42   H13   S    
C39   H4    S    
C4    O8    S    
O20   Zn1   S    
O23   Zn2   S    
C24   C26   A    
C29   C35   A    
C42   H11   S    
C43   H17   S    
C38   H34   S    
C7    C13   A    
Br2   C35   S    
C46   O15   S    
C43   O13   S    
C23   C45   A    
Br3   C23   S    
C18   C50   S    
C2    C4    A    
Br8   C2    S    
C48   H29   S    
C4    C6    A    
C16   O16   S    
C41   H10   S    
C3    O7    S    
C1    O19   A    
C26   C32   A    
C18   O23   A    
C3    C52   A    
Br7   C52   S    
C46   H22   S    
C37   O6    S    
C6    N1    S    
C32   O6    S    
Br1   C33   S    
C31   O5    S    
C22   C25   A    
C16   N4    A    
C5    C23   A    
C18   O20   A    
C17   O17   S    
C45   C50   A    
C20   O24   S    
C44   O14   S    
C36   H1    S    
O22   Zn1   S    
C28   C30   A    
C2    C51   A    
O21   Zn2   S    
C19   C51   S    
C3    C5    A    
C1    C13   S    
Br4   C34   S    
C20   C29   A    
C47   H26   S    
C8    C11   A    
C42   O11   S    
C25   C27   A    
C24   N2    A    
C21   O2    S    
C36   H12   S    
C26   C28   A    
C40   H7    S    
C47   H27   S    
C37   H31   S    
C49   C51   A    
C15   O15   S    
O19   Zn2   S    
C14   O14   S    
C38   H36   S    
C8    C10   A    
C39   O8    S    
C40   H6    S    
C44   H20   S    
C46   H21   S    
C41   O10   S    
