data_mof_unit_59279.cif
_audit_creation_date              2013-03-05T16:12:51-0500
_audit_creation_method            fapswitch 2.2
_symmetry_space_group_name_H-M    P1
_symmetry_Int_Tables_number       1
_space_group_crystal_system       triclinic
_cell_length_a                    10.704882
_cell_length_b                    9.791801
_cell_length_c                    27.726973
_cell_angle_alpha                 90.788793
_cell_angle_beta                  89.864936
_cell_angle_gamma                 89.943548
_cell_volume                      2906.05837244

loop_
_atom_site_label
_atom_site_type_symbol
_atom_site_description
_atom_site_fract_x
_atom_site_fract_y
_atom_site_fract_z
_atom_type_partial_charge
O1    O     O_R   0.316770 0.614620 0.500000 -0.628793
O2    O     O_R   0.683230 0.385380 0.500000 -0.628414
O3    O     O_R   0.683230 0.614620 0.500000 -0.626222
O4    O     O_R   0.316770 0.385380 0.500000 -0.626472
C1    C     C_R   0.259742 0.500043 0.499969 0.875606
C2    C     C_R   0.740257 0.499958 0.500040 0.876235
O5    O     O_R   0.500030 0.614650 0.428760 -0.622344
O6    O     O_R   0.499970 0.385350 0.571240 -0.621646
O7    O     O_R   0.499970 0.614650 0.571240 -0.626023
O8    O     O_R   0.500030 0.385350 0.428760 -0.624961
C3    C     C_R   0.500376 0.499060 0.405924 0.905442
C4    C     C_R   0.499489 0.501056 0.594060 0.906316
Zn1   Zn    Zn3+2 0.500000 0.653120 0.500000 0.950465
Zn2   Zn    Zn3+2 0.500000 0.346880 0.500000 0.951420
C5    C     C_R   0.394111 0.512261 0.178394 0.514243
C6    C     C_R   0.611470 0.505494 0.821827 0.504018
O9    O     O_2   0.289181 0.530853 0.204761 -0.522390
O10   O     O_2   0.716291 0.482522 0.795817 -0.519655
N1    N     N_R   0.504957 0.491825 0.201404 -0.347515
N2    N     N_R   0.499832 0.518708 0.798636 -0.348437
C7    C     C_R   0.613526 0.469390 0.176777 0.593361
C8    C     C_R   0.391118 0.541708 0.823180 0.609964
C9    C     C_R   0.492063 0.616592 0.277795 -0.190492
C10   C     C_R   0.520986 0.390879 0.722890 -0.175594
C11   C     C_R   0.489657 0.618764 0.327823 -0.209711
C12   C     C_R   0.521568 0.385912 0.672812 -0.216609
C13   C     C_R   0.516635 0.372256 0.328021 -0.317552
C14   C     C_R   0.474405 0.628534 0.671176 -0.326667
C15   C     C_R   0.517241 0.369528 0.277687 0.531837
C16   C     C_R   0.476965 0.634981 0.721510 0.549866
C17   C     C_R   0.506437 0.492681 0.252777 0.220361
C18   C     C_R   0.498013 0.514571 0.747201 0.213382
C19   C     C_R   0.502261 0.496518 0.101545 -0.125331
C20   C     C_R   0.504372 0.531471 0.898491 -0.137433
C21   C     C_R   0.389702 0.513719 0.127751 -0.107338
C22   C     C_R   0.616792 0.515651 0.872374 -0.110716
C23   C     C_R   0.276475 0.528350 0.102729 0.475271
C24   C     C_R   0.730782 0.517668 0.897354 0.502748
C25   C     C_R   0.613960 0.469860 0.126416 -0.097794
C26   C     C_R   0.391735 0.550323 0.873489 -0.086848
C27   C     C_R   0.501854 0.496638 0.353252 -0.100069
C28   C     C_R   0.498573 0.504827 0.646703 -0.097155
H1    H     H_    0.528477 0.277377 0.347131 0.173481
H2    H     H_    0.452108 0.719962 0.651374 0.170022
C29   C     C_R   0.390797 0.549302 0.975253 -0.024924
C30   C     C_R   0.617164 0.486066 0.024778 -0.045186
C31   C     C_R   0.618371 0.507097 0.974229 0.006571
C32   C     C_R   0.389767 0.530548 0.025902 0.007349
C33   C     C_R   0.504368 0.528632 0.949538 0.011156
C34   C     C_R   0.503302 0.505583 0.050572 0.013669
C35   C     C_R   0.284637 0.595453 0.949036 0.472636
C36   C     C_R   0.723566 0.438444 0.050671 0.460305
C37   C     C_R   0.283674 0.584542 0.898927 -0.243734
C38   C     C_R   0.722564 0.438918 0.100742 -0.237536
O11   O     O_2   0.282884 0.555492 0.798837 -0.553695
O12   O     O_2   0.720674 0.447628 0.201103 -0.546651
C39   C     C_R   0.277474 0.526494 0.052506 -0.293823
C40   C     C_R   0.730611 0.515611 0.947594 -0.314597
H3    H     H_    0.540301 0.289461 0.654594 0.164828
H4    H     H_    0.478118 0.715838 0.346515 0.168464
H5    H     H_    0.538437 0.298686 0.742955 0.155373
H6    H     H_    0.482557 0.711102 0.258305 0.158845
H7    H     H_    0.198850 0.610512 0.880107 0.191529
H8    H     H_    0.806695 0.408142 0.119342 0.206505
H9    H     H_    0.187865 0.516136 0.035355 0.230845
H10   H     H_    0.820217 0.526007 0.964800 0.221868
C41   C     C_R   0.064116 0.378232 0.490036 -0.187350
C42   C     C_R   0.935882 0.621760 0.510001 -0.187479
C43   C     C_R   0.936231 0.378157 0.490111 -0.187827
C44   C     C_R   0.063769 0.621836 0.509927 -0.188512
H11   H     H_    0.113043 0.283681 0.481947 0.154105
H12   H     H_    0.886953 0.716310 0.518090 0.154156
H13   H     H_    0.887583 0.283570 0.482078 0.158839
H14   H     H_    0.112420 0.716421 0.517960 0.158497
C45   C     C_R   0.872603 0.499929 0.500073 -0.013738
C46   C     C_R   0.127396 0.500068 0.499956 -0.013510
C47   C     C_R   0.576053 0.073217 0.530567 -0.072758
C48   C     C_R   0.423946 0.926782 0.469433 -0.072518
C49   C     C_R   0.423958 0.071029 0.469429 -0.075693
C50   C     C_R   0.576036 0.928970 0.530574 -0.077719
H15   H     H_    0.636716 0.129097 0.554939 0.126321
H16   H     H_    0.363284 0.870902 0.445062 0.126837
H17   H     H_    0.363322 0.125171 0.445054 0.122904
H18   H     H_    0.636665 0.874828 0.554951 0.123217
N3    N     N_R   0.500000 0.857200 0.500000 -0.079327
N4    N     N_R   0.500000 0.142800 0.500000 -0.079154
O13   O     O_3   0.537899 0.248545 0.252620 -0.627934
C51   C     C_3   0.425288 0.173842 0.250491 0.058080
H19   H     H_    0.349558 0.235760 0.233904 0.167796
H20   H     H_    0.396020 0.142349 0.287291 0.136434
C52   C     C_3   0.446066 0.045612 0.219375 -0.316394
H21   H     H_    0.475054 0.075909 0.182506 0.229943
H22   H     H_    0.522178 0.983409 0.235226 0.228601
C53   C     C_3   0.327940 0.958829 0.215868 -0.954956
H23   H     H_    0.298618 0.925019 0.252258 0.270858
H24   H     H_    0.346586 0.866917 0.193033 0.266793
H25   H     H_    0.251017 0.018059 0.199287 0.273480
O14   O     O_3   0.445227 0.754226 0.746159 -0.627118
C54   C     C_3   0.537918 0.855575 0.739960 0.058990
H26   H     H_    0.492016 0.956469 0.745398 0.180270
H27   H     H_    0.579103 0.856423 0.703001 0.118070
C55   C     C_3   0.641158 0.840627 0.777717 -0.383084
H28   H     H_    0.598789 0.832907 0.814236 0.232266
H29   H     H_    0.694775 0.745822 0.769956 0.239254
C56   C     C_3   0.730753 0.961692 0.777125 -0.917861
H30   H     H_    0.775460 0.970101 0.741088 0.268263
H31   H     H_    0.804840 0.946880 0.804539 0.266150
H32   H     H_    0.679988 0.057998 0.785810 0.270248
O15   O     O_3   0.163308 0.531876 0.127110 -0.554805
C57   C     C_3   0.107400 0.661540 0.121350 0.102526
H33   H     H_    0.067412 0.670487 0.084522 0.147275
H34   H     H_    0.175553 0.745995 0.127829 0.125131
C58   C     C_3   0.001829 0.678753 0.157720 -0.701813
H35   H     H_    0.039199 0.673235 0.194977 0.279269
H36   H     H_    0.956103 0.779515 0.152958 0.185463
H37   H     H_    0.931260 0.597128 0.152354 0.265672
O16   O     O_3   0.843244 0.520789 0.872723 -0.552225
C59   C     C_3   0.893955 0.654031 0.875509 0.061578
H38   H     H_    0.956619 0.661762 0.907334 0.161125
H39   H     H_    0.821528 0.736105 0.878373 0.115513
C60   C     C_3   0.969889 0.680210 0.830123 -0.702306
H40   H     H_    0.906906 0.687746 0.798548 0.263584
H41   H     H_    0.022553 0.777326 0.834200 0.190066
H42   H     H_    0.036432 0.595125 0.823410 0.294812
O17   O     O_3   0.181244 0.652986 0.971560 -0.675657
C61   C     C_3   0.181805 0.796710 0.966264 0.050403
H43   H     H_    0.083553 0.832299 0.969411 0.162426
H44   H     H_    0.215351 0.829839 0.930146 0.136746
C62   C     C_3   0.258479 0.865751 0.006366 -0.355114
H45   H     H_    0.223349 0.832615 0.042044 0.215638
H46   H     H_    0.358066 0.834980 0.002982 0.218161
C63   C     C_3   0.249867 0.021071 0.003810 -0.934400
H47   H     H_    0.286677 0.056967 0.968708 0.267096
H48   H     H_    0.306151 0.067911 0.033273 0.266449
H49   H     H_    0.151367 0.054956 0.008062 0.269240
O18   O     O_3   0.828941 0.385420 0.028295 -0.659047
C64   C     C_3   0.807166 0.248570 0.013305 0.090707
H50   H     H_    0.854107 0.233256 0.977853 0.178583
H51   H     H_    0.706447 0.223387 0.007533 0.127007
C65   C     C_3   0.864758 0.149989 0.049473 -0.339214
H52   H     H_    0.964803 0.176128 0.054947 0.240653
H53   H     H_    0.815712 0.160300 0.084692 0.224708
C66   C     C_3   0.855071 0.002051 0.031781 -0.978103
H54   H     H_    0.755536 0.972298 0.027568 0.269439
H55   H     H_    0.899393 0.933565 0.058389 0.269107
H56   H     H_    0.903830 0.988855 0.996623 0.255212

loop_
_geom_bond_atom_site_label_1
_geom_bond_atom_site_label_2
_geom_bond_distance
_ccdc_geom_bond_type
C66   H56   1.110603 S    
C49   H17   1.081846 S    
O13   C51   1.411606 S    
C10   H5    1.083206 S    
C13   C15   1.395500 A    
C56   H30   1.111002 S    
C65   C66   1.526677 S    
C50   H18   1.081850 S    
O3    C2    1.277470 A    
N1    C17   1.424430 S    
C32   C39   1.409755 A    
C31   C33   1.417723 A    
C42   C45   1.396848 A    
O5    C3    1.289274 A    
C56   H31   1.110612 S    
C19   C25   1.407715 A    
C20   C26   1.405539 A    
N1    C7    1.362692 A    
C65   H53   1.110924 S    
C58   H35   1.110655 S    
C63   H49   1.110611 S    
C29   C32   1.418816 A    
C25   C38   1.392703 A    
C29   C35   1.426899 A    
C66   H54   1.110906 S    
C30   C36   1.429082 A    
C55   C56   1.525813 S    
C66   H55   1.110739 S    
C14   C28   1.403775 A    
C13   C27   1.404789 A    
C59   H38   1.111492 S    
C60   H42   1.109108 S    
O7    Zn1   2.015951 S    
C24   C40   1.393442 A    
C24   O16   1.383280 S    
C40   H10   1.076593 S    
C9    H6    1.082885 S    
C63   H47   1.110862 S    
C44   H14   1.083717 S    
C4    C28   1.459602 S    
C43   H13   1.083718 S    
C11   H4    1.083176 S    
C29   C33   1.420879 A    
C12   H3    1.083205 S    
C23   O15   1.386060 S    
O3    Zn1   1.996990 S    
C6    N2    1.365302 A    
C53   H24   1.110886 S    
C62   C63   1.526188 S    
C32   C34   1.418717 A    
O2    C2    1.277773 A    
C5    C21   1.405333 A    
C64   C65   1.531657 S    
C36   C38   1.388291 A    
C59   H39   1.118038 S    
C56   H32   1.111165 S    
C60   H41   1.110534 S    
C35   O17   1.385011 S    
C2    C45   1.416753 S    
C65   H52   1.111643 S    
Zn2   N4    1.998311 S    
O8    Zn2   2.015956 S    
C11   C27   1.402694 A    
C52   H21   1.111935 S    
C48   C49   1.412435 A    
O4    C1    1.277472 A    
C61   C62   1.533542 S    
C19   C34   1.417326 A    
C14   H2    1.083342 S    
C57   H33   1.112707 S    
C58   H36   1.110604 S    
C42   H12   1.083766 S    
C35   C37   1.392065 A    
C59   C60   1.521357 S    
C9    C17   1.397487 A    
C5    N1    1.364445 A    
C10   C18   1.399260 A    
C50   N3    1.364919 A    
C52   H22   1.111792 S    
C64   H51   1.117652 S    
C48   H16   1.081808 S    
C54   H26   1.111215 S    
C7    C25   1.396409 A    
C51   C52   1.529392 S    
C47   H15   1.081811 S    
O6    C4    1.290054 A    
C8    C26   1.396351 A    
C53   H23   1.110889 S    
C6    O10   1.349451 S    
C62   H46   1.110943 S    
C55   H29   1.109220 S    
C57   C58   1.520541 S    
C60   H40   1.109496 S    
C48   N3    1.365069 A    
C42   C44   1.369005 A    
C54   H27   1.114760 S    
C51   H20   1.114340 S    
C47   N4    1.365077 A    
C26   C37   1.391674 A    
C44   C46   1.396583 A    
O17   C61   1.416979 S    
C36   O18   1.383328 S    
O1    C1    1.277775 A    
O1    Zn1   1.997719 S    
N2    C8    1.363727 A    
C61   H44   1.115584 S    
C12   C28   1.401407 A    
C62   H45   1.110251 S    
N2    C18   1.426323 S    
C47   C50   1.412437 A    
C5    O9    1.349596 S    
C30   C34   1.423161 A    
C30   C31   1.419438 A    
C20   C33   1.416020 A    
O6    Zn2   2.005763 S    
C21   C23   1.406191 A    
C10   C12   1.388693 A    
C39   H9    1.075919 S    
O18   C64   1.417202 S    
C7    O12   1.350220 S    
C8    O11   1.349845 S    
C64   H50   1.111164 S    
C16   O14   1.386369 S    
C53   H25   1.110861 S    
C58   H37   1.109084 S    
C1    C46   1.416754 S    
C22   C24   1.404547 A    
C15   C17   1.402724 A    
O15   C57   1.414291 S    
C6    C22   1.404969 A    
C31   C40   1.411984 A    
C16   C18   1.404154 A    
C37   H7    1.080247 S    
C38   H8    1.083423 S    
C61   H43   1.110539 S    
C14   C16   1.396503 A    
C19   C21   1.414327 A    
C20   C22   1.410342 A    
C43   C45   1.396577 A    
C41   H11   1.083766 S    
C9    C11   1.387159 A    
O4    Zn2   1.996990 S    
C55   H28   1.112077 S    
O2    Zn2   1.997719 S    
O7    C4    1.287223 A    
C57   H34   1.116307 S    
C15   O13   1.382543 S    
O8    C3    1.288425 A    
C13   H1    1.083310 S    
O5    Zn1   2.005769 S    
C54   C55   1.532351 S    
C51   H19   1.115690 S    
C63   H48   1.110525 S    
O14   C54   1.415897 S    
C3    C27   1.460338 S    
Zn1   N3    1.998311 S    
C41   C46   1.396842 A    
C41   C43   1.368986 A    
O16   C59   1.414801 S    
C49   N4    1.364920 A    
C23   C39   1.392427 A    
C52   C53   1.526757 S    
