data_mof_unit_45638.cif
_audit_creation_date              2012-10-26T18:25:40-0400
_audit_creation_method            fapswitch 2.2
_symmetry_space_group_name_H-M    P1
_symmetry_Int_Tables_number       1
_space_group_crystal_system       triclinic
_cell_length_a                    7.432869
_cell_length_b                    8.752246
_cell_length_c                    11.174902
_cell_angle_alpha                 88.361026
_cell_angle_beta                  73.198445
_cell_angle_gamma                 102.445023
_cell_volume                      676.369563723

loop_
_atom_site_label
_atom_site_type_symbol
_atom_type_description
_atom_site_fract_x
_atom_site_fract_y
_atom_site_fract_z
_atom_type_partial_charge
C1    C     C_R   0.454012 0.200472 0.502025 0.564040
C2    C     C_2   0.567284 0.962925 0.510629 0.119885
C3    C     C_3   0.136907 0.369016 0.173522 -0.274028
C4    C     C_3   0.862933 0.631721 0.826552 -0.266098
C5    C     C_3   0.342290 0.967813 0.302428 -0.316599
C6    C     C_3   0.669051 0.050022 0.691383 -0.310920
C7    C     C_R   0.546484 0.799242 0.497717 0.599973
C8    C     C_R   0.424881 0.490350 0.741297 0.538387
C9    C     C_R   0.575111 0.509623 0.258710 0.538877
C10   C     C_2   0.387232 0.489360 0.875303 -0.103932
C11   C     C_2   0.612725 0.510564 0.124719 -0.104645
C12   C     C_2   0.525174 0.493938 0.932173 0.125833
C13   C     C_2   0.474825 0.506245 0.067847 0.126018
C14   C     C_2   0.437108 0.036655 0.486805 0.101242
Cu1   Cu    Cu3+1 0.688910 0.517800 0.485820 0.920962
Cu2   Cu    Cu3+1 0.311090 0.482200 0.514180 0.922240
H1    H     H_    0.759329 0.507803 0.071971 0.107465
H2    H     H_    0.905910 0.658196 0.723143 0.198208
H3    H     H_    0.992639 0.621343 0.853353 0.141410
H4    H     H_    0.809076 0.731485 0.871800 0.128422
H5    H     H_    0.155659 0.985830 0.476558 0.274051
H6    H     H_    0.221323 0.899193 0.272553 0.130540
H7    H     H_    0.470514 0.917780 0.264991 0.140831
H8    H     H_    0.375626 0.092167 0.262568 0.142146
H9    H     H_    0.829556 0.123893 0.500385 0.266465
H10   H     H_    0.802047 0.092022 0.718917 0.131609
H11   H     H_    0.590996 0.933744 0.744383 0.149770
H12   H     H_    0.240547 0.491868 0.928067 0.107769
H13   H     H_    0.576183 0.135207 0.716455 0.139195
H14   H     H_    0.916542 0.373961 0.597759 0.232603
H15   H     H_    0.083390 0.626947 0.402946 0.248533
H16   H     H_    0.264271 0.607471 0.189135 0.255880
H17   H     H_    0.094462 0.342244 0.276880 0.184635
H18   H     H_    0.190201 0.269234 0.127919 0.126216
H19   H     H_    0.006983 0.379807 0.147164 0.143277
H20   H     H_    0.736276 0.393058 0.811002 0.252993
N1    N     N_2   0.027170 0.455360 0.535550 -0.278785
N2    N     N_2   0.972830 0.544640 0.464450 -0.270230
N3    N     N_2   0.282193 0.515792 0.134479 -0.528322
N4    N     N_2   0.717944 0.484788 0.865519 -0.530592
N5    N     N_2   0.287259 0.958279 0.438121 -0.515285
N6    N     N_2   0.721124 0.035726 0.557779 -0.529327
O1    O     O_R   0.622710 0.286400 0.490790 -0.520493
O2    O     O_R   0.377290 0.713600 0.509210 -0.485665
O3    O     O_R   0.303660 0.256330 0.514730 -0.511623
O4    O     O_R   0.696340 0.743670 0.485270 -0.488645
O5    O     O_R   0.600900 0.509520 0.671740 -0.494718
O6    O     O_R   0.399100 0.490480 0.328260 -0.495063
O7    O     O_R   0.281840 0.479450 0.695690 -0.516392
O8    O     O_R   0.718160 0.520550 0.304310 -0.518113

loop_
_geom_bond_atom_site_label_1
_geom_bond_atom_site_label_2
_ccdc_geom_bond_type
Cu2   O3    S    
H9    N6    S    
Cu1   N2    S    
C12   N4    S    
N1    N2    D    
Cu1   O4    S    
Cu1   O5    S    
C9    C11   S    
Cu2   O2    S    
C2    C7    S    
C5    H7    S    
H15   N2    S    
C3    H19   S    
Cu2   N1    S    
C4    H2    S    
Cu2   O6    S    
C8    O5    A    
Cu1   O1    S    
C7    O2    A    
Cu2   O7    S    
C11   C13   D    
C1    O3    A    
C6    H10   S    
C5    H8    S    
C10   C12   D    
C2    N6    S    
C14   N5    S    
H5    N5    S    
C5    H6    S    
Cu1   O8    S    
C2    C14   D    
C13   N3    S    
C3    H17   S    
C3    N3    S    
Cu1   Cu2   S    
C4    H4    S    
C7    O4    A    
C4    N4    S    
H20   N4    S    
C6    H13   S    
C12   C13   S    
C9    O6    A    
C8    C10   S    
C6    N6    S    
H16   N3    S    
C10   H12   S    
C5    N5    S    
C11   H1    S    
C1    C14   S    
C3    H18   S    
C4    H3    S    
C8    O7    A    
C1    O1    A    
C9    O8    A    
C6    H11   S    
H14   N1    S    
