data_mof_unit_19246.cif
_audit_creation_date              2012-12-10T20:49:10-0500
_audit_creation_method            fapswitch 2.2
_symmetry_space_group_name_H-M    P1
_symmetry_Int_Tables_number       1
_space_group_crystal_system       triclinic
_cell_length_a                    9.037987
_cell_length_b                    8.09215
_cell_length_c                    10.531128
_cell_angle_alpha                 89.995302
_cell_angle_beta                  85.738866
_cell_angle_gamma                 89.940279
_cell_volume                      768.082973595

loop_
_atom_site_label
_atom_site_type_symbol
_atom_type_description
_atom_site_fract_x
_atom_site_fract_y
_atom_site_fract_z
_atom_type_partial_charge
C1    C     C_R   0.218143 0.500295 0.496294 0.913933
C2    C     C_3   0.643872 0.508559 0.011011 0.568090
C3    C     C_3   0.474310 0.498517 0.880045 -0.107099
C4    C     C_3   0.523988 0.498645 0.121013 -0.104668
C5    C     C_1   0.065431 0.501274 0.494362 -0.210782
C6    C     C_1   0.935415 0.501009 0.495499 -0.199589
C7    C     C_3   0.133666 0.437309 0.111659 0.112161
C8    C     C_3   0.082544 0.256285 0.117926 -0.360281
C9    C     C_3   0.041724 0.199723 0.253971 -0.914428
C10   C     C_3   0.872893 0.530832 0.896655 0.109296
C11   C     C_3   0.892677 0.362228 0.827641 -0.382456
C12   C     C_R   0.782408 0.500146 0.498090 0.919326
C13   C     C_3   0.050941 0.327105 0.772787 -0.795342
C14   C     C_R   0.524763 0.499768 0.256853 0.890686
C15   C     C_R   0.475201 0.499756 0.743437 0.883670
C16   C     C_3   0.429382 0.628561 0.057619 -0.288994
C17   C     C_3   0.567957 0.367426 0.943685 -0.290283
C18   C     C_3   0.551667 0.640043 0.947187 -0.295284
C19   C     C_3   0.447674 0.356654 0.054645 -0.293639
C20   C     C_3   0.354889 0.486472 0.990648 0.548092
H1    H     H_    0.371094 0.735220 0.105259 0.169062
H2    H     H_    0.007695 0.067911 0.253716 0.263370
H3    H     H_    0.947292 0.273887 0.296263 0.273715
H4    H     H_    0.981133 0.590177 0.907646 0.214436
H5    H     H_    0.817230 0.619258 0.834722 0.098065
H6    H     H_    0.858823 0.258713 0.892057 0.215897
H7    H     H_    0.817960 0.359515 0.748607 0.203868
H8    H     H_    0.110449 0.442793 0.745115 0.252004
H9    H     H_    0.047968 0.245939 0.688006 0.247484
H10   H     H_    0.113955 0.259769 0.842819 0.274861
H11   H     H_    0.613410 0.254007 0.896508 0.159910
H12   H     H_    0.592716 0.757827 0.903434 0.164826
H13   H     H_    0.410972 0.238918 0.100714 0.171392
H14   H     H_    0.035950 0.518578 0.131362 0.195149
H15   H     H_    0.205858 0.463953 0.190613 0.122638
H16   H     H_    0.983575 0.241477 0.063646 0.247000
H17   H     H_    0.170356 0.173870 0.074387 0.212251
H18   H     H_    0.138380 0.211852 0.312418 0.279109
N1    N     N_1   0.500000 0.073640 0.500000 -0.039360
N2    N     N_1   0.500000 0.926360 0.500000 -0.039307
O1    O     O_R   0.285350 0.636850 0.500000 -0.614305
O2    O     O_3   0.798652 0.515479 0.020159 -0.679223
O3    O     O_R   0.714650 0.363150 0.500000 -0.623510
O4    O     O_R   0.714650 0.636850 0.500000 -0.612949
O5    O     O_R   0.285350 0.363150 0.500000 -0.625033
O6    O     O_R   0.499970 0.636850 0.313950 -0.622625
O7    O     O_R   0.500030 0.363150 0.686050 -0.623858
O8    O     O_R   0.500030 0.636850 0.686050 -0.622439
O9    O     O_R   0.499970 0.363150 0.313950 -0.625503
O10   O     O_3   0.199827 0.474952 0.987974 -0.683140
Zn1   Zn    Zn3+2 0.500000 0.682780 0.500000 0.977597
Zn2   Zn    Zn3+2 0.500000 0.317220 0.500000 0.966207

loop_
_geom_bond_atom_site_label_1
_geom_bond_atom_site_label_2
_ccdc_geom_bond_type
C4    C16   S    
C2    C4    S    
C13   H8    S    
C8    H16   S    
O7    Zn2   S    
C15   O7    A    
C10   O2    S    
N2    Zn1   S    
C19   C20   S    
O5    Zn2   S    
C11   H7    S    
C16   C20   S    
O9    Zn2   S    
N1    Zn2   S    
C3    C20   S    
C14   O6    A    
C2    C17   S    
C6    C12   S    
C11   C13   S    
C1    O5    A    
C16   H1    S    
C18   H12   S    
C15   O8    A    
C2    O2    S    
C1    C5    S    
O4    Zn1   S    
C1    O1    A    
C9    H18   S    
C17   C19   S    
C3    C17   S    
C12   O3    A    
C4    C14   S    
C5    C6    T    
C17   H11   S    
C7    H14   S    
O3    Zn2   S    
C14   O9    A    
C2    C18   S    
C8    H17   S    
C13   H10   S    
C7    C8    S    
C3    C15   S    
C10   H5    S    
C3    C18   S    
C16   C18   S    
C9    H2    S    
C10   C11   S    
C13   H9    S    
N1    N2    T    
C12   O4    A    
C20   O10   S    
C11   H6    S    
C10   H4    S    
C4    C19   S    
C7    H15   S    
O6    Zn1   S    
O1    Zn1   S    
O8    Zn1   S    
C9    H3    S    
C7    O10   S    
C19   H13   S    
C8    C9    S    
