data_mof_unit_48841.cif
_audit_creation_date              2012-12-10T18:47:46-0500
_audit_creation_method            fapswitch 2.2
_symmetry_space_group_name_H-M    P1
_symmetry_Int_Tables_number       1
_space_group_crystal_system       triclinic
_cell_length_a                    9.909709
_cell_length_b                    10.638326
_cell_length_c                    15.563017
_cell_angle_alpha                 91.067402
_cell_angle_beta                  67.380729
_cell_angle_gamma                 90.847882
_cell_volume                      1514.18010289

loop_
_atom_site_label
_atom_site_type_symbol
_atom_type_description
_atom_site_fract_x
_atom_site_fract_y
_atom_site_fract_z
_atom_type_partial_charge
Br1   Br    Br    0.055541 0.337637 0.136074 -0.505323
Br2   Br    Br    0.943595 0.666493 0.864754 -0.504059
Br3   Br    Br    0.791740 0.857450 0.345026 -0.443596
Br4   Br    Br    0.208289 0.142568 0.655009 -0.442689
Br5   Br    Br    0.229321 0.287981 0.372136 -0.448099
Br6   Br    Br    0.770837 0.712231 0.627673 -0.448734
C1    C     C_R   0.501879 0.739615 0.498408 0.933072
C2    C     C_R   0.379897 0.933108 0.560868 -0.213597
C3    C     C_R   0.496799 0.127961 0.501678 -0.141666
C4    C     C_R   0.503198 0.872041 0.498332 -0.141521
C5    C     C_R   0.957245 0.414506 0.447853 -0.133750
C6    C     C_R   0.042764 0.585501 0.552138 -0.134131
C7    C     C_R   0.100239 0.413930 0.447708 0.346098
C8    C     C_R   0.899788 0.586104 0.552258 0.346146
C9    C     C_R   0.407997 0.499947 0.675744 0.889386
C10   C     C_R   0.592001 0.500145 0.324264 0.889498
C11   C     C_R   0.349625 0.492815 0.776778 -0.059134
C12   C     C_R   0.498119 0.260385 0.501596 0.933264
C13   C     C_R   0.650346 0.508145 0.223292 -0.058633
C14   C     C_R   0.175902 0.413123 0.921482 -0.125490
C15   C     C_R   0.823387 0.589828 0.079087 -0.125889
C16   C     C_R   0.215356 0.435610 0.827052 -0.114922
C17   C     C_R   0.784157 0.566294 0.173361 -0.114421
C18   C     C_R   0.440329 0.531811 0.821408 -0.196217
C19   C     C_R   0.559760 0.469534 0.178496 -0.196635
C20   C     C_R   0.411688 0.498503 0.913156 0.074000
C21   C     C_R   0.587841 0.504353 0.087129 0.073842
C22   C     C_R   0.274293 0.441185 0.965000 0.076643
C23   C     C_R   0.339631 0.437420 0.098942 -0.206424
C24   C     C_R   0.725018 0.562099 0.035499 0.076476
C25   C     C_R   0.517612 0.518146 0.953232 0.022542
C26   C     C_R   0.481715 0.485389 0.047172 0.022562
C27   C     C_R   0.659473 0.566765 0.901662 -0.206811
C28   C     C_R   0.239102 0.412708 0.058548 0.244446
C29   C     C_R   0.760003 0.591288 0.942103 0.244519
C30   C     C_R   0.624104 0.937877 0.436748 0.298547
C31   C     C_R   0.375899 0.062128 0.563269 0.298503
C32   C     C_R   0.620101 0.066894 0.439145 -0.213588
H1    H     H_    0.465385 0.414826 0.218387 0.183514
H2    H     H_    0.288065 0.880307 0.608682 0.197167
H3    H     H_    0.926371 0.346235 0.406147 0.192634
H4    H     H_    0.073650 0.653789 0.593828 0.192491
H5    H     H_    0.535294 0.585460 0.781038 0.183421
H6    H     H_    0.856360 0.596050 0.207470 0.200520
H7    H     H_    0.142994 0.405712 0.793093 0.199841
H8    H     H_    0.070726 0.369483 0.958654 0.198713
H9    H     H_    0.928294 0.634076 0.042140 0.198893
H10   H     H_    0.300822 0.418086 0.172038 0.195239
H11   H     H_    0.698124 0.587006 0.828756 0.195613
H12   H     H_    0.711934 0.119695 0.391332 0.197116
N1    N     N_R   0.142780 0.500030 0.500020 -0.125244
N2    N     N_R   0.857220 0.499970 0.499980 -0.125196
O1    O     O_R   0.385370 0.683250 0.500010 -0.626592
O2    O     O_R   0.614630 0.316750 0.499990 -0.626517
O3    O     O_R   0.614700 0.683220 0.500000 -0.547619
O4    O     O_R   0.385300 0.316780 0.500000 -0.547656
O5    O     O_R   0.319830 0.500020 0.632250 -0.602269
O6    O     O_R   0.680170 0.499980 0.367750 -0.602024
O7    O     O_R   0.549160 0.499990 0.632240 -0.593329
O8    O     O_R   0.450840 0.500010 0.367760 -0.593275
Zn1   Zn    Zn3+2 0.346870 0.500020 0.500000 1.030105
Zn2   Zn    Zn3+2 0.653130 0.499980 0.500000 1.030237

loop_
_geom_bond_atom_site_label_1
_geom_bond_atom_site_label_2
_ccdc_geom_bond_type
Br2   C29   S    
O6    Zn2   S    
C1    C4    S    
C13   C17   A    
C25   C27   A    
O5    Zn1   S    
C32   H12   S    
C12   O4    A    
Br6   C8    S    
C5    C7    A    
C15   C24   A    
Br5   C7    S    
C11   C16   A    
N1    Zn1   S    
C1    O3    A    
C16   H7    S    
C30   C32   A    
C6    C8    A    
C22   C28   A    
C20   C25   A    
C10   O6    A    
C19   H1    S    
C21   C24   A    
C9    O5    A    
C14   C22   A    
C6    H4    S    
C9    O7    A    
Br3   C30   S    
C10   C13   S    
C24   C29   A    
C3    C31   A    
C3    C32   A    
C27   C29   A    
C14   C16   A    
Br1   C28   S    
C5    H3    S    
C23   C26   A    
C15   C17   A    
C13   C19   A    
C14   H8    S    
C11   C18   A    
C19   C21   A    
C2    C31   A    
C12   O2    A    
C23   H10   S    
C27   H11   S    
O3    Zn2   S    
C3    C12   S    
C6    N1    A    
Br4   C31   S    
O1    Zn1   S    
C2    C4    A    
C10   O8    A    
C9    C11   S    
C18   H5    S    
C1    O1    A    
O4    Zn1   S    
O2    Zn2   S    
O7    Zn2   S    
C4    C30   A    
C5    N2    A    
C2    H2    S    
C21   C26   A    
C7    N1    A    
C20   C22   A    
C23   C28   A    
N2    Zn2   S    
C8    N2    A    
C17   H6    S    
C25   C26   A    
C18   C20   A    
O8    Zn1   S    
C15   H9    S    
