data_mof_unit_7015.cif
_audit_creation_date              2012-12-10T18:44:25-0500
_audit_creation_method            fapswitch 2.2
_symmetry_space_group_name_H-M    P1
_symmetry_Int_Tables_number       1
_space_group_crystal_system       triclinic
_cell_length_a                    12.849571
_cell_length_b                    10.654637
_cell_length_c                    9.847059
_cell_angle_alpha                 90.227676
_cell_angle_beta                  97.998533
_cell_angle_gamma                 90.278092
_cell_volume                      1334.99076946

loop_
_atom_site_label
_atom_site_type_symbol
_atom_type_description
_atom_site_fract_x
_atom_site_fract_y
_atom_site_fract_z
_atom_type_partial_charge
C1    C     C_R   0.501685 0.260278 0.499988 0.873150
C2    C     C_R   0.701847 0.497130 0.527957 0.885881
C3    C     C_R   0.814373 0.489453 0.546860 -0.108268
C4    C     C_R   0.185627 0.510545 0.453141 -0.108268
C5    C     C_R   0.021504 0.600229 0.349189 -0.031769
C6    C     C_R   0.978496 0.399763 0.650808 -0.031770
C7    C     C_R   0.129951 0.586773 0.351823 -0.070392
C8    C     C_R   0.870047 0.413217 0.648170 -0.070385
C9    C     C_R   0.135274 0.446950 0.548197 -0.258325
C10   C     C_R   0.864727 0.553051 0.451807 -0.258327
C11   C     C_R   0.028669 0.461140 0.550171 0.105340
C12   C     C_R   0.498315 0.739722 0.500012 0.873150
C13   C     C_R   0.971332 0.538857 0.449831 0.105344
C14   C     C_R   0.571822 0.062121 0.427117 -0.003782
C15   C     C_R   0.428177 0.937879 0.572882 -0.003783
C16   C     C_R   0.568223 0.933168 0.427563 -0.227752
C17   C     C_R   0.431777 0.066831 0.572437 -0.227752
C18   C     C_1   0.815913 0.344023 0.744417 0.211712
C19   C     C_1   0.184082 0.655947 0.255557 0.211720
C20   C     C_1   0.962982 0.678050 0.244427 0.155449
C21   C     C_1   0.037015 0.321934 0.755565 0.155448
C22   C     C_1   0.649107 0.124310 0.356758 0.179389
C23   C     C_R   0.497323 0.872135 0.500311 -0.069250
C24   C     C_1   0.350891 0.875690 0.643239 0.179388
C25   C     C_R   0.502677 0.127864 0.499689 -0.069248
C26   C     C_R   0.568683 0.574182 0.084641 -0.042376
C27   C     C_R   0.431317 0.425818 0.915359 -0.042376
C28   C     C_R   0.568677 0.574100 0.940787 -0.050886
C29   C     C_R   0.431323 0.425899 0.059213 -0.050883
C30   C     C_R   0.298153 0.502869 0.472042 0.885882
H1    H     H_    0.818773 0.612366 0.377110 0.160654
H2    H     H_    0.181229 0.387638 0.622896 0.160656
H3    H     H_    0.621781 0.879993 0.373646 0.149686
H4    H     H_    0.378219 0.120007 0.626354 0.149686
H5    H     H_    0.623598 0.633562 0.149257 0.130234
H6    H     H_    0.376402 0.366438 0.850743 0.130233
H7    H     H_    0.623597 0.633329 0.896466 0.136340
H8    H     H_    0.376403 0.366671 0.103534 0.136339
N1    N     N_R   0.499970 0.499970 0.857200 -0.084953
N2    N     N_R   0.500030 0.500030 0.142800 -0.084953
N3    N     N_1   0.772755 0.288838 0.821067 -0.173097
N4    N     N_1   0.227237 0.711116 0.178892 -0.173097
N5    N     N_1   0.916400 0.739944 0.160980 -0.195514
N6    N     N_1   0.083594 0.260033 0.839007 -0.195512
N7    N     N_1   0.710941 0.174188 0.300636 -0.175282
N8    N     N_1   0.289056 0.825812 0.699359 -0.175280
O1    O     O_R   0.499990 0.316750 0.614620 -0.618509
O2    O     O_R   0.500010 0.683250 0.385380 -0.618510
O3    O     O_R   0.499990 0.316780 0.385290 -0.614799
O4    O     O_R   0.500010 0.683220 0.614710 -0.614798
O5    O     O_R   0.346360 0.499970 0.595710 -0.617989
O6    O     O_R   0.653640 0.500030 0.404290 -0.617988
O7    O     O_R   0.346360 0.499990 0.366380 -0.617295
O8    O     O_R   0.653640 0.500010 0.633620 -0.617293
Zn1   Zn    Zn3+2 0.500000 0.499980 0.653120 0.972391
Zn2   Zn    Zn3+2 0.500000 0.500020 0.346880 0.972390

loop_
_geom_bond_atom_site_label_1
_geom_bond_atom_site_label_2
_ccdc_geom_bond_type
C29   H8    S    
C12   O4    A    
C30   O5    A    
C5    C7    A    
C27   H6    S    
C27   C29   A    
C21   N6    T    
C11   C13   A    
C26   C28   A    
O4    Zn1   S    
C9    H2    S    
C19   N4    T    
C12   O2    A    
C17   C25   A    
C14   C22   S    
C15   C23   A    
C2    C3    S    
C24   N8    T    
C5    C20   S    
C1    C25   S    
C9    C11   A    
C12   C23   S    
C26   N2    A    
C2    O6    A    
C28   H7    S    
C4    C7    A    
C3    C10   A    
C29   N2    A    
O1    Zn1   S    
C15   C24   S    
C3    C8    A    
C16   C23   A    
O5    Zn1   S    
C14   C25   A    
C16   H3    S    
C30   O7    A    
C14   C16   A    
O7    Zn2   S    
C17   H4    S    
C8    C18   S    
O3    Zn2   S    
C26   H5    S    
C20   N5    T    
O2    Zn2   S    
C22   N7    T    
C2    O8    A    
C18   N3    T    
C6    C11   A    
C15   C17   A    
O8    Zn1   S    
C1    O1    A    
C7    C19   S    
C6    C8    A    
C28   N1    A    
N2    Zn2   S    
C4    C9    A    
C6    C21   S    
C5    C13   A    
C10   H1    S    
C4    C30   S    
O6    Zn2   S    
C27   N1    A    
N1    Zn1   S    
C10   C13   A    
C1    O3    A    
