data_mof_unit_27710.cif
_audit_creation_date              2012-12-10T18:32:50-0500
_audit_creation_method            fapswitch 2.2
_symmetry_space_group_name_H-M    P1
_symmetry_Int_Tables_number       1
_space_group_crystal_system       triclinic
_cell_length_a                    15.085092
_cell_length_b                    15.471044
_cell_length_c                    15.817467
_cell_angle_alpha                 92.174176
_cell_angle_beta                  106.231464
_cell_angle_gamma                 81.60719
_cell_volume                      3506.39770113

loop_
_atom_site_label
_atom_site_type_symbol
_atom_type_description
_atom_site_fract_x
_atom_site_fract_y
_atom_site_fract_z
_atom_type_partial_charge
C1    C     C_R   0.441903 0.662804 0.490776 0.867670
C2    C     C_3   0.451899 0.585338 0.037664 0.065847
C3    C     C_3   0.495941 0.492275 0.081493 -0.159091
C4    C     C_3   0.438995 0.416324 0.028757 0.038847
C5    C     C_3   0.454663 0.409846 0.929773 0.050754
C6    C     C_1   0.492067 0.493861 0.172486 0.202622
C7    C     C_1   0.507845 0.497514 0.826379 0.178763
C8    C     C_1   0.508127 0.500452 0.751572 0.014420
C9    C     C_R   0.411165 0.755535 0.507861 -0.118101
C10   C     C_R   0.597101 0.244920 0.510669 -0.170329
C11   C     C_R   0.342684 0.862134 0.598158 -0.091765
C12   C     C_R   0.502381 0.500921 0.661792 0.894959
C13   C     C_R   0.345547 0.779943 0.555729 -0.089735
C14   C     C_R   0.468338 0.815242 0.498029 -0.175551
C15   C     C_R   0.472551 0.894314 0.544287 0.112858
C16   C     C_R   0.401529 0.922757 0.586677 0.029485
C17   C     C_R   0.542758 0.947777 0.544578 -0.045362
C18   C     C_R   0.526745 0.036923 0.566750 0.067903
C19   C     C_R   0.454661 0.065152 0.606319 -0.192603
C20   C     C_R   0.391483 0.011023 0.614660 -0.041409
C21   C     C_R   0.630003 0.915554 0.527067 -0.179509
C22   C     C_R   0.689516 0.973708 0.514853 0.366710
C23   C     C_R   0.558682 0.337829 0.508816 0.927530
C24   C     C_R   0.657536 0.063915 0.512241 -0.047050
C25   C     C_R   0.580010 0.096177 0.543954 0.051312
C26   C     C_R   0.701286 0.122647 0.477699 -0.103582
C27   C     C_R   0.672372 0.212296 0.476194 0.336598
C28   C     C_R   0.553829 0.187207 0.545494 -0.216962
C29   C     C_R   0.857242 0.609003 0.654932 -0.234494
C30   C     C_R   0.765360 0.593140 0.628172 0.070626
C31   C     C_R   0.788019 0.526558 0.496376 0.005987
C32   C     C_R   0.884255 0.536616 0.523760 0.001482
C33   C     C_R   0.916817 0.580785 0.603810 0.129578
C34   C     C_R   0.497203 0.499869 0.337911 0.914352
C35   C     C_R   0.949656 0.502116 0.476851 0.118085
C36   C     C_R   0.045338 0.515450 0.509612 0.128291
C37   C     C_R   0.072826 0.562078 0.588772 -0.220709
C38   C     C_R   0.009575 0.594131 0.634622 -0.115199
C39   C     C_R   0.923760 0.449126 0.402393 -0.233295
C40   C     C_R   0.987946 0.411348 0.359064 -0.143188
C41   C     C_R   0.079935 0.431608 0.385146 -0.054423
C42   C     C_R   0.110986 0.479530 0.463618 -0.027791
C43   C     C_R   0.142930 0.402947 0.335882 0.225026
C44   C     C_R   0.238015 0.396849 0.378017 0.494800
C45   C     C_3   0.441529 0.579088 0.936565 -0.393376
C46   C     C_R   0.206979 0.490120 0.491838 -0.108631
C47   C     C_3   0.603299 0.492904 0.982128 0.159231
C48   C     C_3   0.600501 0.472873 0.076704 -0.309822
C49   C     C_1   0.492266 0.496341 0.247830 0.042267
C50   C     C_3   0.502636 0.493189 0.916291 -0.192024
H1    H     H_    0.368230 0.571404 0.904952 0.218816
H2    H     H_    0.380725 0.603746 0.043806 0.183317
H3    H     H_    0.497022 0.216077 0.570454 0.201831
H4    H     H_    0.510403 0.797893 0.453377 0.178791
H5    H     H_    0.444498 0.130638 0.630896 0.190193
H6    H     H_    0.755678 0.098899 0.447184 0.244072
H7    H     H_    0.034143 0.628198 0.696075 0.180776
H8    H     H_    0.235562 0.530367 0.546546 0.185177
H9    H     H_    0.882833 0.641909 0.716989 0.193728
H10   H     H_    0.756508 0.496665 0.435013 0.207815
H11   H     H_    0.143477 0.573326 0.618869 0.182984
H12   H     H_    0.855130 0.430143 0.380086 0.198264
H13   H     H_    0.618431 0.560593 0.981892 0.245674
H14   H     H_    0.624327 0.403176 0.087844 0.258476
N1    N     N_R   0.731690 0.552720 0.548990 -0.159826
N2    N     N_R   0.268300 0.447240 0.450950 -0.165497
O1    O     O_R   0.383120 0.605620 0.475300 -0.615159
O2    O     O_R   0.531890 0.639510 0.506740 -0.579618
O3    O     O_R   0.425580 0.483050 0.607130 -0.583365
O4    O     O_R   0.574360 0.516930 0.638570 -0.617834
O5    O     O_R   0.468110 0.360490 0.493260 -0.543343
O6    O     O_R   0.616880 0.394380 0.524700 -0.557082
O7    O     O_R   0.425640 0.483070 0.361430 -0.576958
O8    O     O_R   0.574420 0.516950 0.392870 -0.575787
Zn1   Zn    Zn3+2 0.400660 0.477370 0.479010 1.080958
Zn2   Zn    Zn3+2 0.599340 0.522630 0.520990 1.060351
S1    S     S_3+6 0.505183 0.678703 0.093125 0.072173
O9    O     O_2   0.537359 0.666876 0.191368 -0.292162
O10   O     O_2   0.586430 0.695356 0.061886 -0.187646
O11   O     O_3   0.424414 0.768131 0.070358 -0.442977
H15   H     H_    0.377883 0.758892 0.101388 0.367236
S2    S     S_3+6 0.471526 0.311473 0.090229 0.069246
O12   O     O_2   0.445890 0.237418 0.027924 -0.199441
O13   O     O_2   0.572564 0.291858 0.140698 -0.240180
O14   O     O_3   0.409748 0.313696 0.163972 -0.494455
H16   H     H_    0.410731 0.251575 0.177767 0.423462
C51   C     C_2   0.307733 0.055168 0.638620 0.951428
O15   O     O_2   0.316600 0.101508 0.704025 -0.514318
O16   O     O_R   0.218820 0.047182 0.583850 -0.752452
H17   H     H_    0.167356 0.081095 0.606455 0.378890
S3    S     S_3+6 0.731141 0.279187 0.427816 0.062831
O17   O     O_2   0.789974 0.329712 0.499416 -0.273087
O18   O     O_2   0.793597 0.225081 0.380636 -0.225329
O19   O     O_3   0.653889 0.348857 0.355366 -0.524342
H18   H     H_    0.607388 0.312886 0.320461 0.371902
S4    S     S_3+6 0.805446 0.935344 0.506273 0.082808
O20   O     O_2   0.845551 0.848166 0.549843 -0.244517
O21   O     O_2   0.801734 0.928027 0.410350 -0.229551
O22   O     O_3   0.877977 0.007043 0.554629 -0.522535
H19   H     H_    0.935594 0.988716 0.536376 0.413522
C52   C     C_2   0.288973 0.877504 0.664532 0.958141
O23   O     O_2   0.206019 0.870097 0.644209 -0.542241
O24   O     O_R   0.334296 0.899553 0.750747 -0.741637
H20   H     H_    0.290947 0.908177 0.790063 0.392273
C53   C     C_2   0.280093 0.719849 0.562217 0.969319
O25   O     O_2   0.291983 0.679688 0.630505 -0.637399
O26   O     O_R   0.203002 0.712139 0.490286 -0.733584
H21   H     H_    0.158314 0.675481 0.503825 0.340638
C54   C     C_2   0.450968 0.663728 0.895146 1.088064
O27   O     O_2   0.386005 0.723586 0.881448 -0.529478
O28   O     O_R   0.531953 0.673767 0.872101 -0.791366
H22   H     H_    0.527949 0.732840 0.844578 0.379361
C55   C     C_2   0.668210 0.822657 0.536636 1.010152
O29   O     O_2   0.697840 0.791088 0.610256 -0.581692
O30   O     O_R   0.678744 0.774015 0.462849 -0.736899
H23   H     H_    0.710408 0.712172 0.478373 0.350102
S5    S     S_3+6 0.308964 0.301806 0.355350 0.110965
O31   O     O_2   0.254355 0.249250 0.282655 -0.205050
O32   O     O_2   0.391324 0.323655 0.329560 -0.269251
O33   O     O_3   0.345472 0.239695 0.446711 -0.570944
H24   H     H_    0.365761 0.180599 0.426593 0.379947
C56   C     C_2   0.960371 0.338957 0.297306 1.114724
O34   O     O_2   0.007931 0.267189 0.309377 -0.476681
O35   O     O_R   0.879444 0.350446 0.227054 -0.652820
H25   H     H_    0.848826 0.413403 0.219839 0.331881
C57   C     C_2   0.709209 0.619625 0.690250 1.022560
O36   O     O_2   0.633198 0.664672 0.665858 -0.569439
O37   O     O_R   0.746444 0.597411 0.779196 -0.765311
H26   H     H_    0.702777 0.620961 0.815764 0.392954
S6    S     S_3+6 0.704197 0.431835 0.953874 0.074573
O38   O     O_2   0.757922 0.367458 0.025246 -0.195133
O39   O     O_2   0.677992 0.383926 0.868046 -0.290772
O40   O     O_3   0.774927 0.503599 0.945500 -0.467066
H27   H     H_    0.829838 0.467583 0.933228 0.413926
S7    S     S_3+6 0.106671 0.407806 0.218665 0.096398
O41   O     O_2   0.084455 0.320837 0.179589 -0.161977
O42   O     O_2   0.021398 0.474898 0.188840 -0.299120
O43   O     O_3   0.193000 0.436856 0.182661 -0.484720
H28   H     H_    0.161345 0.464800 0.124717 0.399907
C58   C     C_2   0.673074 0.514313 0.147880 1.046734
O44   O     O_2   0.684406 0.497537 0.225440 -0.611326
O45   O     O_R   0.732080 0.565834 0.125468 -0.694555
H29   H     H_    0.778415 0.587135 0.178935 0.370203
S8    S     S_3+6 0.342836 0.404363 0.842016 0.048785
O46   O     O_2   0.354896 0.411725 0.751587 -0.276423
O47   O     O_2   0.313428 0.316372 0.847342 -0.152684
O48   O     O_3   0.254659 0.481756 0.850077 -0.591070
H30   H     H_    0.200497 0.469686 0.801153 0.396823
C59   C     C_2   0.519362 0.326688 0.914365 1.090190
O49   O     O_2   0.506497 0.293729 0.841047 -0.526270
O50   O     O_R   0.596219 0.289733 0.980775 -0.704377
H31   H     H_    0.632147 0.236065 0.960726 0.396709
C60   C     C_2   0.334496 0.434802 0.027182 1.096096
O51   O     O_2   0.303246 0.498241 0.063537 -0.662852
O52   O     O_R   0.276191 0.371430 0.994111 -0.636221
H32   H     H_    0.210301 0.388983 0.998753 0.367672

loop_
_geom_bond_atom_site_label_1
_geom_bond_atom_site_label_2
_ccdc_geom_bond_type
C10   C27   A    
S7    O43   S    
C12   O3    A    
C30   C57   S    
C57   O36   D    
O7    Zn1   S    
C41   C42   A    
S6    O39   D    
C35   C36   A    
O6    Zn2   S    
C3    C6    S    
O37   H26   S    
C59   O49   D    
C7    C8    T    
O14   H16   S    
C25   C28   A    
C53   O26   S    
C26   C27   A    
C52   O23   D    
N1    Zn2   S    
O8    Zn2   S    
C44   S5    S    
C36   C37   A    
C24   C26   A    
C46   N2    A    
C2    C3    S    
C59   O50   S    
C47   H13   S    
C45   C54   S    
C48   H14   S    
S8    O47   D    
C45   H1    S    
C10   C28   A    
C15   C16   A    
S4    O22   S    
C29   C33   A    
C3    C48   S    
C1    O2    A    
C5    C59   S    
C15   C17   A    
C18   C19   A    
C42   C46   A    
C9    C13   A    
O48   H30   S    
C36   C42   A    
O28   H22   S    
S4    O21   D    
O50   H31   S    
C27   S3    S    
C60   O52   S    
C29   C30   A    
C8    C12   S    
C4    C60   S    
C52   O24   S    
S7    O42   D    
C21   C22   A    
C46   H8    S    
C41   C43   A    
C18   C25   A    
S8    O48   S    
C47   C50   S    
S1    O10   D    
C2    C45   S    
O52   H32   S    
C48   C58   S    
C47   S6    S    
C32   C35   A    
C23   O5    A    
S7    O41   D    
C1    C9    S    
C24   C25   A    
C13   C53   S    
S5    O33   S    
C39   C40   A    
O11   H15   S    
C5    S8    S    
S1    O9    D    
C17   C21   A    
C31   H10   S    
C35   C39   A    
C9    C14   A    
C37   C38   A    
S3    O18   D    
C38   H7    S    
C11   C16   A    
C47   C48   S    
C16   C20   A    
S4    O20   D    
C17   C18   A    
C11   C52   S    
C58   O44   D    
C43   S7    S    
C44   N2    A    
C2    H2    S    
C34   O8    A    
C21   C55   S    
C40   C41   A    
C14   H4    S    
S2    O13   D    
C51   O16   S    
C43   C44   A    
O4    Zn2   S    
O40   H27   S    
C22   C24   A    
C5    C50   S    
S6    O40   S    
O1    Zn1   S    
O26   H21   S    
C56   O35   S    
C3    C4    S    
S3    O17   D    
O33   H24   S    
C55   O29   D    
S1    O11   S    
C19   H5    S    
C31   N1    A    
C39   H12   S    
C12   O4    A    
C34   C49   S    
C57   O37   S    
C14   C15   A    
C22   S4    S    
C23   O6    A    
C31   C32   A    
C7    C50   S    
C58   O45   S    
C4    C5    S    
C26   H6    S    
C37   H11   S    
C28   H3    S    
C10   C23   S    
O2    Zn2   S    
S2    O14   S    
C40   C56   S    
C53   O25   D    
C33   C38   A    
O22   H19   S    
S8    O46   D    
C32   C33   A    
C19   C20   A    
S5    O32   D    
S6    O38   D    
O16   H17   S    
C2    S1    S    
S5    O31   D    
S3    O19   S    
O5    Zn1   S    
C20   C51   S    
C11   C13   A    
C45   C50   S    
N2    Zn1   S    
C54   O28   S    
C1    O1    A    
O3    Zn1   S    
C6    C49   T    
O19   H18   S    
C30   N1    A    
O43   H28   S    
C34   O7    A    
C4    S2    S    
C51   O15   D    
S2    O12   D    
O24   H20   S    
C56   O34   D    
C29   H9    S    
O45   H29   S    
C60   O51   D    
C54   O27   D    
O30   H23   S    
O35   H25   S    
C55   O30   S    
