data_mof_unit_11033.cif
_audit_creation_date              2013-03-05T16:06:18-0500
_audit_creation_method            fapswitch 2.2
_symmetry_space_group_name_H-M    P1
_symmetry_Int_Tables_number       1
_space_group_crystal_system       triclinic
_cell_length_a                    8.483078
_cell_length_b                    15.430403
_cell_length_c                    19.037493
_cell_angle_alpha                 99.751765
_cell_angle_beta                  93.471624
_cell_angle_gamma                 98.169616
_cell_volume                      2421.86275832

loop_
_atom_site_label
_atom_site_type_symbol
_atom_site_description
_atom_site_fract_x
_atom_site_fract_y
_atom_site_fract_z
_atom_type_partial_charge
P1    P     P_3+3 0.033450 0.421470 0.337090 0.551975
O1    O     O_2   0.865610 0.448460 0.327050 -0.353052
O2    O     O_3   0.118280 0.449990 0.414480 -0.343821
O3    O     O_3   0.656850 0.615600 0.375450 -0.384306
O4    O     O_2   0.690389 0.523960 0.249009 -0.343629
O5    O     O_3   0.997518 0.305769 0.336625 -0.559569
O6    O     O_3   0.703530 0.694015 0.252394 -0.492930
H1    H     H_    0.765567 0.774713 0.351565 0.144950
C1    C     C_3   0.737435 0.852984 0.269607 -0.928340
H2    H     H_    0.723077 0.913538 0.307990 0.205776
H3    H     H_    0.864265 0.857173 0.257491 0.306329
P2    P     P_3+3 0.679030 0.710970 0.562060 0.494855
P3    P     P_3+3 0.129555 0.779602 0.424439 0.510687
O7    O     O_2   0.853800 0.724280 0.541390 -0.308771
O8    O     O_3   0.080770 0.663020 0.412300 -0.390162
O9    O     O_2   0.995825 0.817005 0.465889 -0.288460
O10   O     O_3   0.723986 0.730533 0.655235 -0.591231
O11   O     O_3   0.095497 0.810319 0.340821 -0.563552
C2    C     C_3   0.196577 0.774323 0.291236 0.370527
H4    H     H_    0.286069 0.739810 0.315081 -0.183888
C3    C     C_3   0.291059 0.849201 0.260175 0.123043
H5    H     H_    0.374742 0.891474 0.303660 0.094819
C4    C     C_3   0.093143 0.742837 0.711475 -0.079228
H6    H     H_    0.977355 0.698968 0.710010 0.100656
C5    C     C_3   0.144578 0.794539 0.789642 0.173915
H7    H     H_    0.260903 0.836843 0.787147 -0.002669
Ba1   Ba    Ba6+2 0.852310 0.543020 0.467250 1.642262
C6    C     C_3   0.901710 0.255079 0.276374 0.967942
H8    H     H_    0.836811 0.297515 0.248204 -0.008265
C7    C     C_3   0.006702 0.208105 0.223581 -0.789410
H9    H     H_    0.072054 0.161967 0.247995 0.192033
H10   H     H_    0.100124 0.258682 0.210641 0.211704
C8    C     C_3   0.587892 0.707818 0.690490 0.945743
H11   H     H_    0.482131 0.682390 0.651990 0.024283
C9    C     C_3   0.541247 0.790248 0.736819 -0.016827
H12   H     H_    0.453054 0.763202 0.770570 0.129188
H13   H     H_    0.482816 0.829529 0.702101 0.044660
P4    P     P_3+3 0.156260 0.578610 0.662920 0.463299
O12   O     O_2   0.324100 0.551570 0.673000 -0.310933
O13   O     O_3   0.071440 0.550090 0.585530 -0.419660
O14   O     O_3   0.532860 0.384470 0.624560 -0.320914
O15   O     O_3   0.214151 0.695140 0.684183 -0.667507
P5    P     P_3+3 0.066014 0.218448 0.578736 0.515851
O16   O     O_3   0.607860 0.389390 0.460650 -0.367910
O17   O     O_3   0.108950 0.337050 0.587710 -0.362004
O18   O     O_2   0.186235 0.180161 0.529301 -0.342845
O19   O     O_3   0.125314 0.187459 0.659556 -0.569435
Ba2   Ba    Ba6+2 0.337530 0.457060 0.532760 1.646535
P6    P     P_3+3 0.606958 0.601048 0.282597 0.526012
C10   C     C_3   0.687404 0.770527 0.301750 0.446968
H14   H     H_    0.561933 0.770583 0.315350 -0.028142
H15   H     H_    0.661816 0.850251 0.219370 0.257852
O20   O     O_3   0.581860 0.610690 0.539360 -0.438426
C11   C     C_3   0.449494 0.304364 0.304032 0.369387
H16   H     H_    0.327762 0.315913 0.317527 0.092478
H17   H     H_    0.534522 0.367849 0.314737 0.134932
C12   C     C_3   0.444642 0.260568 0.224785 -0.724113
H18   H     H_    0.358766 0.197541 0.214925 0.202548
H19   H     H_    0.563724 0.242669 0.213456 0.206713
P7    P     P_3+3 0.512737 0.275914 0.435807 0.541854
O21   O     O_2   0.335900 0.275750 0.458650 -0.314526
O22   O     O_3   0.503658 0.243389 0.342768 -0.524677
H20   H     H_    0.365188 0.818403 0.219183 0.044568
C13   C     C_3   0.004172 0.192753 0.707241 0.993653
H21   H     H_    0.883656 0.173656 0.678191 -0.113962
C14   C     C_3   0.016836 0.124824 0.757556 -0.781360
H22   H     H_    0.140943 0.128565 0.781006 0.165617
H23   H     H_    0.985375 0.056756 0.725737 0.199750
P8    P     P_3+3 0.575960 0.405652 0.718244 0.495161
C15   C     C_3   0.586420 0.240828 0.722294 0.386795
H24   H     H_    0.709072 0.253525 0.749132 0.104591
O23   O     O_2   0.467495 0.471263 0.750905 -0.378330
O24   O     O_3   0.504040 0.309543 0.750020 -0.557107
H25   H     H_    0.590327 0.233626 0.663243 0.105473
H26   H     H_    0.568634 0.099726 0.723128 0.230425
C16   C     C_3   0.500001 0.154305 0.738820 -0.960245
H27   H     H_    0.380745 0.136743 0.708558 0.286814
H28   H     H_    0.485632 0.160966 0.797009 0.267465
N1    N     N_R   0.183232 0.551026 0.958412 -0.071559
N2    N     N_R   0.229116 0.554740 0.027519 -0.069993
C17   C     C_2   0.299977 0.506766 0.291574 0.303158
C18   C     C_3   0.385168 0.576380 0.253972 0.018861
C19   C     C_2   0.340564 0.558772 0.174505 -0.244852
C20   C     C_2   0.205534 0.502965 0.145351 -0.053594
C21   C     C_2   0.107726 0.451830 0.195001 0.383174
C22   C     C_1   0.155980 0.462758 0.265829 -0.033014
N3    N     N_R   0.042671 0.429459 0.029761 -0.046282
N4    N     N_R   0.995183 0.426294 0.960961 -0.062453
C23   C     C_R   0.063369 0.487460 0.923623 0.149737
C24   C     C_R   0.158650 0.494698 0.065553 0.194370
C25   C     C_R   0.102405 0.523528 0.798677 -0.258447
C26   C     C_R   0.039334 0.527567 0.728933 0.235647
C27   C     C_R   0.784084 0.451407 0.752168 0.260383
C28   C     C_R   0.844876 0.447273 0.821744 -0.258140
C29   C     C_R   0.003330 0.486561 0.847271 0.091384
C30   C     C_R   0.878810 0.496198 0.708661 -0.279831
H29   H     H_    0.413534 0.597032 0.142094 0.176310
H30   H     H_    0.226472 0.550220 0.815305 0.171958
H31   H     H_    0.767165 0.415906 0.856332 0.152484
H32   H     H_    0.826400 0.507423 0.658385 0.187670
C31   C     C_R   0.332323 0.830503 0.470380 0.337184
H33   H     H_    0.358379 0.709920 0.506032 0.134750
C32   C     C_R   0.577068 0.797381 0.526429 0.110841
C33   C     C_R   0.757732 0.223698 0.516244 -0.404636
C34   C     C_R   0.857586 0.167772 0.538263 0.090215
C35   C     C_R   0.799776 0.076483 0.528879 -0.323570
C36   C     C_R   0.637829 0.041265 0.502425 0.096844
C37   C     C_R   0.545951 0.099110 0.471573 -0.074674
C38   C     C_R   0.567293 0.949686 0.501661 -0.205376
C39   C     C_R   0.404930 0.920282 0.472269 -0.186897
C40   C     C_R   0.314564 0.981573 0.449201 0.512732
C41   C     C_R   0.394262 0.062683 0.435542 -0.202786
C42   C     C_R   0.645648 0.887880 0.535037 0.529840
C43   C     C_R   0.419188 0.773109 0.499219 -0.628145
C44   C     C_R   0.609266 0.192063 0.478262 0.148291
H34   H     H_    0.883882 0.035055 0.543119 0.239277
O25   O     O_3   0.028344 0.848084 0.813639 -0.572801
C45   C     C_3   0.102089 0.928745 0.857408 -0.068582
H35   H     H_    0.173012 0.971593 0.825429 0.114404
H36   H     H_    0.178968 0.916521 0.903077 0.098678
H37   H     H_    0.008292 0.965572 0.879864 0.162997
C46   C     C_2   0.166312 0.734643 0.843088 0.984420
O26   O     O_2   0.049354 0.695102 0.864835 -0.660671
O27   O     O_R   0.319108 0.731379 0.873165 -0.868131
H38   H     H_    0.318143 0.692966 0.911319 0.330723
O28   O     O_3   0.781749 0.193300 0.297841 -0.605629
C47   C     C_3   0.845997 0.137283 0.339763 -0.041861
H39   H     H_    0.929605 0.175275 0.385219 0.148808
H40   H     H_    0.902161 0.086019 0.306448 0.140474
H41   H     H_    0.747494 0.100192 0.363025 0.153588
C48   C     C_2   0.910140 0.158009 0.156472 1.126356
O29   O     O_2   0.934473 0.180355 0.098978 -0.591502
O30   O     O_R   0.794074 0.085228 0.159944 -0.782841
H42   H     H_    0.737062 0.056926 0.111405 0.308792
O31   O     O_3   0.610260 0.637353 0.727892 -0.638823
C49   C     C_3   0.694772 0.666387 0.796011 -0.091532
H43   H     H_    0.616187 0.693924 0.835761 0.164102
H44   H     H_    0.802428 0.715032 0.794274 0.216544
H45   H     H_    0.733824 0.608936 0.815650 0.153795
O32   O     O_3   0.674556 0.843960 0.778370 -0.562711
C50   C     C_3   0.621043 0.899609 0.835799 -0.076240
H46   H     H_    0.558624 0.860162 0.872510 0.138403
H47   H     H_    0.542330 0.944003 0.816144 0.131714
H48   H     H_    0.726104 0.941559 0.867930 0.192696
C51   C     C_2   0.400878 0.316466 0.171812 0.979523
O33   O     O_2   0.474906 0.390729 0.174461 -0.658375
O34   O     O_R   0.283900 0.280162 0.115642 -0.740811
H49   H     H_    0.270362 0.322255 0.081020 0.345169
O35   O     O_3   0.012026 0.280319 0.746228 -0.694925
C52   C     C_3   0.168608 0.316447 0.775913 0.056334
H50   H     H_    0.244614 0.266391 0.785563 0.149744
H51   H     H_    0.164133 0.356401 0.829268 0.124952
H52   H     H_    0.223975 0.359433 0.740385 0.199479
C53   C     C_2   0.910370 0.137820 0.817484 1.084474
O36   O     O_2   0.791431 0.083491 0.818302 -0.704297
O37   O     O_R   0.948769 0.211668 0.872607 -0.766208
H53   H     H_    0.867764 0.213282 0.909654 0.332331
C54   C     C_2   0.095124 0.706846 0.234049 0.981441
O38   O     O_2   0.089735 0.715324 0.171211 -0.657406
O39   O     O_R   0.006097 0.633387 0.253817 -0.748184
H54   H     H_    0.941752 0.593628 0.211058 0.330074
O40   O     O_3   0.001295 0.376952 0.163678 -0.645617
C55   C     C_3   0.852160 0.400193 0.143815 -0.077554
H55   H     H_    0.858466 0.467356 0.129249 0.117439
H56   H     H_    0.773202 0.394785 0.186981 0.188049
H57   H     H_    0.794898 0.350940 0.096662 0.168502
O41   O     O_3   0.361284 0.502302 0.359330 -0.643929
C56   C     C_3   0.351262 0.583450 0.404487 0.178982
H58   H     H_    0.265103 0.578467 0.444551 0.142212
H59   H     H_    0.343147 0.641651 0.378499 -0.017427
H60   H     H_    0.456939 0.600947 0.438242 0.164849
O42   O     O_3   0.156682 0.974207 0.466409 -0.558376
C57   C     C_3   0.050939 0.994799 0.414092 -0.079122
H61   H     H_    0.080476 0.972413 0.358613 0.168475
H62   H     H_    0.045099 0.066588 0.425308 0.148591
H63   H     H_    0.929297 0.959920 0.418377 0.144230
O43   O     O_3   0.767399 0.916932 0.588712 -0.581878
C58   C     C_3   0.704493 0.962806 0.648980 -0.077151
H64   H     H_    0.760991 0.947802 0.698189 0.256079
H65   H     H_    0.572589 0.946200 0.650641 0.084450
H66   H     H_    0.734354 0.035076 0.651231 0.103778
C59   C     C_2   0.817753 0.317190 0.529551 1.096952
O44   O     O_2   0.806581 0.361565 0.587536 -0.681512
O45   O     O_R   0.906427 0.352324 0.479615 -0.720661
H67   H     H_    0.968178 0.411726 0.502811 0.379320
C60   C     C_2   0.359340 0.081169 0.363180 1.036505
O46   O     O_2   0.246078 0.118154 0.349596 -0.665423
O47   O     O_R   0.460650 0.057726 0.310385 -0.796219
H68   H     H_    0.429729 0.076192 0.263576 0.346779
O48   O     O_3   0.185715 0.902042 0.233732 -0.582739
C61   C     C_3   0.232813 0.925278 0.168710 -0.088179
H69   H     H_    0.362357 0.952386 0.172203 0.120534
H70   H     H_    0.164724 0.977565 0.155523 0.150982
H71   H     H_    0.204267 0.866761 0.124634 0.171291
C62   C     C_2   0.073039 0.812070 0.664837 1.193734
O49   O     O_2   0.991311 0.869463 0.682702 -0.544841
O50   O     O_R   0.149139 0.814104 0.602225 -0.750495
H72   H     H_    0.184580 0.755729 0.582831 0.300164

loop_
_geom_bond_atom_site_label_1
_geom_bond_atom_site_label_2
_geom_bond_distance
_ccdc_geom_bond_type
Ba1   Ba2   4.663456 S    
C42   O43   1.377407 S    
N3    N4    1.337545 A    
O48   C61   1.410663 S    
C21   O40   1.382243 S    
O30   H42   1.013746 S    
C12   C51   1.496378 S    
C14   H23   1.107509 S    
C55   H55   1.112282 S    
N2    C24   1.364640 A    
C61   H70   1.109554 S    
C17   C18   1.513631 S    
C12   H18   1.109954 S    
O31   C49   1.412689 S    
C21   C22   1.360387 D    
O28   C47   1.412811 S    
C4    O15   1.419560 S    
C20   C24   1.526113 S    
P3    O11   1.755285 S    
C37   C44   1.439732 A    
O37   H53   1.013835 S    
C55   H56   1.097686 S    
C16   H28   1.110823 S    
P4    O15   1.765390 S    
P8    C27   1.840060 S    
C50   H47   1.114323 S    
C41   C60   1.474655 S    
P4    O12   1.549513 D    
C12   H19   1.108491 S    
C35   C36   1.430944 A    
C7    C48   1.503165 S    
P4    C26   1.856826 S    
O2    Ba2   2.809535 S    
C26   C30   1.386838 A    
O45   H67   1.003978 S    
P7    O22   1.751117 S    
C40   O42   1.391588 S    
P5    C34   1.889262 S    
C45   H35   1.112392 S    
O34   H49   1.013187 S    
C8    C9    1.535435 S    
C39   C40   1.407461 A    
C50   H46   1.112039 S    
Ba1   O16   2.899313 S    
C56   H60   1.045052 S    
O5    C6    1.410863 S    
C2    H4    1.105022 S    
C52   H52   1.104497 S    
P2    O10   1.756974 S    
C15   H25   1.113776 S    
C4    H6    1.106851 S    
P8    O24   1.740378 S    
O1    Ba1   2.833646 S    
O7    Ba1   2.909558 S    
C5    C46   1.505882 S    
P4    Ba2   3.424793 S    
C17   C22   1.331347 D    
C38   C42   1.445462 A    
C56   H59   1.104553 S    
C14   H22   1.108197 S    
O41   C56   1.410168 S    
P4    O13   1.563337 S    
C3    H5    1.108635 S    
C60   O47   1.396231 S    
C54   O39   1.390117 S    
C31   C43   1.389217 A    
C36   C38   1.451474 A    
O4    P6    1.536585 D    
C28   C29   1.414214 A    
C1    H15   1.110078 S    
O10   C8    1.401677 S    
C49   H45   1.102784 S    
C33   C34   1.387525 A    
C51   O34   1.397345 S    
C6    O28   1.420551 S    
C51   O33   1.217402 D    
C45   H36   1.112948 S    
C57   H62   1.100847 S    
O32   C50   1.411236 S    
Ba2   O20   2.898706 S    
C11   H17   1.111389 S    
O27   H38   1.012024 S    
C3    H20   1.117594 S    
P2    Ba1   3.457463 S    
C61   H69   1.112712 S    
C58   H64   1.100698 S    
C55   H57   1.109292 S    
C20   C21   1.538186 S    
O6    P6    1.749873 S    
P2    C32   1.883937 S    
C49   H44   1.102630 S    
C50   H48   1.106052 S    
C25   C26   1.415804 A    
C14   C53   1.502084 S    
O11   C2    1.410893 S    
C62   O49   1.217217 D    
C11   O22   1.398939 S    
C10   H14   1.110631 S    
C5    H7    1.111410 S    
C57   H61   1.109367 S    
C37   C41   1.413927 A    
C35   H34   1.075222 S    
P7    O21   1.586752 D    
P1    O2    1.563368 S    
C45   H37   1.107333 S    
C13   C14   1.545108 S    
P6    C18   1.893088 S    
C23   C29   1.507948 S    
P8    O23   1.542391 D    
H26   C16   1.101212 S    
C47   H40   1.108476 S    
H33   C43   1.068454 S    
C9    O32   1.412339 S    
C33   C44   1.393829 A    
C1    H3    1.109190 S    
C8    O31   1.424709 S    
O8    Ba1   2.856707 S    
C19   C20   1.357367 D    
Ba1   O13   2.808915 S    
C36   C37   1.438417 A    
C32   C43   1.382042 A    
C15   O24   1.398896 S    
C8    H11   1.104067 S    
C17   O41   1.377718 S    
C27   C28   1.407024 A    
C16   H27   1.107879 S    
P5    O17   1.791128 S    
C53   O36   1.219408 D    
C15   H24   1.107149 S    
C56   H58   1.092366 S    
P2    O7    1.551318 D    
C18   C19   1.505960 S    
C27   C30   1.387848 A    
P3    O8    1.759765 S    
C15   C16   1.520162 S    
C54   O38   1.224079 D    
C52   H51   1.101107 S    
N3    C24   1.360366 A    
C46   O27   1.396042 S    
C47   H39   1.109599 S    
H1    C10   1.110897 S    
O19   C13   1.413714 S    
O3    Ba1   2.810280 S    
O42   C57   1.406278 S    
C9    H13   1.109657 S    
O14   P8    1.763806 S    
O40   C55   1.410342 S    
C1    H2    1.110712 S    
O17   Ba2   2.857423 S    
P1    C22   1.897925 S    
O13   Ba2   2.978611 S    
C11   H16   1.110439 S    
C6    H8    1.097779 S    
C40   C41   1.407892 A    
C32   C42   1.412579 A    
C2    C54   1.502634 S    
C53   O37   1.397801 S    
C47   H41   1.103029 S    
C1    C10   1.521566 S    
P2    O20   1.621229 S    
O6    C10   1.407530 S    
C49   H43   1.109189 S    
C48   O30   1.397781 S    
C48   O29   1.222500 D    
C5    O25   1.421904 S    
C58   H65   1.115459 S    
Ba1   O20   2.969027 S    
C46   O26   1.221199 D    
C34   C35   1.401591 A    
C13   O35   1.417640 S    
O3    P6    1.761310 S    
O39   H54   1.009359 S    
C6    C7    1.540731 S    
C31   C39   1.427483 A    
C61   H71   1.111120 S    
O35   C52   1.409412 S    
C13   H21   1.108411 S    
C7    H10   1.100361 S    
C3    O48   1.417208 S    
C7    H9    1.106007 S    
P5    O19   1.752968 S    
C28   H31   1.082707 S    
O16   P7    1.792325 S    
P1    O1    1.549102 D    
O2    Ba1   2.977750 S    
C57   H63   1.108317 S    
O14   Ba2   2.809700 S    
C33   C59   1.434008 S    
C4    C5    1.568930 S    
C25   H30   1.081580 S    
C30   H32   1.081794 S    
O50   H72   1.007869 S    
P5    O18   1.540760 D    
C59   O45   1.381581 S    
N1    C23   1.359965 A    
C58   H66   1.100825 S    
C25   C29   1.422766 A    
N1    N2    1.338565 A    
O16   Ba2   2.968161 S    
N4    C23   1.361084 A    
O43   C58   1.417258 S    
C19   H29   1.085460 S    
P3    O9    1.543677 D    
C38   C39   1.434941 A    
P1    O5    1.766349 S    
P1    Ba1   3.424165 S    
Ba2   O21   2.909860 S    
C52   H50   1.105134 S    
O47   H68   1.011446 S    
P7    C44   1.890256 S    
C9    H12   1.098673 S    
C62   O50   1.392363 S    
C60   O46   1.221254 D    
O25   C45   1.413879 S    
P3    C31   1.881935 S    
C4    C62   1.520988 S    
C59   O44   1.213038 D    
O12   Ba2   2.834209 S    
C2    C3    1.533834 S    
C11   C12   1.540670 S    
