data_mof_unit_42984.cif
_audit_creation_date              2012-12-11T16:28:33-0500
_audit_creation_method            fapswitch 2.2
_symmetry_space_group_name_H-M    P1
_symmetry_Int_Tables_number       1
_space_group_crystal_system       triclinic
_cell_length_a                    16.866454
_cell_length_b                    7.253568
_cell_length_c                    14.955193
_cell_angle_alpha                 89.967645
_cell_angle_beta                  94.515054
_cell_angle_gamma                 89.965695
_cell_volume                      1823.96914424

loop_
_atom_site_label
_atom_site_type_symbol
_atom_type_description
_atom_site_fract_x
_atom_site_fract_y
_atom_site_fract_z
_atom_type_partial_charge
O1    O     O_R   0.663460 0.361760 0.165970 -0.530689
O2    O     O_R   0.336540 0.638240 0.834030 -0.530514
O3    O     O_R   0.836540 0.861760 0.334030 -0.531729
O4    O     O_R   0.163460 0.138240 0.665970 -0.533064
O5    O     O_R   0.827100 0.689870 0.163730 -0.527690
O6    O     O_R   0.172900 0.310130 0.836270 -0.527267
O7    O     O_R   0.672900 0.189870 0.336270 -0.536671
O8    O     O_R   0.327100 0.810130 0.663730 -0.536906
C1    C     C_R   0.854599 0.523279 0.145220 0.746667
C2    C     C_R   0.145399 0.476724 0.854777 0.746101
C3    C     C_R   0.645343 0.023315 0.354724 0.706562
C4    C     C_R   0.354636 0.976701 0.645249 0.706052
O9    O     O_R   0.663490 0.691370 0.155500 -0.525974
O10   O     O_R   0.336510 0.308630 0.844500 -0.526292
O11   O     O_R   0.836510 0.191370 0.344500 -0.533163
O12   O     O_R   0.163490 0.808630 0.655500 -0.531698
O13   O     O_R   0.671770 0.863320 0.325740 -0.529147
O14   O     O_R   0.328230 0.136680 0.674260 -0.528792
O15   O     O_R   0.828230 0.363320 0.174260 -0.521236
O16   O     O_R   0.171770 0.636680 0.825740 -0.521649
C5    C     C_R   0.637277 0.522836 0.132070 0.889629
C6    C     C_R   0.362684 0.477134 0.867964 0.889697
C7    C     C_R   0.861370 0.022443 0.369664 0.789748
C8    C     C_R   0.138605 0.977595 0.630372 0.789631
H1    H     H_    0.104541 0.044476 0.209881 0.126230
H2    H     H_    0.895427 0.950195 0.789910 0.126141
H3    H     H_    0.388695 0.550465 0.285705 0.131054
H4    H     H_    0.611227 0.448929 0.714146 0.134926
O17   O     O_3   0.752910 0.528800 0.305860 -0.381445
O18   O     O_3   0.247090 0.471200 0.694140 -0.380798
O19   O     O_3   0.747090 0.028800 0.194140 -0.371641
O20   O     O_3   0.252910 0.971200 0.805860 -0.372040
V1    V     V_3+5 0.749460 0.803010 0.239640 1.493043
V2    V     V_3+5 0.250540 0.196990 0.760360 1.493734
V3    V     V_3+5 0.750540 0.303010 0.260360 1.487985
V4    V     V_3+5 0.249460 0.696990 0.739640 1.488715
C9    C     C_1   0.469240 0.994547 0.530611 0.009574
C10   C     C_1   0.530740 0.005440 0.469361 0.008972
C11   C     C_1   0.030684 0.494542 0.969295 0.009367
C12   C     C_1   0.969279 0.505438 0.030659 0.009503
C13   C     C_R   0.020685 0.031433 0.310835 0.313961
C14   C     C_R   0.979286 0.964555 0.688996 0.314260
C15   C     C_R   0.475751 0.538301 0.187551 0.308573
C16   C     C_R   0.524150 0.465358 0.812124 0.307166
C17   C     C_R   0.096974 0.033107 0.280961 -0.296744
C18   C     C_R   0.903023 0.963963 0.718935 -0.296930
C19   C     C_R   0.398573 0.535609 0.215322 -0.270508
C20   C     C_R   0.601404 0.462548 0.784601 -0.270112
C21   C     C_R   0.163727 0.021146 0.340086 0.257468
C22   C     C_R   0.836326 0.980352 0.660011 0.256711
C23   C     C_R   0.333346 0.513449 0.154637 0.183478
C24   C     C_R   0.666810 0.476560 0.845654 0.182224
C25   C     C_R   0.155938 0.007639 0.432155 0.166254
C26   C     C_R   0.844135 0.997603 0.568093 0.166726
C27   C     C_R   0.343269 0.496154 0.062957 0.183971
C28   C     C_R   0.656915 0.494321 0.937330 0.184155
C29   C     C_R   0.078723 0.003381 0.468046 -0.105475
C30   C     C_R   0.921299 0.998193 0.532033 -0.105950
C31   C     C_R   0.421087 0.499704 0.030021 -0.052654
C32   C     C_R   0.578981 0.497201 0.970006 -0.052090
C33   C     C_R   0.009610 0.015872 0.405364 0.016473
C34   C     C_R   0.990385 0.983095 0.594599 0.016472
C35   C     C_R   0.488829 0.517571 0.094028 -0.019140
C36   C     C_R   0.511167 0.482956 0.905831 -0.018872
C37   C     C_R   0.068495 0.987048 0.562693 -0.117949
C38   C     C_R   0.931505 0.013185 0.437327 -0.118231
C39   C     C_R   0.432578 0.485600 0.935980 -0.130912
C40   C     C_R   0.567440 0.514099 0.063956 -0.130943
C41   C     C_1   0.417037 0.985721 0.582699 -0.136956
C42   C     C_1   0.582942 0.014284 0.417274 -0.138007
C43   C     C_1   0.082855 0.485717 0.917172 -0.185193
C44   C     C_1   0.917118 0.514270 0.082795 -0.185019
N1    N     N_3   0.229650 0.999393 0.485643 -0.667652
H5    H     H_    0.235522 0.114904 0.527047 0.232471
H6    H     H_    0.234842 0.872826 0.518624 0.219624
N2    N     N_3   0.770520 0.014698 0.514981 -0.666829
H7    H     H_    0.762396 0.900281 0.473172 0.218715
H8    H     H_    0.767650 0.141942 0.482443 0.231946
N3    N     N_3   0.272777 0.474061 0.004381 -0.688787
H9    H     H_    0.236188 0.588532 0.012035 0.238980
H10   H     H_    0.242962 0.355614 0.023360 0.243815
N4    N     N_3   0.727571 0.509747 0.996193 -0.689334
H11   H     H_    0.762287 0.392077 0.988621 0.242549
H12   H     H_    0.759393 0.625407 0.977468 0.240722
N5    N     N_3   0.758374 0.981082 0.693051 -0.635361
H13   H     H_    0.762102 0.976043 0.763151 0.215821
H14   H     H_    0.729331 0.860536 0.670489 0.237568
N6    N     N_3   0.241755 0.025412 0.307268 -0.633211
H15   H     H_    0.238163 0.041670 0.237574 0.216008
H16   H     H_    0.268380 0.897173 0.320811 0.236241
N7    N     N_3   0.745122 0.472490 0.814628 -0.676231
H17   H     H_    0.749829 0.580810 0.769235 0.228290
H18   H     H_    0.751692 0.348871 0.780055 0.256086
N8    N     N_3   0.255167 0.509002 0.185996 -0.677146
H19   H     H_    0.253271 0.402654 0.232991 0.254395
H20   H     H_    0.245592 0.633317 0.218756 0.227510
O21   O     O_3   0.956933 0.045644 0.246968 -0.638934
H21   H     H_    0.975398 0.055933 0.185805 0.284125
O22   O     O_3   0.042984 0.946047 0.752646 -0.638963
H22   H     H_    0.024505 0.934239 0.813740 0.284172
O23   O     O_3   0.538299 0.562722 0.252068 -0.648416
H23   H     H_    0.518410 0.575494 0.312441 0.284385
O24   O     O_3   0.461414 0.449686 0.747135 -0.648367
H24   H     H_    0.481251 0.438201 0.686677 0.284672

loop_
_geom_bond_atom_site_label_1
_geom_bond_atom_site_label_2
_ccdc_geom_bond_type
C30   C34   A    
C16   C20   A    
C4    C41   S    
C10   C42   T    
O1    C5    A    
O23   H23   S    
C27   C31   A    
N1    H5    S    
O3    C7    A    
C1    C44   S    
C13   C33   A    
O21   H21   S    
C3    C42   S    
C15   C35   A    
N5    H13   S    
C16   C36   A    
O7    C3    A    
C28   N4    S    
C22   C26   A    
C7    C38   S    
N2    H8    S    
C9    C41   T    
C14   C18   A    
O4    C8    A    
O3    V1    S    
O2    V4    S    
O8    V4    S    
C22   N5    S    
C31   C39   A    
C33   C38   A    
C30   C38   A    
C3    O13   A    
C2    O16   A    
O5    V1    S    
O2    C6    A    
O19   V1    S    
C14   C34   A    
C2    C43   S    
O11   C7    A    
O12   C8    A    
N1    H6    S    
C21   N6    S    
O13   V1    S    
O11   V3    S    
C16   O24   S    
C1    O15   A    
N5    H14   S    
O4    V2    S    
C36   C39   A    
N2    H7    S    
N7    H17   S    
N3    H10   S    
C25   C29   A    
C19   C23   A    
O6    V2    S    
O20   V2    S    
C15   O23   S    
O5    C1    A    
C9    C10   S    
N7    H18   S    
C27   N3    S    
O22   H22   S    
C17   C21   A    
O8    C4    A    
O9    C5    A    
N8    H20   S    
O14   V2    S    
C8    C37   S    
C26   N2    S    
N6    H16   S    
N4    H11   S    
N4    H12   S    
C5    C40   S    
C13   O21   S    
H1    C17   S    
C11   C12   S    
O1    V3    S    
C26   C30   A    
H3    C19   S    
O17   V3    S    
C35   C40   A    
H4    C20   S    
C11   C43   T    
C12   C44   T    
C34   C37   A    
O7    V3    S    
C25   N1    S    
C29   C37   A    
O10   V2    S    
C29   C33   A    
C18   C22   A    
C31   C35   A    
O18   V4    S    
C32   C36   A    
O10   C6    A    
O15   V3    S    
C14   O22   S    
O12   V4    S    
C21   C25   A    
C23   C27   A    
N8    H19   S    
C6    C39   S    
O6    C2    A    
H2    C18   S    
C23   N8    S    
N3    H9    S    
O16   V4    S    
C28   C32   A    
C20   C24   A    
N6    H15   S    
C32   C40   A    
O9    V1    S    
C4    O14   A    
O24   H24   S    
C13   C17   A    
C24   N7    S    
C15   C19   A    
C24   C28   A    
