data_mof_unit_34631.cif
_audit_creation_date              2012-12-11T15:23:33-0500
_audit_creation_method            fapswitch 2.2
_symmetry_space_group_name_H-M    P1
_symmetry_Int_Tables_number       1
_space_group_crystal_system       triclinic
_cell_length_a                    6.927951
_cell_length_b                    17.482321
_cell_length_c                    19.309926
_cell_angle_alpha                 109.446801
_cell_angle_beta                  90.345416
_cell_angle_gamma                 90.514659
_cell_volume                      2205.14044224

loop_
_atom_site_label
_atom_site_type_symbol
_atom_type_description
_atom_site_fract_x
_atom_site_fract_y
_atom_site_fract_z
_atom_type_partial_charge
O1    O     O_R   0.505810 0.439670 0.562310 -0.534266
O2    O     O_R   0.169070 0.404920 0.411210 -0.534434
O3    O     O_R   0.005550 0.560330 0.437690 -0.530024
C1    C     C_R   0.338415 0.381605 0.383066 0.773739
O4    O     O_R   0.175650 0.430000 0.560110 -0.540509
O5    O     O_R   0.012170 0.585580 0.587650 -0.543160
C2    C     C_R   0.345280 0.411625 0.578904 0.717519
O6    O     O_R   0.499180 0.414420 0.412350 -0.537747
O7    O     O_3   0.341430 0.551020 0.508860 -0.375068
V1    V     V_3+5 0.063930 0.490540 0.498360 1.460220
O8    O     O_R   0.682850 0.595080 0.588790 -0.542362
C3    C     C_R   0.853044 0.618210 0.616861 0.703901
O9    O     O_R   0.676280 0.570000 0.439890 -0.546422
C4    C     C_R   0.844990 0.584729 0.417876 0.716946
V2    V     V_3+5 0.564760 0.509460 0.501640 1.459605
O10   O     O_3   0.837130 0.448980 0.491140 -0.362116
C5    C     C_R   0.067860 0.864357 0.177960 -0.181083
C6    C     C_R   0.915023 0.863600 0.129570 -0.105062
C7    C     C_R   0.751229 0.814725 0.127703 -0.209238
C8    C     C_R   0.739648 0.765720 0.172730 0.059677
C9    C     C_R   0.891800 0.769276 0.222979 -0.009896
C10   C     C_R   0.056102 0.818692 0.225415 0.103007
C11   C     C_R   0.579177 0.713693 0.169240 0.284088
C12   C     C_R   0.567516 0.669968 0.218508 -0.255707
C13   C     C_R   0.715811 0.674772 0.269551 0.055434
C14   C     C_R   0.880157 0.723480 0.271003 0.050550
C15   C     C_R   0.033065 0.726559 0.320616 0.101991
C16   C     C_R   0.195537 0.775588 0.322163 -0.189150
C17   C     C_R   0.206607 0.821465 0.275216 -0.170843
C18   C     C_R   0.703420 0.630834 0.318605 -0.210950
C19   C     C_R   0.855730 0.633263 0.367894 -0.085173
C20   C     C_R   0.020897 0.680724 0.367957 -0.209229
H1    H     H_    0.194415 0.901982 0.179844 0.125333
H2    H     H_    0.633667 0.814624 0.090445 0.165745
H3    H     H_    0.442733 0.631274 0.216195 0.139846
H4    H     H_    0.576959 0.593369 0.317375 0.131439
H5    H     H_    0.139043 0.682918 0.405687 0.129176
H6    H     H_    0.314391 0.778454 0.359723 0.137488
H7    H     H_    0.333886 0.858749 0.277494 0.136551
C21   C     C_3   0.707204 0.779834 0.772737 -0.168963
C22   C     C_3   0.805952 0.775447 0.700244 0.298082
H8    H     H_    0.560739 0.803242 0.790533 0.117640
C23   C     C_3   0.869235 0.688157 0.687415 -0.126212
C24   C     C_3   0.777055 0.692966 0.760623 0.306281
C25   C     C_3   0.967940 0.724225 0.802345 -0.139703
C26   C     C_3   0.062171 0.720728 0.728347 -0.194492
C27   C     C_3   0.997597 0.809217 0.740114 -0.172403
C28   C     C_3   0.901763 0.811656 0.812978 -0.095234
H9    H     H_    0.034281 0.703019 0.845094 0.107921
H10   H     H_    0.207864 0.696566 0.710197 0.139523
H11   H     H_    0.087918 0.858047 0.731594 0.116339
C29   C     C_3   0.557753 0.279696 0.280236 -0.153105
C30   C     C_3   0.483315 0.191276 0.264063 -0.149904
H12   H     H_    0.564662 0.142532 0.275861 0.133409
H13   H     H_    0.701020 0.303349 0.304493 0.135885
C31   C     C_3   0.413911 0.189311 0.187323 -0.086486
C32   C     C_3   0.484822 0.276717 0.203904 0.270236
C33   C     C_3   0.287753 0.309467 0.235371 0.008252
C34   C     C_3   0.213338 0.221506 0.219308 -0.194877
C35   C     C_3   0.283663 0.224128 0.296706 -0.130228
C36   C     C_3   0.356762 0.311932 0.312019 -0.110650
H14   H     H_    0.070313 0.197978 0.194676 0.135322
H15   H     H_    0.198970 0.202451 0.335283 0.136277
C37   C     C_R   0.563000 0.126227 0.816164 -0.212710
C38   C     C_R   0.416913 0.132899 0.867835 -0.083826
C39   C     C_R   0.257946 0.182675 0.868922 -0.201733
C40   C     C_R   0.246220 0.226349 0.819733 0.096383
C41   C     C_R   0.392448 0.218467 0.767055 0.068201
C42   C     C_R   0.549448 0.167372 0.765052 0.076517
C43   C     C_R   0.089931 0.277336 0.822089 -0.180497
C44   C     C_R   0.080324 0.321607 0.773976 -0.156995
C45   C     C_R   0.225024 0.314690 0.721696 0.136807
C46   C     C_R   0.380855 0.261429 0.716463 0.051328
C47   C     C_R   0.522307 0.250296 0.660665 -0.037861
C48   C     C_R   0.669802 0.191458 0.655714 -0.011432
C49   C     C_R   0.686503 0.154940 0.710017 -0.232240
C50   C     C_R   0.215180 0.361039 0.675308 -0.169526
C51   C     C_R   0.356925 0.355604 0.622676 -0.151475
C52   C     C_R   0.509168 0.298782 0.613569 -0.066585
H16   H     H_    0.683919 0.086523 0.813982 0.120197
H17   H     H_    0.144377 0.188090 0.908625 0.136039
H18   H     H_    0.975737 0.283566 0.861642 0.135676
H19   H     H_    0.958870 0.361365 0.777586 0.129211
H20   H     H_    0.098520 0.403754 0.681696 0.147412
H21   H     H_    0.801969 0.112318 0.706748 0.141632
O11   O     O_R   0.271890 0.085690 0.087580 -0.536719
O12   O     O_R   0.595690 0.070020 0.939870 -0.541272
O13   O     O_R   0.758900 0.914390 0.912370 -0.542120
C53   C     C_R   0.426701 0.085124 0.918258 0.719149
O14   O     O_R   0.602020 0.095100 0.088770 -0.544757
O15   O     O_R   0.765280 0.939660 0.062330 -0.541516
C54   C     C_R   0.432610 0.118859 0.116699 0.714825
O16   O     O_R   0.265520 0.060430 0.937620 -0.540206
O17   O     O_3   0.429560 0.949050 0.991100 -0.371405
V3    V     V_3+5 0.707160 0.009450 0.001650 1.406785
O18   O     O_R   0.094540 0.929890 0.060190 -0.540810
C55   C     C_R   0.925634 0.914322 0.081432 0.706917
O19   O     O_R   0.088200 0.904800 0.911290 -0.542382
C56   C     C_R   0.917966 0.881618 0.883306 0.704554
V4    V     V_3+5 0.206300 0.990390 0.998440 1.413744
O20   O     O_3   0.934030 0.050940 0.008900 -0.367534
N1    N     N_2   0.657434 0.629094 0.770388 -0.519444
H22   H     H_    0.550317 0.609477 0.730954 0.250710
C57   C     C_3   0.586766 0.644918 0.844076 -0.569091
H23   H     H_    0.507010 0.590728 0.847015 0.200976
H24   H     H_    0.487238 0.697311 0.859166 0.189513
H25   H     H_    0.708881 0.657729 0.883985 0.200471
N2    N     N_2   0.596788 0.304084 0.153339 -0.512432
H26   H     H_    0.709769 0.266084 0.130971 0.265686
C58   C     C_3   0.654997 0.388635 0.180644 -0.483149
H27   H     H_    0.739326 0.403527 0.138019 0.222158
H28   H     H_    0.745929 0.401167 0.230828 0.184691
H29   H     H_    0.527152 0.428426 0.193463 0.198029
C59   C     C_2   0.177139 0.373215 0.216504 0.702700
O21   O     O_2   0.127165 0.361057 0.152905 -0.555909
O22   O     O_R   0.134806 0.446537 0.271107 -0.683352
H30   H     H_    0.062915 0.485159 0.251215 0.283058
C60   C     C_2   0.652384 0.292580 0.555387 0.805197
O23   O     O_2   0.600669 0.269925 0.490963 -0.554248
O24   O     O_R   0.844830 0.314381 0.574325 -0.664772
H31   H     H_    0.929065 0.305198 0.529610 0.302378
C61   C     C_2   0.800620 0.159014 0.592738 0.785020
O25   O     O_2   0.734003 0.127381 0.530860 -0.549794
O26   O     O_R   0.999869 0.160002 0.604956 -0.656321
H32   H     H_    0.074646 0.135494 0.557915 0.304007
N3    N     N_2   0.428692 0.704834 0.116438 -0.521351
H33   H     H_    0.295397 0.692100 0.133767 0.268737
C62   C     C_3   0.472629 0.649555 0.043987 -0.567511
H34   H     H_    0.487550 0.586859 0.045465 0.204397
H35   H     H_    0.608324 0.667936 0.023197 0.199530
H36   H     H_    0.353778 0.650150 0.005331 0.198564
N4    N     N_2   0.719546 0.802016 0.643866 -0.518418
H37   H     H_    0.799311 0.786309 0.596374 0.246689
C63   C     C_3   0.659614 0.885744 0.668265 -0.536840
H38   H     H_    0.587670 0.899210 0.622163 0.207174
H39   H     H_    0.786721 0.926919 0.686850 0.183906
H40   H     H_    0.555040 0.897140 0.713881 0.194532

loop_
_geom_bond_atom_site_label_1
_geom_bond_atom_site_label_2
_ccdc_geom_bond_type
C9    C14   A    
C48   C49   A    
N3    H33   S    
C59   O22   S    
C10   C17   A    
C48   C61   S    
C37   H16   S    
C46   C47   A    
C7    C8    A    
C4    C19   S    
C1    O6    A    
C62   H34   S    
C63   H40   S    
C57   H24   S    
C59   O21   D    
O14   V3    S    
C50   C51   A    
C31   C32   S    
C38   C53   S    
C14   C15   A    
C35   H15   S    
C16   C17   A    
C3    C23   S    
C29   C36   S    
O5    C3    A    
C18   C19   A    
C25   C28   S    
C25   H9    S    
V2    O10   S    
C52   C60   S    
N2    H26   S    
C42   C49   A    
C6    C7    A    
C60   O23   D    
C58   H27   S    
O8    V2    S    
C27   C28   S    
N4    H37   S    
O12   V3    S    
C11   C12   A    
C43   C44   A    
O1    V2    S    
C6    C55   S    
C16   H6    S    
O11   V4    S    
O7    V1    S    
C29   H13   S    
C33   C36   S    
C21   H8    S    
C39   C40   A    
O13   V3    S    
C34   C35   S    
O9    C4    A    
C53   O16   A    
C22   C23   S    
O17   V3    S    
C5    H1    S    
O4    V1    S    
C57   H23   S    
C30   C35   S    
C44   H19   S    
C12   H3    S    
C47   C48   A    
C40   C41   A    
C12   C13   A    
O4    C2    A    
C24   N1    S    
C51   C52   A    
C41   C42   A    
C63   H39   S    
C50   H20   S    
C41   C46   A    
C30   H12   S    
C1    C36   S    
C35   C36   S    
O2    C1    A    
C23   C24   S    
C45   C50   A    
O14   C54   A    
C19   C20   A    
C58   H29   S    
C8    C11   A    
O17   V4    S    
O18   C55   A    
C17   H7    S    
C5    C6    A    
C22   C27   S    
C20   H5    S    
O15   C55   A    
N1    C57   S    
O16   V4    S    
O3    C4    A    
C2    C51   S    
C60   O24   S    
C21   C22   S    
C38   C39   A    
O6    V2    S    
O19   V4    S    
C47   C52   A    
C11   N3    S    
C33   C34   S    
C61   O26   S    
O2    V1    S    
C62   H36   S    
C24   C25   S    
C30   C31   S    
C13   C18   A    
C21   C28   S    
C28   C56   S    
C26   C27   S    
C34   H14   S    
N3    C62   S    
C15   C20   A    
O1    C2    A    
C45   C46   A    
C7    H2    S    
C62   H35   S    
O5    V1    S    
C22   N4    S    
C27   H11   S    
O8    C3    A    
C63   H38   S    
C37   C42   A    
C26   H10   S    
C5    C10   A    
C31   C34   S    
C18   H4    S    
C40   C43   A    
C37   C38   A    
O9    V2    S    
C13   C14   A    
C44   C45   A    
O3    V1    S    
V1    O10   S    
C39   H17   S    
C32   C33   S    
O18   V4    S    
V4    O20   S    
N2    C58   S    
O22   H30   S    
O7    V2    S    
N1    H22   S    
C43   H18   S    
C23   C26   S    
C58   H28   S    
O13   C56   A    
C29   C32   S    
O15   V3    S    
C25   C26   S    
C21   C24   S    
C32   N2    S    
C8    C9    A    
N4    C63   S    
O19   C56   A    
C15   C16   A    
C33   C59   S    
O12   C53   A    
O24   H31   S    
O11   C54   A    
C61   O25   D    
C9    C10   A    
C31   C54   S    
C49   H21   S    
C57   H25   S    
V3    O20   S    
C29   C30   S    
O26   H32   S    
