data_mof_unit_13475.cif
_audit_creation_date              2012-10-26T18:29:56-0400
_audit_creation_method            fapswitch 2.2
_symmetry_space_group_name_H-M    P1
_symmetry_Int_Tables_number       1
_space_group_crystal_system       triclinic
_cell_length_a                    10.882092
_cell_length_b                    13.035611
_cell_length_c                    11.864747
_cell_angle_alpha                 100.092976
_cell_angle_beta                  94.382352
_cell_angle_gamma                 93.120694
_cell_volume                      1648.23071472

loop_
_atom_site_label
_atom_site_type_symbol
_atom_type_description
_atom_site_fract_x
_atom_site_fract_y
_atom_site_fract_z
_atom_type_partial_charge
C1    C     C_R   0.497048 0.299723 0.478350 0.583614
C2    C     C_R   0.546777 0.032188 0.543810 0.048961
C3    C     C_R   0.462771 0.970081 0.458024 -0.084276
C4    C     C_R   0.260190 0.501188 0.500549 0.636738
C5    C     C_R   0.446038 0.861767 0.454538 0.199324
C6    C     C_R   0.598086 0.876137 0.619599 0.166168
C7    C     C_R   0.608021 0.985771 0.629235 0.272772
C8    C     C_R   0.383370 0.396492 0.021829 0.229067
C9    C     C_R   0.399721 0.403755 0.143687 0.396132
C10   C     C_R   0.541578 0.550818 0.157610 0.145571
C11   C     C_R   0.542639 0.536537 0.034885 -0.141230
C12   C     C_3   0.877626 0.501028 0.502720 -0.058749
C13   C     C_R   0.461888 0.458840 0.965683 -0.020694
C14   C     C_R   0.460061 0.447268 0.842329 0.213282
C15   C     C_R   0.599334 0.596703 0.859697 0.361296
C16   C     C_R   0.506881 0.700699 0.521474 0.651999
C17   C     C_R   0.618722 0.600364 0.978887 0.078344
C18   C     C_R   0.739697 0.500641 0.500639 0.572372
C19   C     C_3   0.079837 0.511722 0.631107 -0.099623
C20   C     C_3   0.939115 0.528021 0.630332 -0.123346
C21   C     C_3   0.071239 0.595800 0.448607 -0.123786
C22   C     C_3   0.059249 0.392756 0.433146 0.213805
C23   C     C_3   0.928127 0.580928 0.431034 -0.238744
C24   C     C_3   0.121919 0.502409 0.503098 -0.036031
C25   C     C_2   0.157296 0.581979 0.732147 0.665784
C26   C     C_2   0.402977 0.348964 0.772724 0.715260
C27   C     C_2   0.730661 0.662863 0.038527 0.640805
C28   C     C_2   0.591790 0.651867 0.225986 0.649681
C29   C     C_2   0.910165 0.632622 0.699086 0.638027
C30   C     C_2   0.118414 0.703968 0.512366 0.618448
C31   C     C_2   0.078877 0.368080 0.304355 0.692615
C32   C     C_3   0.916464 0.389594 0.450706 0.045691
C33   C     C_R   0.516574 0.814956 0.533034 0.051975
C34   C     C_R   0.492703 0.186220 0.465814 0.034360
C35   C     C_R   0.397550 0.017040 0.376401 -0.108744
C36   C     C_R   0.406730 0.125061 0.383710 0.213314
C37   C     C_R   0.567860 0.139533 0.542117 0.258882
Cu1   Cu    Cu3+1 0.509350 0.507730 0.615930 1.083306
Cu2   Cu    Cu3+1 0.490650 0.492270 0.384070 1.162684
H1    H     H_    0.105972 0.595276 0.363479 0.179407
H2    H     H_    0.283299 0.834273 0.373538 0.333155
H3    H     H_    0.747377 0.871273 0.719108 0.374287
H4    H     H_    0.669587 0.014102 0.790599 0.348475
H5    H     H_    0.272154 0.119070 0.263754 0.336680
H6    H     H_    0.694927 0.254647 0.577442 0.318501
H7    H     H_    0.261304 0.274255 0.665396 0.354329
H8    H     H_    0.673272 0.644337 0.736113 0.401997
H9    H     H_    0.217156 0.329945 0.006740 0.346054
H10   H     H_    0.825971 0.803261 0.079373 0.345063
H11   H     H_    0.314815 0.269488 0.143195 0.333410
H12   H     H_    0.901258 0.552857 0.338179 0.177738
H13   H     H_    0.724135 0.732678 0.339719 0.332752
H14   H     H_    0.909942 0.721897 0.856339 0.378908
H15   H     H_    0.263878 0.798285 0.590391 0.348198
H16   H     H_    0.072320 0.256533 0.161837 0.341504
H17   H     H_    0.064081 0.245736 0.453239 0.371499
H18   H     H_    0.336308 0.971100 0.307770 0.150242
H19   H     H_    0.088159 0.432777 0.653186 0.189689
H20   H     H_    0.898773 0.469476 0.677825 0.122100
H21   H     H_    0.883238 0.655322 0.449730 0.225489
H22   H     H_    0.899620 0.339478 0.515702 0.169031
H23   H     H_    0.220565 0.726205 0.814265 0.353474
H24   H     H_    0.842382 0.386976 0.293445 0.356009
N1    N     N_R   0.523430 0.519360 0.790130 -0.306759
N2    N     N_R   0.476570 0.480640 0.209880 -0.251466
O1    O     O_R   0.506640 0.354460 0.582000 -0.512700
O2    O     O_R   0.167993 0.690470 0.742431 -0.635357
O3    O     O_3   0.841250 0.340898 0.351427 -0.665614
O4    O     O_3   0.361947 0.799486 0.374770 -0.616854
O5    O     O_3   0.670748 0.826764 0.690782 -0.633559
O6    O     O_3   0.674106 0.048460 0.722699 -0.586099
O7    O     O_3   0.329278 0.172679 0.314332 -0.625218
O8    O     O_3   0.663490 0.196637 0.613625 -0.579197
O9    O     O_2   0.452105 0.267501 0.777801 -0.457881
O10   O     O_R   0.290938 0.347168 0.706834 -0.620235
O11   O     O_3   0.663614 0.671839 0.816255 -0.605116
O12   O     O_R   0.490840 0.341410 0.386200 -0.412613
O13   O     O_3   0.286869 0.333809 0.958241 -0.662541
O14   O     O_2   0.810572 0.620089 0.087639 -0.481373
O15   O     O_R   0.745703 0.769671 0.036280 -0.614423
O16   O     O_3   0.336033 0.335691 0.198115 -0.588615
O17   O     O_2   0.541760 0.731281 0.213049 -0.455381
O18   O     O_R   0.698826 0.658328 0.299980 -0.682603
O19   O     O_2   0.871002 0.701714 0.651936 -0.468507
O20   O     O_R   0.927533 0.648681 0.819123 -0.634918
O21   O     O_2   0.049376 0.774977 0.529619 -0.455728
O22   O     O_R   0.243981 0.724556 0.546228 -0.665933
O23   O     O_R   0.325590 0.506510 0.597900 -0.460055
O24   O     O_2   0.106991 0.435865 0.250113 -0.517987
O25   O     O_R   0.059419 0.264515 0.246580 -0.631770
O26   O     O_3   0.113186 0.312896 0.482618 -0.711345
O27   O     O_R   0.309790 0.493450 0.402100 -0.437957
O28   O     O_R   0.509160 0.658590 0.613800 -0.474020
O29   O     O_R   0.493360 0.645540 0.418000 -0.453734
O30   O     O_R   0.690210 0.506550 0.597900 -0.566546
O31   O     O_R   0.674410 0.493490 0.402100 -0.467717
O32   O     O_2   0.205800 0.542340 0.808917 -0.453228

loop_
_geom_bond_atom_site_label_1
_geom_bond_atom_site_label_2
_ccdc_geom_bond_type
C8    C13   A    
C34   C37   A    
C1    O12   A    
C35   C36   A    
C25   O2    S    
C12   C23   S    
C16   O28   A    
C22   C32   S    
H23   O2    S    
Cu2   O12   S    
H8    O11   S    
H16   O25   S    
C27   O14   D    
C7    O6    S    
Cu1   Cu2   S    
C4    C24   S    
H3    O5    S    
C18   O31   A    
H6    O8    S    
H9    O13   S    
C5    O4    S    
C2    C7    A    
H17   O26   S    
Cu1   O1    S    
C8    C9    A    
C31   O24   D    
C5    C33   A    
Cu1   O30   S    
C22   O26   S    
H5    O7    S    
C30   O21   D    
C29   O20   S    
C32   O3    S    
C15   O11   S    
C13   C14   A    
C12   C32   S    
C28   O18   S    
C8    O13   S    
C18   O30   A    
Cu2   N2    S    
H7    O10   S    
C1    C34   S    
C1    O1    A    
Cu1   N1    S    
C20   C29   S    
C19   H19   S    
C23   H21   S    
C22   C31   S    
C28   O17   D    
C17   C27   S    
C29   O19   D    
C27   O15   S    
Cu1   O23   S    
H13   O18   S    
Cu2   O29   S    
C16   C33   S    
C23   H12   S    
C3    C35   A    
C15   N1    A    
C31   O25   S    
C14   N1    A    
C12   C20   S    
C26   O10   S    
C14   C26   S    
C20   H20   S    
C25   O32   D    
C21   C23   S    
C22   C24   S    
Cu2   O27   S    
H2    O4    S    
C10   N2    A    
C10   C28   S    
C6    O5    S    
C37   O8    S    
H24   O3    S    
C11   C17   A    
H4    O6    S    
C3    C5    A    
C32   H22   S    
C6    C33   A    
C15   C17   A    
C6    C7    A    
C4    O23   A    
C21   C30   S    
C16   O29   A    
H10   O15   S    
C35   H18   S    
C19   C20   S    
C19   C24   S    
C11   C13   A    
C2    C37   A    
H15   O22   S    
C21   H1    S    
Cu1   O28   S    
C26   O9    D    
C2    C3    A    
C34   C36   A    
C19   C25   S    
C9    N2    A    
Cu2   O31   S    
C10   C11   A    
C21   C24   S    
C12   C18   S    
H14   O20   S    
C30   O22   S    
C36   O7    S    
H11   O16   S    
C9    O16   S    
C4    O27   A    
