data_mof_unit_60729.cif
_audit_creation_date              2012-12-10T17:56:59-0500
_audit_creation_method            fapswitch 2.2
_symmetry_space_group_name_H-M    P1
_symmetry_Int_Tables_number       1
_space_group_crystal_system       triclinic
_cell_length_a                    18.602646
_cell_length_b                    18.68334
_cell_length_c                    18.758773
_cell_angle_alpha                 109.581924
_cell_angle_beta                  109.506025
_cell_angle_gamma                 109.251336
_cell_volume                      5023.50462149

loop_
_atom_site_label
_atom_site_type_symbol
_atom_type_description
_atom_site_fract_x
_atom_site_fract_y
_atom_site_fract_z
_atom_type_partial_charge
C1    C     C_R   0.379862 0.379770 0.500124 0.861810
C2    C     C_R   0.313944 0.313730 0.500393 -0.009101
C3    C     C_R   0.332544 0.586652 0.316060 0.055678
C4    C     C_R   0.622616 0.501849 0.620749 0.897987
C5    C     C_R   0.263688 0.586756 0.255706 0.418804
C6    C     C_R   0.185982 0.506293 0.190145 -0.163062
C7    C     C_R   0.174747 0.427966 0.188225 -0.235042
C8    C     C_R   0.240684 0.428222 0.250119 -0.214958
C9    C     C_R   0.318623 0.506580 0.313831 -0.113890
C10   C     C_R   0.754894 0.761005 0.579184 -0.172674
C11   C     C_R   0.819384 0.824474 0.579176 -0.187404
C12   C     C_3   0.808860 0.498166 0.806947 0.128081
C13   C     C_R   0.813323 0.813923 0.499716 -0.005781
C14   C     C_R   0.744218 0.740060 0.420311 -0.188383
C15   C     C_R   0.681273 0.675216 0.420487 -0.181947
C16   C     C_R   0.620293 0.620270 0.499973 0.877602
C17   C     C_R   0.686479 0.686376 0.499886 -0.007627
C18   C     C_R   0.997901 0.379694 0.877580 0.859929
C19   C     C_R   0.876396 0.498201 0.874942 0.854220
C20   C     C_R   0.996890 0.620217 0.117104 0.848551
C21   C     C_R   0.118457 0.502073 0.120124 0.868800
C22   C     C_R   0.000996 0.880008 0.380405 0.858461
C23   C     C_3   0.807685 0.584405 0.847786 -0.431120
C24   C     C_R   0.120357 0.120135 0.500099 0.857849
C25   C     C_R   0.999180 0.120027 0.619374 0.856631
C26   C     C_R   0.879685 0.879826 0.499814 0.859030
C27   C     C_R   0.078410 0.322071 0.819882 -0.182489
C28   C     C_R   0.382211 0.503043 0.379456 0.878718
C29   C     C_R   0.078717 0.257387 0.756903 -0.185059
C30   C     C_R   0.998796 0.186266 0.685051 -0.008089
C31   C     C_R   0.918555 0.178530 0.676116 -0.185138
C32   C     C_R   0.918243 0.241877 0.740453 -0.190789
C33   C     C_R   0.998180 0.313600 0.811685 -0.007676
C34   C     C_3   0.716327 0.419122 0.767056 -0.373257
C35   C     C_R   0.998965 0.758840 0.177585 -0.185625
C36   C     C_R   0.999447 0.822558 0.242260 -0.183314
C37   C     C_R   0.001709 0.814509 0.314298 -0.010545
C38   C     C_R   0.002687 0.742956 0.321930 -0.182140
C39   C     C_R   0.999558 0.677893 0.255931 -0.185360
C40   C     C_3   0.761249 0.496114 0.662863 0.296182
C41   C     C_R   0.998123 0.686421 0.184329 -0.006983
C42   C     C_3   0.830847 0.492900 0.733130 -0.464637
C43   C     C_3   0.734628 0.584537 0.778877 -0.389278
C44   C     C_3   0.646819 0.419993 0.695106 -0.514538
C45   C     C_R   0.241697 0.321600 0.499856 -0.184532
C46   C     C_3   0.690543 0.501674 0.688189 0.094356
C47   C     C_3   0.419599 0.672070 0.379969 -0.377699
C48   C     C_3   0.471316 0.694095 0.334329 -0.337113
C49   C     C_3   0.555487 0.782790 0.396183 -0.862035
C50   C     C_R   0.177129 0.256974 0.498625 -0.184831
C51   C     C_R   0.186807 0.186510 0.500604 -0.010009
C52   C     C_R   0.259859 0.179444 0.502707 -0.183976
C53   C     C_R   0.323132 0.242739 0.501273 -0.190265
H1    H     H_    0.698401 0.422359 0.818613 0.194396
H2    H     H_    0.230682 0.367145 0.248827 0.160367
H3    H     H_    0.758984 0.769235 0.640669 0.144938
H4    H     H_    0.873068 0.882112 0.640562 0.142109
H5    H     H_    0.740045 0.732164 0.358881 0.142677
H6    H     H_    0.627824 0.617493 0.359061 0.142760
H7    H     H_    0.140246 0.377694 0.875450 0.144772
H8    H     H_    0.140799 0.263293 0.763327 0.144411
H9    H     H_    0.856722 0.123043 0.620410 0.142992
H10   H     H_    0.856175 0.235855 0.734205 0.137927
H11   H     H_    0.997720 0.765063 0.121836 0.139320
H12   H     H_    0.684921 0.585148 0.799211 0.192760
H13   H     H_    0.831548 0.430799 0.703117 0.136742
H14   H     H_    0.998987 0.878347 0.236754 0.144198
H15   H     H_    0.003964 0.736765 0.377692 0.147139
H16   H     H_    0.999562 0.621842 0.261123 0.144109
H17   H     H_    0.897613 0.547393 0.759850 0.203354
H18   H     H_    0.761876 0.645490 0.775954 0.167369
H19   H     H_    0.872119 0.641657 0.873148 0.177415
H20   H     H_    0.594043 0.420465 0.710493 0.185301
H21   H     H_    0.615572 0.359095 0.631791 0.172612
H22   H     H_    0.716607 0.356462 0.739168 0.169063
H23   H     H_    0.796475 0.591570 0.903910 0.167022
H24   H     H_    0.837447 0.620116 0.705515 0.336008
H25   H     H_    0.539338 0.835790 0.416131 0.265228
H26   H     H_    0.597044 0.783891 0.455402 0.268478
H27   H     H_    0.593397 0.795248 0.362660 0.255812
H28   H     H_    0.488736 0.642654 0.311263 0.204372
H29   H     H_    0.430706 0.695865 0.276721 0.265367
H30   H     H_    0.406772 0.725854 0.408536 0.237989
H31   H     H_    0.462200 0.670176 0.435994 0.203684
H32   H     H_    0.215729 0.662424 0.242340 0.334855
H33   H     H_    0.234777 0.376693 0.498895 0.145206
H34   H     H_    0.120542 0.262385 0.497414 0.145876
H35   H     H_    0.266900 0.124473 0.503892 0.144973
H36   H     H_    0.379604 0.237245 0.502182 0.139263
H37   H     H_    0.115321 0.366280 0.137937 0.173543
H38   H     H_    0.728845 0.433894 0.600444 0.149102
O1    O     O_R   0.408680 0.356690 0.448540 -0.624448
O2    O     O_R   0.052580 0.908350 0.460820 -0.621068
O3    O     O_R   0.039640 0.091520 0.447910 -0.622416
O4    O     O_R   0.408060 0.460070 0.551440 -0.620392
O5    O     O_R   0.143620 0.091540 0.551930 -0.623032
O6    O     O_R   0.947420 0.091470 0.539000 -0.622488
O7    O     O_R   0.051410 0.091490 0.643030 -0.622660
O8    O     O_R   0.856380 0.908290 0.447890 -0.624926
O9    O     O_R   0.960370 0.908300 0.551910 -0.618377
O10   O     O_R   0.592410 0.448290 0.540650 -0.625128
O11   O     O_R   0.591790 0.551670 0.643550 -0.636083
O12   O     O_R   0.049540 0.460010 0.906120 -0.620856
O13   O     O_R   0.591940 0.539930 0.448560 -0.609717
O14   O     O_R   0.591320 0.643310 0.551460 -0.640005
O15   O     O_R   0.408210 0.448330 0.356450 -0.620853
O16   O     O_R   0.407590 0.551710 0.459350 -0.631676
O17   O     O_R   0.946090 0.356640 0.906180 -0.624002
O18   O     O_3   0.799601 0.564852 0.648509 -0.770370
O19   O     O_3   0.273976 0.666157 0.263171 -0.776843
O20   O     O_R   0.853500 0.448290 0.905220 -0.633725
O21   O     O_R   0.956960 0.551660 0.905160 -0.630309
O22   O     O_R   0.945110 0.539900 0.088450 -0.621972
O23   O     O_R   0.048570 0.643270 0.088390 -0.621833
O24   O     O_R   0.037700 0.448250 0.089410 -0.622343
O25   O     O_R   0.141150 0.551620 0.089350 -0.600151
O26   O     O_R   0.948590 0.908340 0.356800 -0.623335
Zn1   Zn    Zn3+2 0.500420 0.430970 0.431290 0.963064
Zn2   Zn    Zn3+2 0.499580 0.569030 0.568710 0.939485
Zn3   Zn    Zn3+2 0.928250 0.430930 0.997320 0.944025
Zn4   Zn    Zn3+2 0.066410 0.568980 0.997240 0.964719
Zn5   Zn    Zn3+2 0.930570 0.999900 0.430450 0.951005
Zn6   Zn    Zn3+2 0.069430 0.999920 0.569370 0.956876

loop_
_geom_bond_atom_site_label_1
_geom_bond_atom_site_label_2
_ccdc_geom_bond_type
C22   O26   A    
C27   C29   A    
C11   C13   A    
O17   Zn3   S    
C35   C36   A    
C23   H23   S    
C21   O24   A    
C20   C41   S    
C36   H14   S    
C7    C8    A    
C39   C41   A    
C4    C46   S    
C19   O21   A    
C49   H25   S    
C40   C46   S    
C12   C23   S    
C29   C30   A    
C7    H37   S    
C5    C6    A    
O10   Zn1   S    
C36   C37   A    
C27   H7    S    
C24   O5    A    
C30   C31   A    
C5    O19   S    
C10   C17   A    
C42   H17   S    
C23   C43   S    
C48   H28   S    
C1    C2    S    
O1    Zn1   S    
C12   C42   S    
O23   Zn4   S    
C16   O13   A    
C31   C32   A    
C28   O15   A    
C16   C17   S    
C4    O11   A    
C35   H11   S    
C47   H30   S    
C10   H3    S    
C1    O4    A    
C26   O8    A    
C24   C51   S    
C40   C42   S    
C13   C14   A    
O15   Zn1   S    
C31   H9    S    
C44   H20   S    
C21   O25   A    
C8    H2    S    
O16   Zn2   S    
C43   C46   S    
C44   C46   S    
O13   Zn1   S    
C2    C45   A    
O7    Zn6   S    
C14   H5    S    
C29   H8    S    
O25   Zn4   S    
C51   C52   A    
C52   H35   S    
C34   C44   S    
H32   O19   S    
C8    C9    A    
O4    Zn2   S    
C6    C21   S    
C27   C33   A    
C49   H26   S    
O20   Zn3   S    
C44   H21   S    
O26   Zn5   S    
C37   C38   A    
C3    C9    A    
C24   O3    A    
O22   Zn3   S    
C47   C48   S    
C43   H12   S    
C4    O10   A    
C50   C51   A    
C39   H16   S    
C47   H31   S    
H24   O18   S    
C40   O18   S    
C16   O14   A    
O8    Zn5   S    
C50   H34   S    
C25   O6    A    
C48   C49   S    
C38   H15   S    
C34   H1    S    
C1    O1    A    
C53   H36   S    
C22   O2    A    
C13   C26   S    
C12   C34   S    
O6    Zn5   S    
O12   Zn4   S    
O3    Zn5   S    
C52   C53   A    
C25   C30   S    
C15   C17   A    
C43   H18   S    
O5    Zn6   S    
C15   H6    S    
C23   H19   S    
O2    Zn6   S    
C32   H10   S    
C3    C5    A    
C2    C53   A    
C6    C7    A    
C19   O20   A    
C34   H22   S    
C49   H27   S    
O9    Zn6   S    
C32   C33   A    
C45   H33   S    
O21   Zn4   S    
C20   O23   A    
C22   C37   S    
C38   C39   A    
C45   C50   A    
C12   C19   S    
C3    C47   S    
C48   H29   S    
C18   O12   A    
C40   H38   S    
C20   O22   A    
C35   C41   A    
C18   C33   S    
C18   O17   A    
C10   C11   A    
C25   O7    A    
O24   Zn3   S    
C42   H13   S    
C14   C15   A    
O14   Zn2   S    
C28   O16   A    
C11   H4    S    
O11   Zn2   S    
C9    C28   S    
C26   O9    A    
