data_mof_unit_42898.cif
_audit_creation_date              2012-12-10T16:52:40-0500
_audit_creation_method            fapswitch 2.2
_symmetry_space_group_name_H-M    P1
_symmetry_Int_Tables_number       1
_space_group_crystal_system       triclinic
_cell_length_a                    7.848188
_cell_length_b                    8.567053
_cell_length_c                    13.76769
_cell_angle_alpha                 93.526135
_cell_angle_beta                  93.109047
_cell_angle_gamma                 94.226181
_cell_volume                      919.810173128

loop_
_atom_site_label
_atom_site_type_symbol
_atom_type_description
_atom_site_fract_x
_atom_site_fract_y
_atom_site_fract_z
_atom_type_partial_charge
C1    C     C_R   0.045142 0.794640 0.497590 0.961688
C2    C     C_R   0.937477 0.489225 0.317994 0.878317
C3    C     C_R   0.092933 0.534308 0.786679 -0.056419
C4    C     C_R   0.907065 0.465679 0.213321 -0.056417
C5    C     C_R   0.071562 0.691699 0.935527 -0.180619
C6    C     C_R   0.928419 0.308252 0.064480 -0.180614
C7    C     C_R   0.011811 0.648138 0.840144 -0.178138
C8    C     C_R   0.988174 0.351827 0.159862 -0.178129
C9    C     C_R   0.224422 0.459260 0.830203 -0.223208
C10   C     C_R   0.775581 0.540730 0.169793 -0.223221
C11   C     C_R   0.307642 0.521961 0.917269 0.100155
C12   C     C_R   0.954858 0.205360 0.502409 0.961687
C13   C     C_R   0.692354 0.478017 0.082731 0.100155
C14   C     C_R   0.221209 0.631696 0.973577 0.133043
C15   C     C_R   0.778778 0.368266 0.026427 0.133045
C16   C     C_R   0.469939 0.476038 0.950894 -0.019466
C17   C     C_R   0.530058 0.523940 0.049106 -0.019464
C18   C     C_R   0.422883 0.612777 0.109332 0.125345
C19   C     C_R   0.577113 0.387196 0.890669 0.125341
C20   C     C_R   0.278852 0.674046 0.068680 -0.240350
C21   C     C_R   0.721135 0.325912 0.931324 -0.240346
C22   C     C_2   0.068560 0.958406 0.496153 -0.369787
C23   C     C_2   0.931440 0.041594 0.503847 -0.369784
C24   C     C_R   0.062522 0.510774 0.682006 0.878320
H1    H     H_    0.203772 0.747475 0.113905 0.167444
H2    H     H_    0.513130 0.627523 0.571380 0.204453
H3    H     H_    0.093875 0.294729 0.192295 0.165024
H4    H     H_    0.906103 0.705229 0.807714 0.165032
H5    H     H_    0.796211 0.252472 0.886101 0.167442
H6    H     H_    0.741155 0.647807 0.205397 0.173459
H7    H     H_    0.258852 0.352190 0.794594 0.173463
H8    H     H_    0.005445 0.776486 0.977995 0.138887
H9    H     H_    0.994526 0.223445 0.022017 0.138881
H10   H     H_    0.197709 0.009913 0.488782 0.190714
H11   H     H_    0.802291 0.990087 0.511218 0.190714
H12   H     H_    0.486870 0.372480 0.428618 0.204455
I1    I     I_    0.427280 0.642804 0.264756 -0.401300
I2    I     I_    0.572730 0.357183 0.735244 -0.401303
N1    N     N_2   0.440860 0.456490 0.474790 -0.135217
N2    N     N_2   0.559140 0.543510 0.525210 -0.135217
O1    O     O_R   0.891570 0.738930 0.506190 -0.611879
O2    O     O_R   0.108430 0.261070 0.493810 -0.611880
O3    O     O_R   0.174650 0.711050 0.490030 -0.608179
O4    O     O_R   0.825350 0.288950 0.509970 -0.608177
O5    O     O_R   0.909850 0.521900 0.644940 -0.595551
O6    O     O_R   0.090150 0.478100 0.355060 -0.595551
O7    O     O_R   0.192930 0.494020 0.628780 -0.600183
O8    O     O_R   0.807070 0.505980 0.371220 -0.600179
Zn1   Zn    Zn3+2 0.810990 0.518620 0.510790 0.981757
Zn2   Zn    Zn3+2 0.189010 0.481380 0.489210 0.981756

loop_
_geom_bond_atom_site_label_1
_geom_bond_atom_site_label_2
_ccdc_geom_bond_type
O4    Zn1   S    
C2    C4    S    
O3    Zn2   S    
C3    C9    A    
C19   I2    S    
O5    Zn1   S    
C11   C16   A    
C10   H6    S    
C18   C20   A    
C6    H9    S    
C13   C17   A    
C4    C8    A    
C5    H8    S    
C17   C18   A    
C3    C24   S    
C1    C22   S    
C12   O4    A    
C2    O6    A    
C9    C11   A    
C12   C23   S    
H2    N2    S    
C5    C14   A    
C23   H11   S    
O2    Zn2   S    
C16   C19   A    
C6    C8    A    
C24   O5    A    
O1    Zn1   S    
O8    Zn1   S    
C19   C21   A    
C18   I1    S    
O7    Zn2   S    
C3    C7    A    
C13   C15   A    
C22   H10   S    
C11   C14   A    
C20   H1    S    
C9    H7    S    
C4    C10   A    
N2    Zn1   S    
C14   C20   A    
C15   C21   A    
N1    Zn2   S    
C1    O1    A    
N1    N2    D    
C5    C7    A    
C8    H3    S    
O6    Zn2   S    
C22   C23   D    
C12   O2    A    
C2    O8    A    
C6    C15   A    
C24   O7    A    
C21   H5    S    
C1    O3    A    
H12   N1    S    
C7    H4    S    
C16   C17   A    
C10   C13   A    
