data_mof_unit_20753.cif
_audit_creation_date              2012-12-10T16:46:48-0500
_audit_creation_method            fapswitch 2.2
_symmetry_space_group_name_H-M    P1
_symmetry_Int_Tables_number       1
_space_group_crystal_system       triclinic
_cell_length_a                    15.88911
_cell_length_b                    8.821767
_cell_length_c                    7.666263
_cell_angle_alpha                 103.324968
_cell_angle_beta                  97.302113
_cell_angle_gamma                 94.638991
_cell_volume                      1030.39174023

loop_
_atom_site_label
_atom_site_type_symbol
_atom_type_description
_atom_site_fract_x
_atom_site_fract_y
_atom_site_fract_z
_atom_type_partial_charge
C1    C     C_R   0.495800 0.201226 0.456143 0.754484
C2    C     C_3   0.966791 0.470822 0.682171 -0.307392
C3    C     C_3   0.916707 0.504309 0.505597 -0.113870
C4    C     C_3   0.954875 0.676142 0.501529 0.380960
C5    C     C_3   0.057643 0.686096 0.520818 -0.229191
C6    C     C_1   0.824477 0.503727 0.513785 -0.075490
C7    C     C_1   0.175679 0.504522 0.486459 0.085838
C8    C     C_1   0.251073 0.501727 0.489862 0.014753
C9    C     C_2   0.494006 0.035596 0.440879 0.451158
C10   C     C_2   0.498372 0.967046 0.585086 -0.345210
C11   C     C_R   0.340666 0.499636 0.497207 0.793080
C12   C     C_R   0.501142 0.799193 0.548015 0.827183
C13   C     C_R   0.659293 0.500712 0.502815 0.806656
C14   C     C_3   0.060471 0.437273 0.653359 0.516287
C15   C     C_3   0.030426 0.395888 0.318866 -0.172785
C16   C     C_3   0.931512 0.371450 0.335380 -0.141587
C17   C     C_1   0.748964 0.502433 0.510443 -0.130304
C18   C     C_3   0.083597 0.509502 0.493515 -0.118574
Cu1   Cu    Cu3+1 0.509300 0.517380 0.684380 1.080409
Cu2   Cu    Cu3+1 0.490700 0.482620 0.315620 1.175954
H1    H     H_    0.971757 0.579369 0.792726 0.197289
H2    H     H_    0.057230 0.281133 0.303501 0.212679
N1    N     N_2   0.476670 0.456430 0.038530 0.244861
N2    N     N_2   0.523330 0.543570 0.961470 -0.107942
O1    O     O_R   0.506050 0.286130 0.619770 -0.554893
O2    O     O_R   0.490330 0.256780 0.308370 -0.522503
O3    O     O_R   0.387300 0.514690 0.655770 -0.495633
O4    O     O_R   0.371580 0.485340 0.344370 -0.545986
O5    O     O_R   0.509670 0.743220 0.691630 -0.650999
O6    O     O_R   0.493950 0.713870 0.380230 -0.458154
O7    O     O_R   0.628420 0.514660 0.655630 -0.630965
O8    O     O_R   0.612700 0.485310 0.344230 -0.585202
C19   C     C_2   0.916375 0.353652 0.755407 0.508038
H3    H     H_    0.863331 0.394377 0.819839 0.092171
O9    O     O_2   0.933882 0.219332 0.749425 -0.404423
C20   C     C_2   0.123113 0.497721 0.825477 0.260574
H4    H     H_    0.182059 0.574555 0.862235 0.271546
O10   O     O_2   0.193244 0.452271 0.851709 -0.528590
C21   C     C_2   0.905487 0.734225 0.349208 0.444033
H5    H     H_    0.839190 0.753882 0.357446 0.109884
O11   O     O_2   0.935739 0.761900 0.219947 -0.510759
F1    F     F_    0.489092 0.948380 0.267180 -0.617535
C22   C     C_2   0.500640 0.038872 0.788557 0.416548
H6    H     H_    0.506389 0.966667 0.885598 0.171589
O12   O     O_2   0.495957 0.174376 0.860249 -0.455399
F2    F     F_    0.400651 0.394853 0.939911 -0.440860
C23   C     C_2   0.604011 0.629477 0.050693 0.577817
H7    H     H_    0.658155 0.638412 0.970885 0.039127
O13   O     O_2   0.609594 0.717073 0.204817 -0.520415
F3    F     F_    0.066450 0.276965 0.609099 -0.574618
C24   C     C_2   0.052703 0.441520 0.154249 0.432844
H8    H     H_    0.109858 0.401828 0.105604 0.142317
O14   O     O_2   0.013789 0.531652 0.085672 -0.574851
C25   C     C_2   0.905269 0.208602 0.366531 0.662713
H9    H     H_    0.841702 0.184414 0.400097 0.041388
O15   O     O_2   0.950660 0.103109 0.344834 -0.464387
C26   C     C_2   0.870919 0.371486 0.162318 0.331597
H10   H     H_    0.854982 0.478862 0.131178 0.103926
O16   O     O_2   0.838426 0.248666 0.054332 -0.514798
C27   C     C_2   0.099125 0.783264 0.709181 0.350190
H11   H     H_    0.064486 0.799985 0.824343 0.185525
O17   O     O_2   0.174492 0.837311 0.738556 -0.502269
C28   C     C_2   0.093398 0.781198 0.397427 0.640875
H12   H     H_    0.073285 0.896553 0.399561 0.161917
O18   O     O_2   0.148732 0.739083 0.306271 -0.537404
F4    F     F_    0.933020 0.778475 0.652845 -0.653217

loop_
_geom_bond_atom_site_label_1
_geom_bond_atom_site_label_2
_ccdc_geom_bond_type
C15   C18   S    
C4    F4    S    
N1    N2    D    
C4    C21   S    
C24   H8    S    
C15   C24   S    
C12   O5    A    
Cu1   O3    S    
C9    C10   D    
C14   C18   S    
C13   O8    A    
Cu1   Cu2   S    
Cu2   N1    S    
C11   O3    A    
C22   H6    S    
C3    C6    S    
Cu1   O7    S    
C28   O18   D    
C7    C18   S    
C2    H1    S    
C20   O10   D    
C2    C3    S    
C9    F1    S    
C7    C8    T    
C23   O13   D    
N1    F2    S    
Cu2   O6    S    
C1    O1    A    
C22   O12   D    
C26   H10   S    
C14   F3    S    
C10   C12   S    
C11   O4    A    
C13   C17   S    
C8    C11   S    
C2    C14   S    
C2    C19   S    
C27   O17   D    
C20   H4    S    
C19   O9    D    
C19   H3    S    
C16   C25   S    
C16   C26   S    
C14   C20   S    
C1    O2    A    
Cu1   O1    S    
C25   O15   D    
C26   O16   D    
C24   O14   D    
C3    C4    S    
Cu1   O5    S    
C23   H7    S    
C1    C9    S    
C5    C28   S    
C21   O11   D    
Cu2   O8    S    
C21   H5    S    
C6    C17   T    
C25   H9    S    
C4    C5    S    
C5    C18   S    
Cu2   O4    S    
C5    C27   S    
C12   O6    A    
C10   C22   S    
C28   H12   S    
N2    C23   S    
Cu1   N2    S    
C13   O7    A    
C15   H2    S    
C3    C16   S    
C15   C16   S    
C27   H11   S    
Cu2   O2    S    
