data_mof_unit_37452.cif
_audit_creation_date              2012-12-10T18:03:36-0500
_audit_creation_method            fapswitch 2.2
_symmetry_space_group_name_H-M    P1
_symmetry_Int_Tables_number       1
_space_group_crystal_system       triclinic
_cell_length_a                    10.829074
_cell_length_b                    9.517922
_cell_length_c                    19.41632
_cell_angle_alpha                 90.028806
_cell_angle_beta                  90.154646
_cell_angle_gamma                 90.049546
_cell_volume                      2001.23727819

loop_
_atom_site_label
_atom_site_type_symbol
_atom_type_description
_atom_site_fract_x
_atom_site_fract_y
_atom_site_fract_z
_atom_type_partial_charge
C1    C     C_R   0.871774 0.500046 0.500060 -0.030184
C2    C     C_R   0.737940 0.500040 0.500052 0.767798
C3    C     C_R   0.499979 0.499979 0.367984 0.739368
C4    C     C_R   0.500026 0.500022 0.632015 0.739371
C5    C     C_R   0.063745 0.372295 0.499922 -0.154574
C6    C     C_R   0.936255 0.627705 0.500080 -0.154563
C7    C     C_R   0.936011 0.372339 0.500000 -0.159280
C8    C     C_R   0.063989 0.627661 0.500001 -0.159273
C9    C     C_R   0.602078 0.443409 0.743772 -0.008997
C10   C     C_R   0.397976 0.556710 0.256228 -0.008973
C11   C     C_R   0.601986 0.443418 0.256483 -0.012249
C12   C     C_R   0.128226 0.499954 0.499941 -0.030204
C13   C     C_R   0.397998 0.556540 0.743513 -0.012272
C14   C     C_R   0.600243 0.443730 0.815891 -0.119990
C15   C     C_R   0.399822 0.556429 0.184110 -0.120019
C16   C     C_R   0.600102 0.443713 0.184365 -0.120805
C17   C     C_R   0.399895 0.556288 0.815632 -0.120810
C18   C     C_R   0.500082 0.500029 0.851887 0.002487
C19   C     C_R   0.499953 0.500066 0.148112 0.002487
C20   C     C_R   0.421594 0.074290 0.458092 -0.009350
C21   C     C_R   0.578406 0.925710 0.541909 -0.009366
C22   C     C_R   0.578407 0.074555 0.541912 -0.010292
C23   C     C_R   0.393880 0.459438 0.963958 -0.155118
C24   C     C_R   0.421592 0.925445 0.458088 -0.010271
C25   C     C_R   0.500051 0.500036 0.707355 -0.187035
C26   C     C_R   0.499957 0.499973 0.292643 -0.187050
C27   C     C_2   0.712412 0.386981 0.707431 0.371139
C28   C     C_2   0.287676 0.613215 0.292570 0.371231
C29   C     C_2   0.712469 0.387302 0.293092 0.388814
C30   C     C_2   0.287483 0.612571 0.706901 0.388874
C31   C     C_R   0.606156 0.540671 0.036045 -0.155115
C32   C     C_R   0.393835 0.459485 0.035682 -0.155835
C33   C     C_R   0.606201 0.540629 0.964320 -0.155838
C34   C     C_R   0.499973 0.500095 0.072258 0.103314
C35   C     C_R   0.500062 0.500016 0.927743 0.103314
C36   C     C_R   0.262060 0.499960 0.499948 0.767794
Cu1   Cu    Cu3+1 0.500000 0.640660 0.500000 0.950029
Cu2   Cu    Cu3+1 0.500000 0.359340 0.500000 0.950001
H1    H     H_    0.358796 0.130298 0.424518 0.128231
H2    H     H_    0.323059 0.600742 0.155573 0.178812
H3    H     H_    0.676884 0.399478 0.156024 0.178734
H4    H     H_    0.323095 0.600490 0.843969 0.178732
H5    H     H_    0.311536 0.425855 0.936754 0.146184
H6    H     H_    0.688502 0.574243 0.063250 0.146189
H7    H     H_    0.311461 0.425935 0.062603 0.145848
H8    H     H_    0.688575 0.574179 0.937400 0.145857
H9    H     H_    0.720747 0.394947 0.651961 0.068044
H10   H     H_    0.279210 0.604957 0.348024 0.067985
H11   H     H_    0.720953 0.395582 0.348571 0.076239
H12   H     H_    0.641204 0.869702 0.575482 0.128221
H13   H     H_    0.279010 0.604290 0.651422 0.076204
H14   H     H_    0.641191 0.130777 0.575498 0.125278
H15   H     H_    0.358808 0.869223 0.424503 0.125343
H16   H     H_    0.111704 0.272462 0.499853 0.153103
H17   H     H_    0.888296 0.727537 0.500149 0.153101
H18   H     H_    0.887860 0.272530 0.500005 0.153548
H19   H     H_    0.112140 0.727470 0.499997 0.153556
H20   H     H_    0.677032 0.399480 0.844429 0.178813
N1    N     N_R   0.500000 0.852070 0.500000 -0.162555
N2    N     N_R   0.500000 0.147930 0.500000 -0.162548
O1    O     O_R   0.319640 0.618740 0.500000 -0.596160
O2    O     O_2   0.203757 0.669451 0.260769 -0.531158
O3    O     O_2   0.796547 0.331443 0.261486 -0.530362
O4    O     O_2   0.203370 0.668362 0.738507 -0.530316
O5    O     O_R   0.680360 0.381260 0.500000 -0.596171
O6    O     O_R   0.680360 0.618740 0.500000 -0.582326
O7    O     O_R   0.319640 0.381260 0.500000 -0.582329
O8    O     O_R   0.500020 0.618830 0.400190 -0.573955
O9    O     O_R   0.499980 0.381170 0.599810 -0.573992
O10   O     O_R   0.499980 0.618830 0.599810 -0.576797
O11   O     O_R   0.500020 0.381170 0.400190 -0.576813
O12   O     O_2   0.796511 0.331141 0.739252 -0.531096

loop_
_geom_bond_atom_site_label_1
_geom_bond_atom_site_label_2
_ccdc_geom_bond_type
Cu1   O1    S    
C9    C14   A    
C31   C33   A    
Cu1   Cu2   S    
C30   O4    D    
C8    H19   S    
C12   C36   S    
C11   C16   A    
C14   C18   A    
C3    O11   A    
C3    O8    A    
Cu2   O5    S    
C13   C17   A    
C6    H17   S    
C8    C12   A    
C2    O5    A    
Cu1   O10   S    
Cu1   O6    S    
C10   C26   A    
C29   O3    D    
C4    C25   S    
C31   C34   A    
C9    C25   A    
C29   H11   S    
C21   C22   A    
C23   C32   A    
C15   C19   A    
C33   H8    S    
C9    C27   S    
C13   C25   A    
Cu1   N1    S    
C36   O7    A    
C7    H18   S    
C24   N1    A    
Cu2   N2    S    
C18   C35   S    
C4    O10   A    
C21   H12   S    
C33   C35   A    
C30   H13   S    
C21   N1    A    
C22   H14   S    
C23   C35   A    
C10   C15   A    
C16   C19   A    
C22   N2    A    
C14   H20   S    
C15   H2    S    
Cu2   O9    S    
C20   N2    A    
C31   H6    S    
C27   H9    S    
C36   O1    A    
Cu2   O7    S    
Cu1   O8    S    
C5    H16   S    
C17   H4    S    
C23   H5    S    
C13   C30   S    
C11   C29   S    
C5    C12   A    
C17   C18   A    
C1    C2    S    
C32   H7    S    
C10   C28   S    
C1    C6    A    
C5    C7    A    
C20   H1    S    
Cu2   O11   S    
C4    O9    A    
C6    C8    A    
C11   C26   A    
C24   H15   S    
C1    C7    A    
C16   H3    S    
C3    C26   S    
C28   H10   S    
C27   O12   D    
C20   C24   A    
C32   C34   A    
C2    O6    A    
C19   C34   S    
C28   O2    D    
