data_mof_unit_9136.cif
_audit_creation_date              2012-10-26T20:58:17-0400
_audit_creation_method            fapswitch 2.2
_symmetry_space_group_name_H-M    P1
_symmetry_Int_Tables_number       1
_space_group_crystal_system       triclinic
_cell_length_a                    10.638287
_cell_length_b                    14.799395
_cell_length_c                    14.691179
_cell_angle_alpha                 64.92303
_cell_angle_beta                  104.444982
_cell_angle_gamma                 103.403326
_cell_volume                      2007.66372524

loop_
_atom_site_label
_atom_site_type_symbol
_atom_type_description
_atom_site_fract_x
_atom_site_fract_y
_atom_site_fract_z
_atom_type_partial_charge
C1    C     C_R   0.479676 0.119426 0.312262 0.603416
C2    C     C_R   0.508597 0.534251 0.949497 0.037136
C3    C     C_R   0.517004 0.494447 0.879367 -0.089411
C4    C     C_R   0.482995 0.505553 0.120633 -0.089411
C5    C     C_R   0.527698 0.393700 0.910431 -0.139121
C6    C     C_R   0.472302 0.606300 0.089569 -0.139122
C7    C     C_R   0.717399 0.287964 0.669604 -0.162642
C8    C     C_R   0.282608 0.712041 0.330388 -0.162642
C9    C     C_R   0.682602 0.204627 0.642913 0.122417
C10   C     C_R   0.317402 0.795376 0.357083 0.122416
C11   C     C_R   0.520293 0.286337 0.506558 0.027191
C12   C     C_R   0.520324 0.880574 0.687738 0.603416
C13   C     C_R   0.479706 0.713662 0.493442 0.027189
C14   C     C_R   0.549856 0.372477 0.533475 -0.004393
C15   C     C_R   0.450147 0.627526 0.466519 -0.004394
C16   C     C_R   0.259435 0.999761 0.499982 0.589319
C17   C     C_R   0.740565 0.000239 0.500018 0.589319
C18   C     C_R   0.651429 0.370893 0.616656 0.025227
C19   C     C_R   0.348579 0.629112 0.383334 0.025230
C20   C     C_R   0.482231 0.458977 0.482754 0.023696
C21   C     C_R   0.517774 0.541027 0.517238 0.023694
C22   C     C_R   0.619885 0.533938 0.600879 -0.142829
C23   C     C_R   0.457082 0.286134 0.172817 0.358845
C24   C     C_R   0.380126 0.466070 0.399106 -0.142832
C25   C     C_R   0.685337 0.450716 0.649097 -0.130706
C26   C     C_R   0.314676 0.549292 0.350887 -0.130707
C27   C     C_3   0.014781 0.906657 0.513492 -0.146283
C28   C     C_3   0.985218 0.093343 0.486508 -0.146282
C29   C     C_3   0.923212 0.975266 0.423314 -0.163580
C30   C     C_3   0.076788 0.024734 0.576686 -0.163580
C31   C     C_3   0.877471 0.001265 0.499489 0.001420
C32   C     C_3   0.122529 0.998735 0.500512 0.001420
C33   C     C_3   0.967332 0.933814 0.588205 0.381627
C34   C     C_R   0.542917 0.713866 0.827183 0.358845
C35   C     C_3   0.032668 0.066185 0.411795 0.381627
C36   C     C_R   0.481040 0.187083 0.205256 0.040405
C37   C     C_R   0.518960 0.812918 0.794744 0.040405
C38   C     C_R   0.532388 0.225826 0.040485 -0.153536
C39   C     C_R   0.467613 0.774175 0.959515 -0.153536
C40   C     C_R   0.520172 0.157494 0.139207 -0.196670
C41   C     C_R   0.479830 0.842506 0.860793 -0.196669
C42   C     C_R   0.253764 0.884168 0.286158 0.086733
C43   C     C_R   0.134563 0.897444 0.300124 -0.071543
C44   C     C_R   0.064612 0.972904 0.224272 -0.070861
C45   C     C_R   0.488494 0.360294 0.078850 0.044902
C46   C     C_R   0.111490 0.034015 0.133355 -0.072022
C47   C     C_R   0.227009 0.018397 0.117042 -0.122441
C48   C     C_R   0.296817 0.942800 0.192402 -0.094142
C49   C     C_R   0.746238 0.115834 0.713841 0.086733
C50   C     C_R   0.865439 0.102557 0.699876 -0.071543
C51   C     C_R   0.935390 0.027097 0.775729 -0.070861
C52   C     C_R   0.888511 0.965989 0.866646 -0.072024
C53   C     C_R   0.772992 0.981608 0.882957 -0.122440
C54   C     C_R   0.703184 0.057204 0.807596 -0.094141
C55   C     C_R   0.511505 0.639707 0.921150 0.044902
C56   C     C_R   0.517286 0.326788 0.009940 0.004883
C57   C     C_R   0.482714 0.673213 0.990060 0.004884
C58   C     C_R   0.491402 0.465749 0.050504 0.037137
Cu1   Cu    Cu3+1 0.465750 0.918270 0.475680 0.992961
Cu2   Cu    Cu3+1 0.534250 0.081730 0.524320 0.992960
F1    F     F_    0.929691 0.865195 0.679375 -0.602738
F2    F     F_    0.070309 0.134805 0.320626 -0.602739
F3    F     F_    0.606416 0.694361 0.769428 -0.647999
F4    F     F_    0.393583 0.305639 0.230572 -0.648000
H1    H     H_    0.856008 0.955714 0.361185 0.111416
H2    H     H_    0.971001 0.170114 0.473528 0.133329
H3    H     H_    0.541001 0.367491 0.855265 0.115842
H4    H     H_    0.458999 0.632510 0.144736 0.115841
H5    H     H_    0.458266 0.918177 0.836008 0.123890
H6    H     H_    0.541738 0.081824 0.163992 0.123890
H7    H     H_    0.557703 0.200529 0.988934 0.117153
H8    H     H_    0.442299 0.799472 0.011066 0.117152
H9    H     H_    0.512907 0.538621 0.798994 0.192539
H10   H     H_    0.487092 0.461380 0.201006 0.192535
H11   H     H_    0.763012 0.448404 0.713571 0.127052
H12   H     H_    0.143992 0.044286 0.638815 0.111416
H13   H     H_    0.237007 0.551608 0.286406 0.127049
H14   H     H_    0.094293 0.847746 0.368257 0.102940
H15   H     H_    0.972462 0.982807 0.234590 0.128203
H16   H     H_    0.056752 0.091925 0.074664 0.127617
H17   H     H_    0.261531 0.063899 0.045481 0.112105
H18   H     H_    0.383796 0.928968 0.177483 0.090320
H19   H     H_    0.905710 0.152253 0.631743 0.102940
H20   H     H_    0.027540 0.017193 0.765413 0.128202
H21   H     H_    0.943249 0.908080 0.925339 0.127615
H22   H     H_    0.738468 0.936107 0.954519 0.112104
H23   H     H_    0.556198 0.718425 0.555513 0.173980
H24   H     H_    0.616204 0.071036 0.822513 0.090321
H25   H     H_    0.443796 0.281571 0.444492 0.173980
H26   H     H_    0.793671 0.286199 0.734922 0.097624
H27   H     H_    0.206339 0.713808 0.265067 0.097624
H28   H     H_    0.651641 0.591557 0.631499 0.147636
H29   H     H_    0.348376 0.408455 0.368477 0.147643
H30   H     H_    0.028999 0.829885 0.526472 0.133329
N1    N     N_R   0.585750 0.204560 0.560800 -0.246383
N2    N     N_R   0.414250 0.795440 0.439200 -0.246381
O1    O     O_R   0.454850 0.022100 0.338110 -0.515555
O2    O     O_R   0.545150 0.977900 0.661890 -0.515556
O3    O     O_R   0.512700 0.160150 0.379180 -0.456737
O4    O     O_R   0.487300 0.839850 0.620820 -0.456737
O5    O     O_R   0.287930 0.931000 0.479440 -0.514273
O6    O     O_R   0.712070 0.069000 0.520560 -0.514274
O7    O     O_R   0.345780 0.069050 0.520520 -0.497953
O8    O     O_R   0.654220 0.930950 0.479480 -0.497952

loop_
_geom_bond_atom_site_label_1
_geom_bond_atom_site_label_2
_ccdc_geom_bond_type
C54   H24   S    
C23   C45   A    
C27   C29   S    
C34   C37   A    
C14   C18   A    
C5    C56   A    
C17   O6    A    
Cu2   O3    S    
C1    O3    A    
C39   C41   A    
C53   C54   A    
C27   C33   S    
C43   H14   S    
C15   C19   A    
C40   H6    S    
Cu1   O8    S    
C52   H21   S    
C38   C40   A    
C17   O8    A    
C24   C26   A    
Cu2   O2    S    
C2    C55   A    
C11   C14   A    
C10   C42   S    
C49   C54   A    
C39   C57   A    
C12   C37   S    
C19   C26   A    
C46   C47   A    
C20   C24   A    
C28   C35   S    
C22   C25   A    
C39   H8    S    
C31   C33   S    
C53   H22   S    
Cu2   O7    S    
C9    N1    A    
C12   O2    A    
C5    H3    S    
C6    H4    S    
C34   C55   A    
C21   C22   A    
Cu1   O4    S    
C6    C57   A    
C18   C25   A    
Cu2   O6    S    
C44   C46   A    
C50   H19   S    
C28   C31   S    
C45   C58   A    
C26   H13   S    
C13   N2    A    
C51   C52   A    
C8    C19   A    
C32   C35   S    
C14   C20   A    
C36   C40   A    
C9    C49   S    
C45   C56   A    
C4    C6    A    
C1    O1    A    
C7    H26   S    
C25   H11   S    
Cu1   O5    S    
C28   H2    S    
C43   C44   A    
Cu1   Cu2   S    
C30   H12   S    
C11   H25   S    
C16   O7    A    
C47   C48   A    
C10   N2    A    
C7    C18   A    
C13   H23   S    
C50   C51   A    
C8    H27   S    
C42   C48   A    
C29   H1    S    
C33   F1    S    
C23   F4    S    
C23   C36   A    
C55   C57   A    
Cu1   O1    S    
C42   C43   A    
C52   C53   A    
C41   H5    S    
C11   N1    A    
C7    C9    A    
C38   H7    S    
C30   C33   S    
C27   C32   S    
C4    H10   S    
C44   H15   S    
C3    C5    A    
C2    C58   A    
C16   C32   S    
C29   C35   S    
C13   C15   A    
C2    C3    A    
C29   C31   S    
C24   H29   S    
C30   C32   S    
C17   C31   S    
C28   C30   S    
C34   F3    S    
C48   H18   S    
C35   F2    S    
C47   H17   S    
C37   C41   A    
C3    H9    S    
C12   O4    A    
Cu2   N1    S    
C16   O5    A    
C15   C21   A    
C38   C56   A    
C20   C21   A    
C8    C10   A    
C49   C50   A    
Cu1   N2    S    
C4    C58   A    
C22   H28   S    
C27   H30   S    
C46   H16   S    
C51   H20   S    
C1    C36   S    
