data_mof_unit_22207.cif
_audit_creation_date              2012-12-10T17:36:17-0500
_audit_creation_method            fapswitch 2.2
_symmetry_space_group_name_H-M    P1
_symmetry_Int_Tables_number       1
_space_group_crystal_system       triclinic
_cell_length_a                    12.329108
_cell_length_b                    13.180099
_cell_length_c                    15.86341
_cell_angle_alpha                 77.928135
_cell_angle_beta                  101.092368
_cell_angle_gamma                 116.568358
_cell_volume                      2240.1439498

loop_
_atom_site_label
_atom_site_type_symbol
_atom_type_description
_atom_site_fract_x
_atom_site_fract_y
_atom_site_fract_z
_atom_type_partial_charge
C1    C     C_R   0.854856 0.286590 0.507394 0.769102
C2    C     C_3   0.059979 0.422971 0.070829 -0.375999
C3    C     C_3   0.000093 0.499520 0.082895 0.332565
C4    C     C_3   0.072175 0.622823 0.038234 -0.379618
C5    C     C_3   0.071485 0.622843 0.940444 -0.376103
C6    C     C_1   0.000686 0.499570 0.175194 -0.118943
C7    C     C_1   0.998498 0.499608 0.824817 -0.118063
C8    C     C_1   0.998664 0.499696 0.749206 -0.182401
C9    C     C_R   0.275412 0.021216 0.385350 -0.195038
C10   C     C_R   0.228007 0.834448 0.469794 -0.046916
C11   C     C_R   0.815296 0.085343 0.563555 -0.192426
C12   C     C_R   0.999502 0.499764 0.659579 0.824535
C13   C     C_R   0.736531 0.970520 0.580510 -0.149368
C14   C     C_R   0.613209 0.932777 0.550374 -0.184550
C15   C     C_R   0.566402 0.009409 0.499194 0.078207
C16   C     C_R   0.649823 0.123744 0.473544 0.082521
C17   C     C_R   0.439784 0.976044 0.471754 0.072038
C18   C     C_R   0.400052 0.053166 0.412938 0.168307
C19   C     C_R   0.485228 0.160184 0.380558 -0.244472
C20   C     C_R   0.608310 0.194335 0.409234 -0.201760
C21   C     C_R   0.351026 0.868427 0.501531 -0.255489
C22   C     C_R   0.189700 0.911925 0.413191 -0.198975
C23   C     C_R   0.145077 0.713367 0.487477 0.793589
C24   C     C_R   0.772891 0.163585 0.512162 -0.101167
C25   C     C_R   0.345357 0.327480 0.636725 -0.304418
C26   C     C_R   0.760313 0.646014 0.384110 0.077609
C27   C     C_R   0.664281 0.678130 0.358920 -0.260593
C28   C     C_R   0.560494 0.623038 0.402485 -0.192750
C29   C     C_R   0.551624 0.534696 0.472361 -0.006615
C30   C     C_R   0.652815 0.505105 0.496098 0.287090
C31   C     C_R   0.446936 0.475042 0.519697 -0.038591
C32   C     C_R   0.445904 0.387446 0.589262 0.177274
C33   C     C_R   0.545380 0.360376 0.611508 -0.283315
C34   C     C_R   0.000384 0.500092 0.340423 0.820757
C35   C     C_R   0.646623 0.418241 0.566340 -0.177541
C36   C     C_R   0.342409 0.498086 0.501491 0.020369
C37   C     C_R   0.245873 0.354414 0.615598 0.072746
C38   C     C_3   0.059295 0.422984 0.973035 -0.379276
C39   C     C_3   0.866734 0.452797 0.939834 -0.377636
C40   C     C_3   0.867412 0.452775 0.037638 -0.377358
C41   C     C_1   0.000841 0.499750 0.250808 -0.182820
C42   C     C_3   0.998944 0.499550 0.917111 0.332432
Cu1   Cu    Cu3+1 0.098280 0.475420 0.519630 0.932548
Cu2   Cu    Cu3+1 0.901720 0.524580 0.480370 0.920700
H1    H     H_    0.009669 0.333692 0.102294 0.159883
H2    H     H_    0.154631 0.454918 0.957987 0.161176
H3    H     H_    0.155635 0.454918 0.102694 0.161261
H4    H     H_    0.030792 0.679623 0.045893 0.159130
H5    H     H_    0.094583 0.886587 0.387786 0.146146
H6    H     H_    0.456644 0.217921 0.332677 0.143578
H7    H     H_    0.244669 0.079675 0.340300 0.131223
H8    H     H_    0.374971 0.808162 0.548986 0.147745
H9    H     H_    0.909257 0.113342 0.592574 0.150241
H10   H     H_    0.557792 0.842573 0.566689 0.129478
H11   H     H_    0.770585 0.910769 0.619616 0.140602
H12   H     H_    0.008664 0.333705 0.957583 0.158462
H13   H     H_    0.670259 0.275663 0.378241 0.175790
H14   H     H_    0.167845 0.308468 0.651916 0.119601
H15   H     H_    0.545384 0.293844 0.664933 0.148957
H16   H     H_    0.335122 0.563003 0.449815 0.123896
H17   H     H_    0.840564 0.689298 0.349969 0.122561
H18   H     H_    0.718381 0.392022 0.589396 0.206120
H19   H     H_    0.821335 0.506535 0.900549 0.162626
H20   H     H_    0.812639 0.364065 0.923763 0.158527
H21   H     H_    0.813626 0.364028 0.068494 0.159936
H22   H     H_    0.822318 0.506497 0.045278 0.160454
H23   H     H_    0.167039 0.658408 0.924797 0.160359
H24   H     H_    0.029757 0.679639 0.901186 0.160414
H25   H     H_    0.168056 0.658360 0.069504 0.160107
N1    N     N_R   0.246300 0.438200 0.549400 -0.179252
N2    N     N_R   0.754300 0.561180 0.451130 -0.205998
O1    O     O_R   0.972520 0.318130 0.524690 -0.580479
O2    O     O_R   0.806530 0.359650 0.491530 -0.604324
O3    O     O_R   0.083030 0.479240 0.637150 -0.576245
O4    O     O_R   0.917040 0.520750 0.603990 -0.591680
O5    O     O_R   0.193470 0.640350 0.508470 -0.587472
O6    O     O_R   0.027480 0.681870 0.475310 -0.586905
O7    O     O_R   0.082960 0.479250 0.396010 -0.575538
O8    O     O_R   0.916970 0.520760 0.362850 -0.588585
H26   H     H_    0.343850 0.260326 0.689926 0.132865
H27   H     H_    0.488995 0.651423 0.380220 0.134809
H28   H     H_    0.670308 0.745961 0.305448 0.140340

loop_
_geom_bond_atom_site_label_1
_geom_bond_atom_site_label_2
_ccdc_geom_bond_type
C5    C42   S    
Cu1   O1    S    
C12   O3    A    
C25   H26   S    
C19   C20   A    
C9    H7    S    
C23   O5    A    
C5    H23   S    
C3    C6    S    
C30   N2    A    
C7    C8    T    
C10   C22   A    
Cu1   O7    S    
C39   H20   S    
C26   C27   A    
C30   C35   A    
C28   C29   A    
C26   H17   S    
C38   C42   S    
C9    C22   A    
C15   C16   A    
C11   C24   A    
Cu2   N2    S    
C18   C19   A    
C7    C42   S    
C25   C37   A    
C6    C41   T    
C37   H14   S    
C11   H9    S    
C16   C20   A    
C25   C32   A    
C16   C24   A    
C40   H22   S    
C37   N1    A    
C26   N2    A    
C34   C41   S    
C5    H24   S    
C4    H25   S    
C36   N1    A    
C39   C42   S    
C27   H28   S    
C10   C21   A    
C1    O1    A    
C39   C40   S    
C17   C21   A    
Cu2   O4    S    
Cu1   Cu2   S    
C29   C30   A    
C34   O8    A    
C2    C38   S    
C31   C32   A    
C8    C12   S    
C17   C18   A    
C23   O6    A    
C22   H5    S    
C14   H10   S    
C3    C40   S    
Cu1   N1    S    
C40   H21   S    
C10   C23   S    
C3    C4    S    
C4    H4    S    
Cu1   O5    S    
C15   C17   A    
Cu2   O6    S    
C28   H27   S    
C31   C36   A    
Cu2   O8    S    
C4    C5    S    
C36   H16   S    
C2    H3    S    
C39   H19   S    
C1    O2    A    
C32   C33   A    
C2    C3    S    
C29   C31   A    
C34   O7    A    
C11   C13   A    
C19   H6    S    
Cu1   O3    S    
C33   C35   A    
C35   H18   S    
Cu2   O2    S    
C38   H2    S    
C2    H1    S    
C9    C18   A    
C38   H12   S    
C1    C24   S    
C33   H15   S    
C12   O4    A    
C27   C28   A    
C14   C15   A    
C20   H13   S    
C13   C14   A    
C21   H8    S    
C13   H11   S    
