data_mof_unit_38950.cif
_audit_creation_date              2012-12-11T16:53:44-0500
_audit_creation_method            fapswitch 2.2
_symmetry_space_group_name_H-M    P1
_symmetry_Int_Tables_number       1
_space_group_crystal_system       triclinic
_cell_length_a                    14.97059
_cell_length_b                    14.771155
_cell_length_c                    16.971095
_cell_angle_alpha                 108.535407
_cell_angle_beta                  106.462866
_cell_angle_gamma                 108.322679
_cell_volume                      3056.14396059

loop_
_atom_site_label
_atom_site_type_symbol
_atom_type_description
_atom_site_fract_x
_atom_site_fract_y
_atom_site_fract_z
_atom_type_partial_charge
C1    C     C_R   0.088425 0.283435 0.071235 -0.125463
C2    C     C_R   0.064083 0.475599 0.250871 -0.142173
C3    C     C_R   0.237405 0.800095 0.189728 0.422627
C4    C     C_R   0.934661 0.480367 0.734628 0.162815
C5    C     C_R   0.724869 0.448434 0.035277 -0.197428
C6    C     C_R   0.249772 0.804691 0.276040 -0.029696
C7    C     C_R   0.680200 0.508074 0.005828 -0.010470
C8    C     C_R   0.973303 0.412424 0.251032 0.065569
C9    C     C_R   0.995005 0.818339 0.972407 0.040117
C10   C     C_R   0.535440 0.666627 0.068519 0.183901
C11   C     C_R   0.474127 0.602039 0.096733 0.043896
C12   C     C_R   0.027030 0.501593 0.722977 -0.032762
C13   C     C_R   0.513975 0.541582 0.131414 -0.208849
C14   C     C_R   0.585584 0.514766 0.105028 -0.186468
C15   C     C_R   0.621761 0.553104 0.048236 0.062953
C16   C     C_R   0.722822 0.213569 0.824871 -0.125656
C17   C     C_R   0.606908 0.640362 0.042600 0.135329
C18   C     C_3   0.589252 0.677192 0.969831 -0.424102
C19   C     C_3   0.512910 0.707925 0.998899 -0.572157
C20   C     C_R   0.965064 0.368263 0.316200 0.122096
C21   C     C_R   0.035854 0.449358 0.636978 0.127960
C22   C     C_R   0.139934 0.439576 0.550837 -0.214221
C23   C     C_R   0.665684 0.215736 0.746645 0.061434
C24   C     C_R   0.133007 0.467459 0.634434 -0.188027
C25   C     C_R   0.945981 0.377485 0.555483 -0.262507
C26   C     C_R   0.951488 0.353926 0.471616 0.171251
C27   C     C_R   0.049515 0.392093 0.469906 0.193862
C28   C     C_R   0.304122 0.601951 0.012643 -0.137421
C29   C     C_R   0.055547 0.394638 0.390496 -0.292522
C30   C     C_R   0.867275 0.315084 0.313540 -0.160988
C31   C     C_R   0.860613 0.306220 0.390939 -0.215123
C32   C     C_R   0.557911 0.140487 0.681752 0.129387
C33   C     C_R   0.292692 0.898603 0.364538 0.157187
C34   C     C_R   0.362420 0.568472 0.064338 0.078457
C35   C     C_R   0.379163 0.090275 0.455281 -0.236530
C36   C     C_R   0.315405 0.001050 0.370697 -0.122705
C37   C     C_R   0.316851 0.886241 0.445381 -0.272175
C38   C     C_R   0.383096 0.974087 0.529262 0.181166
C39   C     C_R   0.419877 0.076543 0.533350 0.179703
C40   C     C_R   0.725754 0.309187 0.747466 -0.098911
C41   C     C_R   0.505101 0.160573 0.611565 -0.246355
C42   C     C_R   0.512240 0.041850 0.682099 -0.169685
C43   C     C_R   0.423707 0.959192 0.606444 -0.215058
C44   C     C_R   0.086467 0.126847 0.151719 0.161484
C45   C     C_R   0.218672 0.700859 0.264639 -0.197217
C46   C     C_R   0.000227 0.107854 0.076853 0.030197
C47   C     C_R   0.908713 0.012668 0.041068 -0.201314
C48   C     C_R   0.900801 0.948290 0.087235 -0.174716
C49   C     C_R   0.983716 0.977259 0.169103 0.020885
C50   C     C_R   0.078184 0.062436 0.196370 0.177358
C51   C     C_3   0.147838 0.154068 0.288825 -0.474635
C52   C     C_R   0.294960 0.499013 0.082559 -0.110951
C53   C     C_3   0.157291 0.225058 0.240662 -0.528411
C54   C     C_R   0.109002 0.563509 0.810889 0.191953
C55   C     C_R   0.915789 0.198887 0.995429 -0.120181
C56   C     C_R   0.722812 0.535350 0.948330 0.423503
C57   C     C_R   0.002190 0.188604 0.042213 0.062000
C58   C     C_3   0.837925 0.481675 0.676540 -0.375039
C59   C     C_3   0.862462 0.564300 0.639977 -0.859452
C60   C     C_3   0.211324 0.651149 0.833302 -0.428864
C61   C     C_3   0.234362 0.759069 0.905066 -0.829557
C62   C     C_R   0.891981 0.393054 0.174380 -0.130760
C63   C     C_R   0.081255 0.804525 0.011941 -0.126414
C64   C     C_R   0.910887 0.720425 0.937171 -0.118519
Cl1   Cl    Cl    0.655547 0.533951 0.844635 -0.775472
Cl2   Cl    Cl    0.317350 0.900548 0.172146 -0.755386
H1    H     H_    0.166800 0.309281 0.119353 0.098872
H2    H     H_    0.545956 0.611947 0.899109 0.261847
H3    H     H_    0.538953 0.795459 0.031046 0.218621
H4    H     H_    0.434643 0.660039 0.941316 0.196623
H5    H     H_    0.131512 0.430411 0.392105 0.118857
H6    H     H_    0.795694 0.289061 0.255560 0.118683
H7    H     H_    0.215900 0.463361 0.550213 0.134689
H8    H     H_    0.784724 0.273812 0.390758 0.138065
H9    H     H_    0.204305 0.506048 0.695829 0.125904
H10   H     H_    0.870734 0.347674 0.555622 0.135451
H11   H     H_    0.535967 0.237670 0.612266 0.132851
H12   H     H_    0.812057 0.334681 0.145623 0.085681
H13   H     H_    0.695372 0.161046 0.853787 0.089013
H14   H     H_    0.548945 0.024944 0.736707 0.118139
H15   H     H_    0.403350 0.168963 0.458134 0.137023
H16   H     H_    0.394142 0.881163 0.604669 0.129453
H17   H     H_    0.288533 0.012941 0.310429 0.169414
H18   H     H_    0.294650 0.808577 0.443826 0.120136
H19   H     H_    0.841190 0.991174 0.980974 0.131130
H20   H     H_    0.828413 0.879323 0.062471 0.128375
H21   H     H_    0.106874 0.168091 0.333520 0.203662
H22   H     H_    0.221894 0.150939 0.320979 0.192616
H23   H     H_    0.159455 0.861798 0.034612 0.180003
H24   H     H_    0.121942 0.280282 0.257371 0.202653
H25   H     H_    0.335028 0.675066 0.007964 0.143519
H26   H     H_    0.236971 0.262750 0.245618 0.194046
H27   H     H_    0.698921 0.344108 0.704891 0.110158
H28   H     H_    0.314906 0.469179 0.132112 0.084798
H29   H     H_    0.835505 0.147797 0.975911 0.090657
H30   H     H_    0.218389 0.671909 0.315314 0.123106
H31   H     H_    0.918464 0.644380 0.697605 0.259055
H32   H     H_    0.895556 0.543196 0.590041 0.260696
H33   H     H_    0.789842 0.567914 0.604561 0.252078
H34   H     H_    0.832515 0.699953 0.893563 0.170110
H35   H     H_    0.781446 0.401751 0.619684 0.171167
H36   H     H_    0.798784 0.505290 0.720605 0.221486
H37   H     H_    0.173429 0.783284 0.878844 0.251405
H38   H     H_    0.237252 0.756092 0.969973 0.276395
H39   H     H_    0.310839 0.820053 0.919625 0.253978
H40   H     H_    0.274349 0.628650 0.855102 0.178286
H41   H     H_    0.209206 0.662324 0.771247 0.203932
H42   H     H_    0.142488 0.493702 0.292975 0.086009
H43   H     H_    0.710563 0.411210 0.078619 0.118323
H44   H     H_    0.478156 0.499453 0.164329 0.129469
H45   H     H_    0.602622 0.455687 0.121745 0.129896
H46   H     H_    0.658593 0.746199 0.982737 0.194369
N1    N     N_R   0.055640 0.348550 0.045600 -0.041221
N2    N     N_R   0.811290 0.303400 0.871650 -0.041900
N3    N     N_R   0.205180 0.552990 0.997660 -0.044115
N4    N     N_R   0.814810 0.361830 0.823710 -0.045815
N5    N     N_R   0.201660 0.494570 0.045600 -0.042689
N6    N     N_R   0.068420 0.560530 0.871650 -0.062249
N7    N     N_R   0.948050 0.295860 0.997660 -0.041251
N8    N     N_R   0.185190 0.638170 0.176290 -0.058043
N9    N     N_R   0.798340 0.505430 0.954400 -0.070087
N10   N     N_R   0.931580 0.439470 0.128350 -0.037565
N11   N     N_R   0.051950 0.704140 0.002340 -0.049528
N12   N     N_R   0.944360 0.651450 0.954400 -0.046652
N13   N     N_R   0.039170 0.492150 0.176290 -0.037182
N14   N     N_R   0.188710 0.696600 0.128350 -0.075045
N15   N     N_R   0.794820 0.447010 0.002340 -0.058258
N16   N     N_R   0.960830 0.507850 0.823710 -0.080671
Ni1   Ni    Ni4+2 0.119330 0.493420 0.109950 0.200735
Ni2   Ni    Ni4+2 0.880670 0.506580 0.890050 0.236162
Ni3   Ni    Ni4+2 0.872590 0.372590 0.000000 0.205893
Ni4   Ni    Ni4+2 0.127410 0.627410 0.000000 0.226030

loop_
_geom_bond_atom_site_label_1
_geom_bond_atom_site_label_2
_ccdc_geom_bond_type
C42   H14   S    
C6    C45   A    
N11   Ni4   S    
C27   C29   A    
C9    C64   A    
C59   H33   S    
N2    Ni3   S    
C35   C36   A    
C40   H27   S    
C3    C6    A    
C35   H15   S    
C3    N14   A    
N11   N12   A    
C39   C41   A    
C54   C60   S    
C26   C27   A    
C13   H44   S    
N1    Ni1   S    
C47   H19   S    
C61   H37   S    
C18   H46   S    
N9    N15   A    
C41   H11   S    
C30   C31   A    
N8    N14   A    
C36   H17   S    
C18   H2    S    
C56   Cl1   S    
C33   C36   A    
C18   C19   S    
N1    N7    A    
C44   C53   S    
N6    N16   A    
N3    N5    A    
C23   C40   A    
N7    Ni3   S    
C32   C41   A    
C37   H18   S    
C52   H28   S    
C58   H36   S    
C4    C12   A    
C61   H39   S    
N9    Ni2   S    
N3    Ni4   S    
C52   N5    A    
C7    C15   S    
C28   C34   A    
C26   C31   A    
C13   C14   A    
C5    N15   A    
C1    N1    A    
C7    C56   A    
C44   C46   A    
C50   C51   S    
C20   C29   A    
C14   H45   S    
C4    N16   A    
N8    Ni1   S    
C61   H38   S    
C55   H29   S    
C51   H21   S    
C5    C7    A    
C31   H8    S    
C20   C30   A    
C25   C26   A    
C64   N12   A    
C12   C21   S    
C33   C37   A    
C16   N2    A    
C60   C61   S    
C51   C53   S    
C35   C39   A    
C37   C38   A    
C28   N3    A    
C1    C57   A    
C63   N11   A    
C47   C48   A    
N14   Ni4   S    
C10   C19   S    
C63   H23   S    
C53   H26   S    
C17   C18   S    
N12   Ni2   S    
C58   H35   S    
C8    C20   S    
C60   H41   S    
C45   N8    A    
C48   C49   A    
C8    C62   A    
C16   C23   A    
C22   C27   A    
C55   C57   A    
C46   C57   S    
C59   H31   S    
C48   H20   S    
C19   H3    S    
C3    Cl2   S    
C42   C43   A    
N10   Ni3   S    
C62   N10   A    
C60   H40   S    
C44   C50   A    
C15   C17   A    
C21   C25   A    
C46   C47   A    
C9    C63   A    
C62   H12   S    
C11   C34   S    
C2    C8    A    
C30   H6    S    
N16   Ni2   S    
C51   H22   S    
C40   N4    A    
N2    N4    A    
C24   H9    S    
C34   C52   A    
C6    C33   S    
C16   H13   S    
C56   N9    A    
C25   H10   S    
N10   N13   A    
C54   N6    A    
C58   C59   S    
C64   H34   S    
C38   C43   A    
C23   C32   S    
C11   C13   A    
C38   C39   A    
C5    H43   S    
C2    H42   S    
C1    H1    S    
C28   H25   S    
C22   C24   A    
N15   Ni3   S    
N6    Ni4   S    
C10   C11   A    
C2    N13   A    
N13   Ni1   S    
C55   N7    A    
N4    Ni2   S    
C49   C50   A    
C21   C24   A    
C4    C58   S    
C53   H24   S    
C59   H32   S    
C32   C42   A    
C14   C15   A    
C19   H4    S    
C10   C17   A    
C22   H7    S    
C45   H30   S    
C12   C54   A    
C43   H16   S    
N5    Ni1   S    
C29   H5    S    
