data_mof_unit_39757.cif
_audit_creation_date              2012-12-10T18:06:46-0500
_audit_creation_method            fapswitch 2.2
_symmetry_space_group_name_H-M    P1
_symmetry_Int_Tables_number       1
_space_group_crystal_system       triclinic
_cell_length_a                    12.53243
_cell_length_b                    13.091279
_cell_length_c                    15.28036
_cell_angle_alpha                 84.775469
_cell_angle_beta                  99.5914
_cell_angle_gamma                 97.782274
_cell_volume                      2443.14105981

loop_
_atom_site_label
_atom_site_type_symbol
_atom_type_description
_atom_site_fract_x
_atom_site_fract_y
_atom_site_fract_z
_atom_type_partial_charge
C1    C     C_R   0.445673 0.307978 0.515764 0.846999
C2    C     C_R   0.422408 0.432713 0.105092 0.023203
C3    C     C_R   0.309624 0.428604 0.069870 0.050581
C4    C     C_R   0.497361 0.406146 0.053539 0.099455
C5    C     C_R   0.462515 0.398459 0.961820 0.024745
C6    C     C_R   0.349916 0.379267 0.930872 -0.248321
C7    C     C_R   0.273827 0.383524 0.987456 0.198106
C8    C     C_R   0.606830 0.392311 0.088909 -0.213535
C9    C     C_R   0.682745 0.387694 0.033038 -0.216206
C10   C     C_R   0.652610 0.401956 0.941191 0.167352
C11   C     C_R   0.541819 0.408204 0.904901 0.106866
C12   C     C_R   0.434444 0.512632 0.334693 0.874824
C13   C     C_R   0.731986 0.413315 0.885264 -0.174190
C14   C     C_R   0.703416 0.438696 0.794634 -0.159102
C15   C     C_R   0.515033 0.434772 0.813947 -0.271566
C16   C     C_R   0.736236 0.946940 0.513803 0.215531
C17   C     C_R   0.592550 0.803399 0.489922 -0.108238
C18   C     C_R   0.305938 0.157681 0.532026 -0.177495
C19   C     C_R   0.276131 0.051605 0.538499 -0.134259
C20   C     C_R   0.354793 0.985250 0.541759 -0.175723
C21   C     C_R   0.466235 0.024922 0.542259 0.102049
C22   C     C_R   0.497161 0.130080 0.553488 0.042131
C23   C     C_R   0.556296 0.692585 0.488615 0.905015
C24   C     C_R   0.547296 0.964998 0.528929 0.016258
C25   C     C_R   0.660369 0.006263 0.539961 0.085501
C26   C     C_R   0.689515 0.104792 0.575070 0.137988
C27   C     C_R   0.607816 0.164637 0.581151 -0.217494
C28   C     C_R   0.516287 0.866542 0.499710 -0.254765
C29   C     C_R   0.700743 0.845390 0.490156 -0.158258
C30   C     C_R   0.416254 0.197663 0.536814 -0.107443
C31   C     C_R   0.152748 0.549080 0.673559 0.108541
C32   C     C_R   0.751719 0.400875 0.379107 -0.022068
C33   C     C_R   0.841285 0.364309 0.355917 -0.256717
C34   C     C_R   0.563345 0.482490 0.664630 0.887153
C35   C     C_R   0.942437 0.378477 0.410398 0.232782
C36   C     C_R   0.953422 0.436914 0.486138 0.015284
C37   C     C_R   0.857519 0.465342 0.511194 0.150956
C38   C     C_R   0.054701 0.474366 0.536544 -0.047069
C39   C     C_R   0.056761 0.500222 0.625058 0.095994
C40   C     C_R   0.958325 0.492943 0.657613 -0.248941
C41   C     C_R   0.865604 0.503572 0.596157 0.152946
C42   C     C_R   0.150699 0.498694 0.499240 -0.109241
C43   C     C_R   0.240038 0.584527 0.627463 0.327801
C44   C     C_R   0.390202 0.502960 0.239105 -0.111622
C45   C     C_R   0.595497 0.453525 0.759269 -0.065916
C46   C     C_R   0.240095 0.475545 0.115261 0.157875
C47   C     C_R   0.281802 0.515840 0.199265 0.141722
C48   C     C_R   0.459672 0.470181 0.188300 -0.288787
H1    H     H_    0.816539 0.406001 0.911997 0.165733
H2    H     H_    0.757969 0.798514 0.473007 0.180901
H3    H     H_    0.431592 0.836323 0.484505 0.161013
H4    H     H_    0.242725 0.208186 0.522148 0.161979
H5    H     H_    0.326273 0.903686 0.545458 0.130266
H6    H     H_    0.191253 0.020704 0.536960 0.153326
H7    H     H_    0.631691 0.238878 0.609114 0.193304
H8    H     H_    0.432127 0.446138 0.785795 0.163112
H9    H     H_    0.957059 0.512893 0.724551 0.182677
H10   H     H_    0.156004 0.479795 0.433138 0.164661
H11   H     H_    0.673378 0.385151 0.337967 0.146490
H12   H     H_    0.830393 0.320587 0.297491 0.158678
H13   H     H_    0.766031 0.448462 0.752813 0.176382
H14   H     H_    0.766461 0.379343 0.061910 0.166664
H15   H     H_    0.545339 0.476835 0.214278 0.173105
H16   H     H_    0.320762 0.352303 0.865199 0.163340
H17   H     H_    0.635454 0.383529 0.159506 0.136456
N1    N     N_R   0.239390 0.551900 0.544730 -0.127918
N2    N     N_R   0.759950 0.448600 0.455730 -0.113668
O1    O     O_R   0.374950 0.371210 0.521360 -0.607869
O2    O     O_R   0.542050 0.338030 0.492790 -0.607780
O3    O     O_R   0.368720 0.526070 0.390200 -0.606747
O4    O     O_R   0.535820 0.492890 0.361630 -0.625132
O5    O     O_R   0.457950 0.661970 0.507210 -0.626023
O6    O     O_R   0.625050 0.628790 0.478640 -0.580733
O7    O     O_R   0.464180 0.507110 0.638370 -0.610069
O8    O     O_R   0.631280 0.473930 0.609800 -0.596494
Zn1   Zn    Zn3+2 0.388420 0.522150 0.519080 0.932807
Zn2   Zn    Zn3+2 0.611580 0.477850 0.480920 0.963386
C49   C     C_3   0.162695 0.323603 0.964024 -0.838955
H18   H     H_    0.170403 0.249915 0.936169 0.238978
H19   H     H_    0.123279 0.301579 0.023998 0.257276
H20   H     H_    0.110066 0.368201 0.913491 0.254465
I1    I     I_    0.848214 0.174572 0.628769 -0.427192
C50   C     C_3   0.852329 0.988407 0.504816 -0.859387
H21   H     H_    0.855784 0.066405 0.469431 0.255358
H22   H     H_    0.903696 0.989171 0.571286 0.275382
H23   H     H_    0.888206 0.939138 0.464769 0.226117
C51   C     C_3   0.329699 0.663827 0.666919 -0.824675
H24   H     H_    0.373818 0.706949 0.616283 0.258765
H25   H     H_    0.293913 0.723795 0.695650 0.215747
H26   H     H_    0.386969 0.627743 0.720234 0.241297
C52   C     C_3   0.158595 0.571012 0.770253 -0.891819
H27   H     H_    0.124391 0.501299 0.807644 0.248294
H28   H     H_    0.243235 0.589664 0.804624 0.253936
H29   H     H_    0.111840 0.636094 0.774673 0.265190
C53   C     C_3   0.028671 0.316293 0.392852 -0.911137
H30   H     H_    0.066982 0.353177 0.335508 0.239288
H31   H     H_    0.091462 0.306408 0.452269 0.243418
H32   H     H_    0.991232 0.237010 0.376633 0.247389
I2    I     I_    0.816850 0.645656 0.620528 -0.394726
I3    I     I_    0.079346 0.506929 0.052100 -0.469926
C54   C     C_3   0.213288 0.578956 0.240944 -0.818689
H33   H     H_    0.261733 0.628668 0.291720 0.241613
H34   H     H_    0.175832 0.635425 0.190636 0.259673
H35   H     H_    0.148290 0.527373 0.269798 0.241772

loop_
_geom_bond_atom_site_label_1
_geom_bond_atom_site_label_2
_ccdc_geom_bond_type
C51   H24   S    
C54   H33   S    
C47   C54   S    
C17   C29   A    
O2    Zn2   S    
C53   H30   S    
N2    Zn2   S    
O5    Zn1   S    
C42   H10   S    
C53   H32   S    
C18   H4    S    
C26   C27   A    
C17   C23   S    
C31   C43   A    
C36   C37   A    
C38   C42   A    
C3    C7    A    
C5    C6    A    
C28   H3    S    
C49   H19   S    
C1    O1    A    
C18   C19   A    
C6    H16   S    
C46   I3    S    
C11   C15   A    
C19   C20   A    
C8    C9    A    
C41   I2    S    
C18   C30   A    
C9    C10   A    
C52   H27   S    
C44   C47   A    
C4    C8    A    
C34   O8    A    
C8    H17   S    
C26   I1    S    
C21   C22   A    
C23   O6    A    
C14   C45   A    
C29   H2    S    
C9    H14   S    
C24   C25   A    
C39   C40   A    
C49   H18   S    
C4    C5    A    
C48   H15   S    
C2    C48   A    
C16   C29   A    
C14   H13   S    
C16   C50   S    
C1    O2    A    
C35   C36   A    
C2    C4    A    
C52   H28   S    
C50   H21   S    
N1    Zn1   S    
C34   C45   S    
O8    Zn2   S    
O7    Zn1   S    
C34   O7    A    
C32   N2    A    
C13   H1    S    
C19   H6    S    
C40   C41   A    
C50   H22   S    
C12   O4    A    
C33   H12   S    
C31   C52   S    
C22   C27   A    
C7    C49   S    
O3    Zn1   S    
C51   H26   S    
C15   C45   A    
O4    Zn2   S    
C16   C25   A    
C12   O3    A    
C46   C47   A    
C40   H9    S    
C22   C30   A    
C17   C28   A    
C23   O5    A    
C24   C28   A    
C20   H5    S    
C10   C13   A    
C53   H31   S    
C5    C11   A    
C6    C7    A    
C35   C53   S    
O1    Zn1   S    
C3    C46   A    
C43   C51   S    
C32   C33   A    
C36   C38   A    
C2    C3    A    
C25   C26   A    
C12   C44   S    
C15   H8    S    
C52   H29   S    
C49   H20   S    
C38   C39   A    
C43   N1    A    
C37   N2    A    
C1    C30   S    
C33   C35   A    
C31   C39   A    
C27   H7    S    
C37   C41   A    
C10   C11   A    
C50   H23   S    
C20   C21   A    
C54   H34   S    
C21   C24   A    
C42   N1    A    
C51   H25   S    
O6    Zn2   S    
C54   H35   S    
C32   H11   S    
C13   C14   A    
C44   C48   A    
