data_mof_unit_28502.cif
_audit_creation_date              2012-10-26T19:52:44-0400
_audit_creation_method            fapswitch 2.2
_symmetry_space_group_name_H-M    P1
_symmetry_Int_Tables_number       1
_space_group_crystal_system       triclinic
_cell_length_a                    14.988858
_cell_length_b                    10.833771
_cell_length_c                    9.588885
_cell_angle_alpha                 90.210955
_cell_angle_beta                  89.006348
_cell_angle_gamma                 91.137874
_cell_volume                      1556.54945473

loop_
_atom_site_label
_atom_site_type_symbol
_atom_type_description
_atom_site_fract_x
_atom_site_fract_y
_atom_site_fract_z
_atom_type_partial_charge
C1    C     C_R   0.496997 0.262601 0.499682 0.570380
C2    C     C_R   0.185998 0.376352 0.498755 -0.004755
C3    C     C_R   0.232631 0.491150 0.503870 0.007608
C4    C     C_R   0.329147 0.498094 0.501089 0.531450
C5    C     C_R   0.187815 0.602448 0.510008 -0.139975
C6    C     C_R   0.475682 0.064606 0.622800 -0.066945
C7    C     C_R   0.484688 0.129843 0.498452 -0.059843
C8    C     C_R   0.478117 0.064729 0.372037 -0.108859
C9    C     C_R   0.478013 0.935953 0.371562 0.349777
C10   C     C_R   0.485422 0.871058 0.498499 -0.025288
C11   C     C_R   0.476123 0.937493 0.623092 0.023022
C12   C     C_R   0.908601 0.607089 0.506694 0.012584
C13   C     C_3   0.528459 0.935936 0.754164 0.256505
C14   C     C_3   0.527237 0.075802 0.753801 -0.180084
C15   C     C_R   0.574917 0.533416 0.071401 0.113875
C16   C     C_R   0.497135 0.737792 0.499932 0.553126
C17   C     C_R   0.431679 0.448428 0.078260 0.030827
C18   C     C_R   0.431833 0.444068 0.930131 0.114898
C19   C     C_R   0.575197 0.532625 0.924814 0.209943
C20   C     C_3   0.627731 0.650294 0.918300 0.233414
C21   C     C_3   0.626574 0.652064 0.077051 -0.206108
C22   C     C_R   0.670833 0.500375 0.498979 0.605739
C23   C     C_R   0.947138 0.268946 0.484465 -0.100395
C24   C     C_R   0.815634 0.608480 0.505702 -0.156067
C25   C     C_R   0.766995 0.497715 0.496885 0.036396
C26   C     C_R   0.809771 0.384385 0.489170 0.363834
C27   C     C_R   0.902966 0.381313 0.490898 0.033369
C28   C     C_R   0.952770 0.492987 0.499633 0.008908
C29   C     C_3   0.357946 0.365048 0.868808 -0.252013
C30   C     C_3   0.267875 0.428905 0.877959 -0.414042
C31   C     C_3   0.237278 0.256127 0.498476 -0.278886
C32   C     C_3   0.248228 0.204152 0.351119 -0.423901
C33   C     C_R   0.039878 0.266357 0.486987 -0.151134
C34   C     C_R   0.091376 0.376551 0.495722 0.030090
C35   C     C_R   0.046618 0.490826 0.501563 0.050414
C36   C     C_R   0.095280 0.603460 0.509522 0.014993
C37   C     C_R   0.050783 0.715972 0.516121 -0.117221
C38   C     C_R   0.957978 0.717769 0.514991 -0.099734
Cu1   Cu    Cu3+1 0.500000 0.499980 0.640670 1.001649
Cu2   Cu    Cu3+1 0.500000 0.500020 0.359330 1.002304
F1    F     F_    0.475845 0.876904 0.246579 -0.600913
F2    F     F_    0.478444 0.886615 0.863999 -0.605695
F3    F     F_    0.712385 0.632883 0.862626 -0.627501
F4    F     F_    0.760417 0.277899 0.481415 -0.644169
H1    H     H_    0.780879 0.695295 0.512008 0.123600
H2    H     H_    0.069865 0.176683 0.480955 0.116615
H3    H     H_    0.225654 0.688832 0.514662 0.118121
H4    H     H_    0.087854 0.802697 0.522222 0.112476
H5    H     H_    0.924815 0.805692 0.520405 0.122547
H6    H     H_    0.477850 0.112729 0.273145 0.169561
H7    H     H_    0.272524 0.523296 0.833500 0.196416
H8    H     H_    0.217404 0.374114 0.819515 0.142863
H9    H     H_    0.244858 0.435942 0.988364 0.139938
H10   H     H_    0.372591 0.333464 0.762476 0.197760
H11   H     H_    0.352001 0.277415 0.928696 0.103131
H12   H     H_    0.596286 0.897774 0.740092 0.109024
H13   H     H_    0.182541 0.189111 0.301578 0.157170
H14   H     H_    0.289127 0.268819 0.285923 0.156931
H15   H     H_    0.282630 0.114475 0.355301 0.151640
H16   H     H_    0.304587 0.269088 0.542709 0.139473
H17   H     H_    0.204201 0.187015 0.568195 0.136271
H18   H     H_    0.486947 0.115856 0.840625 0.173900
H19   H     H_    0.594399 0.119258 0.737012 0.137390
H20   H     H_    0.377002 0.406841 0.137432 0.116877
H21   H     H_    0.591342 0.725648 0.869862 0.181837
H22   H     H_    0.693479 0.640551 0.122974 0.164033
H23   H     H_    0.587141 0.728614 0.122184 0.199080
H24   H     H_    0.910066 0.182318 0.477516 0.178003
N1    N     N_R   0.500570 0.500930 0.147930 -0.244978
N2    N     N_R   0.500570 0.500890 0.852020 -0.247987
O1    O     O_R   0.500000 0.319640 0.618810 -0.522087
O2    O     O_R   0.500010 0.319680 0.381230 -0.504153
O3    O     O_R   0.370250 0.499950 0.618800 -0.525716
O4    O     O_R   0.370260 0.499990 0.381220 -0.506526
O5    O     O_R   0.499990 0.680320 0.618770 -0.495768
O6    O     O_R   0.500000 0.680360 0.381190 -0.438226
O7    O     O_R   0.629740 0.500010 0.618780 -0.447888
O8    O     O_R   0.629750 0.500050 0.381200 -0.502904

loop_
_geom_bond_atom_site_label_1
_geom_bond_atom_site_label_2
_ccdc_geom_bond_type
C31   H16   S    
C30   H7    S    
C17   N1    A    
C21   H22   S    
C16   O5    A    
C31   H17   S    
C35   C36   A    
C32   H14   S    
C26   F4    S    
C7    C8    A    
C38   H5    S    
C15   C19   A    
C5    H3    S    
C26   C27   A    
C1    O1    A    
C12   C28   A    
C24   H1    S    
Cu1   O7    S    
C36   C37   A    
C37   C38   A    
C17   H20   S    
C29   H10   S    
C14   H18   S    
C5    C36   A    
C34   C35   A    
C19   C20   S    
C28   C35   A    
C8    C9    A    
C23   C33   A    
C22   C25   S    
C23   C27   A    
C9    C10   A    
C4    O4    A    
C13   H12   S    
C2    C34   A    
C1    C7    S    
C13   C14   S    
C21   H23   S    
C33   H2    S    
C32   H13   S    
C13   F2    S    
C17   C18   A    
C15   N1    A    
C30   H9    S    
C1    O2    A    
Cu2   N1    S    
C20   H21   S    
C24   C25   A    
C22   O8    A    
C6    C11   A    
C29   H11   S    
C25   C26   A    
Cu2   O6    S    
C2    C31   S    
C23   H24   S    
C29   C30   S    
C6    C14   S    
C31   C32   S    
C33   C34   A    
C18   C29   S    
C37   H4    S    
C4    O3    A    
Cu1   O5    S    
Cu2   O8    S    
C3    C4    S    
C8    H6    S    
Cu1   Cu2   S    
C20   F3    S    
C30   H8    S    
Cu2   O2    S    
C16   O6    A    
C22   O7    A    
C3    C5    A    
C6    C7    A    
C12   C24   A    
C9    F1    S    
C18   N2    A    
C2    C3    A    
C10   C16   S    
C11   C13   S    
C14   H19   S    
Cu1   N2    S    
Cu2   O4    S    
Cu1   O3    S    
C12   C38   A    
C10   C11   A    
C15   C21   S    
C20   C21   S    
C27   C28   A    
Cu1   O1    S    
C19   N2    A    
C32   H15   S    
