data_mof_unit_34758.cif
_audit_creation_date              2012-12-10T17:02:20-0500
_audit_creation_method            fapswitch 2.2
_symmetry_space_group_name_H-M    P1
_symmetry_Int_Tables_number       1
_space_group_crystal_system       triclinic
_cell_length_a                    10.610484
_cell_length_b                    10.733201
_cell_length_c                    10.084907
_cell_angle_alpha                 85.921914
_cell_angle_beta                  91.983558
_cell_angle_gamma                 90.611539
_cell_volume                      1144.88089724

loop_
_atom_site_label
_atom_site_type_symbol
_atom_type_description
_atom_site_fract_x
_atom_site_fract_y
_atom_site_fract_z
_atom_type_partial_charge
C1    C     C_R   0.498025 0.261895 0.505244 0.887479
C2    C     C_2   0.475458 0.129408 0.521378 -0.180668
C3    C     C_2   0.469261 0.593100 0.919407 0.648935
C4    C     C_R   0.259641 0.488479 0.498859 0.884054
C5    C     C_2   0.509858 0.598165 0.063522 0.077192
C6    C     C_R   0.495961 0.736969 0.494544 1.002072
C7    C     C_R   0.739917 0.514782 0.502796 0.895842
C8    C     C_R   0.106960 0.347351 0.711158 -0.183461
C9    C     C_R   0.049876 0.333227 0.836851 -0.189279
C10   C     C_R   0.948906 0.411764 0.863544 -0.125352
C11   C     C_R   0.901043 0.496635 0.761861 0.446312
C12   C     C_R   0.059434 0.437360 0.611808 -0.026721
C13   C     C_R   0.943565 0.491950 0.630008 -0.032791
C14   C     C_2   0.489494 0.066919 0.658684 1.013015
C15   C     C_2   0.568617 0.715025 0.102014 0.854622
C16   C     C_2   0.207054 0.259394 0.679668 0.979743
C17   C     C_2   0.099106 0.240720 0.942233 1.063756
C18   C     C_2   0.885943 0.400529 0.993876 1.038948
C19   C     C_2   0.885125 0.685094 0.309710 0.996469
C20   C     C_2   0.288053 0.891861 0.357919 0.999684
C21   C     C_R   0.123872 0.479120 0.495676 -0.109909
C22   C     C_R   0.061597 0.546951 0.389938 -0.184585
C23   C     C_R   0.938018 0.582792 0.400968 -0.093102
C24   C     C_R   0.874791 0.539388 0.514493 -0.174635
C25   C     C_2   0.407011 0.938885 0.420287 -0.011644
C26   C     C_2   0.500894 0.868825 0.478149 -0.328568
C27   C     C_2   0.424813 0.073187 0.417316 -0.203980
H1    H     H_    0.112227 0.580243 0.303167 0.204212
H2    H     H_    0.171300 0.209438 0.129249 0.361740
H3    H     H_    0.798594 0.486237 0.135999 0.350163
H4    H     H_    0.819211 0.657244 0.725094 0.351989
H5    H     H_    0.768903 0.833807 0.289059 0.371204
H6    H     H_    0.201379 0.764171 0.250446 0.354920
H7    H     H_    0.587792 0.910703 0.514853 0.142049
H8    H     H_    0.397842 0.126565 0.325156 0.188978
H9    H     H_    0.416565 0.949470 0.801503 0.371390
H10   H     H_    0.372872 0.744528 0.922875 0.332389
H11   H     H_    0.613478 0.370431 0.840837 0.386491
H12   H     H_    0.545360 0.888276 0.161607 0.351240
H13   H     H_    0.395369 0.362633 0.181663 0.387411
H14   H     H_    0.120159 0.215031 0.507210 0.325885
N1    N     N_2   0.501340 0.501330 0.852150 0.079056
N2    N     N_2   0.501380 0.501360 0.147810 0.027577
O1    O     O_R   0.499980 0.319060 0.613040 -0.592504
O2    O     O_R   0.397662 0.982282 0.706272 -0.710948
O3    O     O_3   0.398954 0.688093 0.855448 -0.755125
O4    O     O_3   0.587350 0.423043 0.911564 -0.624944
O5    O     O_2   0.680636 0.732751 0.083792 -0.538300
O6    O     O_R   0.494392 0.810466 0.143637 -0.779513
O7    O     O_3   0.428139 0.409372 0.102335 -0.621002
O8    O     O_2   0.295612 0.238990 0.758381 -0.533551
O9    O     O_R   0.200691 0.197799 0.562005 -0.771141
O10   O     O_2   0.103376 0.130057 0.921155 -0.547470
O11   O     O_R   0.139806 0.280690 0.065702 -0.774712
O12   O     O_R   0.500020 0.319100 0.386900 -0.634091
O13   O     O_2   0.868360 0.297689 0.050855 -0.596300
O14   O     O_R   0.842795 0.506946 0.049565 -0.668706
O15   O     O_3   0.819157 0.587830 0.795479 -0.665972
O16   O     O_2   0.932029 0.711694 0.202145 -0.532008
O17   O     O_R   0.787944 0.758184 0.352226 -0.816843
O18   O     O_2   0.195866 0.959819 0.346326 -0.579252
O19   O     O_R   0.281459 0.774942 0.306132 -0.769200
O20   O     O_R   0.316750 0.499980 0.613090 -0.592316
O21   O     O_R   0.316790 0.500020 0.386950 -0.605940
O22   O     O_R   0.499980 0.680900 0.613100 -0.566021
O23   O     O_R   0.500020 0.680940 0.386960 -0.563511
O24   O     O_R   0.683210 0.499980 0.613050 -0.620561
O25   O     O_R   0.683250 0.500020 0.386910 -0.615199
O26   O     O_2   0.579894 0.092461 0.730660 -0.597545
Zn1   Zn    Zn3+2 0.499970 0.499970 0.650990 1.096893
Zn2   Zn    Zn3+2 0.500030 0.500030 0.349010 1.045657

loop_
_geom_bond_atom_site_label_1
_geom_bond_atom_site_label_2
_ccdc_geom_bond_type
C8    C9    A    
C19   C23   S    
C23   C24   A    
C16   O8    D    
C3    N1    D    
O1    Zn1   S    
C2    C27   D    
C19   O17   S    
C25   C27   S    
C11   O15   S    
C9    C10   A    
C4    O21   A    
C1    O1    A    
O23   Zn2   S    
O20   Zn1   S    
C18   O13   D    
C8    C12   A    
O24   Zn1   S    
C27   H8    S    
C7    O25   A    
C25   C26   D    
H9    O2    S    
C8    C16   S    
C22   H1    S    
C21   C22   A    
C20   O19   S    
C4    C21   S    
C11   C13   A    
C4    O20   A    
H11   O4    S    
C6    C26   S    
C15   O5    D    
C10   C18   S    
O25   Zn2   S    
H13   O7    S    
C12   C21   A    
H4    O15   S    
C9    C17   S    
C14   O26   D    
H12   O6    S    
C3    O3    S    
C14   O2    S    
N1    O4    S    
C15   O6    S    
C1    O12   A    
C2    C14   S    
C18   O14   S    
C5    C15   S    
H2    O11   S    
H5    O17   S    
C7    O24   A    
O22   Zn1   S    
N2    O7    S    
C17   O10   D    
C6    O23   A    
C12   C13   A    
C16   O9    S    
C1    C2    S    
C10   C11   A    
O21   Zn2   S    
C20   O18   D    
C22   C23   A    
C5    N2    D    
N2    Zn2   S    
H14   O9    S    
N1    Zn1   S    
C19   O16   D    
H10   O3    S    
C17   O11   S    
C26   H7    S    
C6    O22   A    
O12   Zn2   S    
C7    C24   S    
C13   C24   A    
H3    O14   S    
H6    O19   S    
C3    C5    S    
C20   C25   S    
