data_mof_unit_19775.cif
_audit_creation_date              2012-12-11T14:28:12-0500
_audit_creation_method            fapswitch 2.2
_symmetry_space_group_name_H-M    P1
_symmetry_Int_Tables_number       1
_space_group_crystal_system       triclinic
_cell_length_a                    11.095894
_cell_length_b                    19.525591
_cell_length_c                    18.488749
_cell_angle_alpha                 90.282454
_cell_angle_beta                  90.380208
_cell_angle_gamma                 90.545454
_cell_volume                      4005.33971834

loop_
_atom_site_label
_atom_site_type_symbol
_atom_type_description
_atom_site_fract_x
_atom_site_fract_y
_atom_site_fract_z
_atom_type_partial_charge
C1    C     C_R   0.318304 0.968714 0.646537 0.527065
C2    C     C_R   0.323027 0.969119 0.852872 0.520337
C3    C     C_R   0.322117 0.031707 0.353506 0.518761
C4    C     C_R   0.318363 0.031856 0.145817 0.530248
C5    C     C_R   0.822081 0.469534 0.647819 0.524442
C6    C     C_R   0.823027 0.469116 0.852875 0.517728
C7    C     C_R   0.818364 0.532152 0.354419 0.523675
C8    C     C_R   0.818362 0.531858 0.145818 0.532552
C9    C     C_3   0.147422 0.745613 0.460138 0.133194
C10   C     C_3   0.156422 0.703163 0.022562 0.127181
C11   C     C_3   0.218334 0.269602 0.548628 0.134066
C12   C     C_3   0.159825 0.247864 0.958852 0.131521
C13   C     C_3   0.719525 0.274825 0.448101 0.114181
C14   C     C_3   0.656404 0.203157 0.022552 0.127344
C15   C     C_3   0.625558 0.814628 0.516833 0.136006
C16   C     C_3   0.659814 0.747859 0.958866 0.131940
C17   C     C_3   0.020076 0.727041 0.437020 0.037681
C18   C     C_3   0.069663 0.743907 0.069300 0.039200
C19   C     C_3   0.097335 0.246337 0.577919 0.037463
C20   C     C_3   0.034139 0.267936 0.935212 0.036653
C21   C     C_3   0.593552 0.253358 0.423424 0.039568
C22   C     C_3   0.569645 0.243901 0.069291 0.040903
C23   C     C_3   0.532866 0.775504 0.561744 0.028143
C24   C     C_3   0.534135 0.767936 0.935217 0.035666
C25   C     C_R   0.337534 0.998532 0.424072 0.001369
C26   C     C_R   0.321764 0.001931 0.072553 -0.033301
C27   C     C_R   0.318478 0.001559 0.574923 -0.027443
C28   C     C_R   0.340719 0.005782 0.921681 -0.013365
C29   C     C_R   0.820208 0.502585 0.428034 -0.031635
C30   C     C_R   0.821759 0.501930 0.072556 -0.033241
C31   C     C_R   0.836370 0.506397 0.579579 -0.037807
C32   C     C_R   0.840721 0.505777 0.921685 -0.013161
C33   C     C_R   0.559111 0.019078 0.438457 -0.093965
C34   C     C_R   0.539606 0.981697 0.083110 -0.109490
C35   C     C_R   0.531570 0.032388 0.586783 -0.120973
C36   C     C_R   0.562152 0.988535 0.934500 -0.094667
C37   C     C_R   0.037200 0.487886 0.421335 -0.091681
C38   C     C_R   0.039597 0.481692 0.083125 -0.109386
C39   C     C_R   0.058190 0.499183 0.569964 -0.087646
C40   C     C_R   0.062158 0.488525 0.934517 -0.094439
C41   C     C_R   0.660584 0.027810 0.483020 0.121105
C42   C     C_R   0.654080 0.986337 0.053884 0.141975
C43   C     C_R   0.646844 0.031485 0.558299 0.120270
C44   C     C_R   0.665039 0.984546 0.978271 0.156148
C45   C     C_R   0.149423 0.498887 0.451551 0.187287
C46   C     C_R   0.154074 0.486338 0.053908 0.141986
C47   C     C_R   0.161634 0.496839 0.527040 0.189913
C48   C     C_R   0.165041 0.484541 0.978295 0.156286
C49   C     C_R   0.430102 0.016680 0.543335 -0.035205
C50   C     C_R   0.445991 0.995459 0.964616 0.001178
C51   C     C_R   0.441900 0.012699 0.467605 0.007046
C52   C     C_R   0.435494 0.992802 0.040526 -0.023565
C53   C     C_R   0.942160 0.498576 0.538205 -0.030779
C54   C     C_R   0.945992 0.495452 0.964625 0.001479
C55   C     C_R   0.932447 0.494082 0.462270 -0.041155
C56   C     C_R   0.935490 0.492797 0.040534 -0.023799
C57   C     C_R   0.214289 0.991637 0.529895 0.000012
C58   C     C_R   0.235127 0.026341 0.954636 0.018110
C59   C     C_R   0.230972 0.976758 0.456760 0.014978
C60   C     C_R   0.217972 0.009831 0.027296 -0.003869
C61   C     C_R   0.729463 0.524280 0.545428 0.005024
C62   C     C_R   0.735127 0.526340 0.954638 0.018437
C63   C     C_R   0.715217 0.510233 0.471590 0.010765
C64   C     C_R   0.717969 0.509832 0.027298 -0.003953
C65   C     C_R   0.093927 0.992030 0.555541 -0.081455
C66   C     C_R   0.140752 0.054791 0.913484 -0.077574
C67   C     C_R   0.136045 0.946802 0.415770 -0.076627
C68   C     C_R   0.097620 0.006731 0.052124 -0.085318
C69   C     C_R   0.632215 0.549332 0.585968 -0.090556
C70   C     C_R   0.640752 0.554789 0.913483 -0.077513
C71   C     C_R   0.595893 0.508045 0.444221 -0.083243
C72   C     C_R   0.597616 0.506735 0.052125 -0.085337
C73   C     C_R   0.999397 0.966210 0.513420 -0.101589
C74   C     C_R   0.025511 0.056630 0.940756 -0.116548
C75   C     C_R   0.020702 0.942675 0.443700 -0.119970
C76   C     C_R   0.004211 0.032752 0.010122 -0.098134
C77   C     C_R   0.519754 0.555467 0.555090 -0.117284
C78   C     C_R   0.525511 0.556634 0.940757 -0.116554
C79   C     C_R   0.502757 0.535939 0.483972 -0.116838
C80   C     C_R   0.504208 0.532758 0.010124 -0.098180
C81   C     C_R   0.136148 0.758047 0.643377 0.534918
C82   C     C_R   0.133131 0.758540 0.855107 0.534382
C83   C     C_R   0.189414 0.227527 0.363182 0.568559
C84   C     C_R   0.138483 0.240652 0.142543 0.549200
C85   C     C_R   0.687214 0.272504 0.637302 0.557397
C86   C     C_R   0.633126 0.258539 0.855103 0.542381
C87   C     C_R   0.630480 0.742593 0.354198 0.533803
C88   C     C_R   0.638466 0.740657 0.142550 0.541382
C89   C     C_R   0.500718 0.786686 0.637185 0.556171
C90   C     C_R   0.501220 0.785586 0.862438 0.555296
C91   C     C_R   0.545850 0.231732 0.353130 0.533258
C92   C     C_R   0.541102 0.229707 0.144564 0.548197
C93   C     C_R   0.047559 0.267757 0.647721 0.550856
C94   C     C_R   0.001219 0.285587 0.862437 0.554550
C95   C     C_R   0.995362 0.712282 0.361575 0.560527
C96   C     C_R   0.041118 0.729712 0.144573 0.553248
C97   C     C_3   0.970032 0.783214 0.487194 -0.138213
C98   C     C_3   0.107155 0.811200 0.032136 -0.160562
C99   C     C_3   0.111481 0.176017 0.540315 -0.148441
C100  C     C_3   0.979062 0.212631 0.984365 -0.129538
C101  C     C_3   0.537436 0.305476 0.475680 -0.141040
C102  C     C_3   0.607146 0.311194 0.032131 -0.160543
C103  C     C_3   0.579753 0.707636 0.532761 -0.148212
C104  C     C_3   0.479044 0.712637 0.984374 -0.129581
C105  C     C_3   0.100719 0.801338 0.510995 -0.111837
C106  C     C_3   0.196831 0.769448 0.985741 -0.106560
C107  C     C_3   0.236028 0.199870 0.509546 -0.135639
C108  C     C_3   0.108414 0.193134 0.009375 -0.107179
C109  C     C_3   0.666203 0.327447 0.501550 -0.123339
C110  C     C_3   0.696821 0.269442 0.985736 -0.107871
C111  C     C_3   0.672737 0.747111 0.487582 -0.100982
C112  C     C_3   0.608390 0.693136 0.009390 -0.106142
C113  C     C_3   0.090263 0.746978 0.570735 0.032764
C114  C     C_3   0.096179 0.756397 0.929465 0.046755
C115  C     C_3   0.168633 0.229602 0.442691 0.017981
C116  C     C_3   0.098953 0.248114 0.068827 0.028348
C117  C     C_3   0.660660 0.270224 0.559251 0.026678
C118  C     C_3   0.596171 0.256396 0.929458 0.045125
C119  C     C_3   0.579959 0.751839 0.425622 0.043265
C120  C     C_3   0.598932 0.748120 0.068837 0.030470
C121  C     C_3   0.960838 0.729002 0.548481 -0.169387
C122  C     C_3   0.007513 0.799148 0.973812 -0.127125
C123  C     C_3   0.047038 0.205395 0.472434 -0.102615
C124  C     C_3   0.971641 0.267013 0.045610 -0.162892
C125  C     C_3   0.534003 0.248734 0.534479 -0.142190
C126  C     C_3   0.507506 0.299148 0.973804 -0.127194
C127  C     C_3   0.486985 0.711107 0.469796 -0.129061
C128  C     C_3   0.471625 0.767023 0.045615 -0.163704
C129  C     C_3   0.010637 0.672997 0.496663 -0.130742
C130  C     C_3   0.968407 0.731769 0.012551 -0.090181
C131  C     C_3   0.033046 0.275574 0.510974 -0.089007
C132  C     C_3   0.026588 0.321878 0.995034 -0.135406
C133  C     C_3   0.589624 0.197445 0.481844 -0.109341
C134  C     C_3   0.468391 0.231768 0.012539 -0.089291
C135  C     C_3   0.439902 0.780555 0.500527 -0.103725
C136  C     C_3   0.526584 0.821883 0.995036 -0.136122
C137  C     C_3   0.139443 0.692505 0.519109 0.134686
C138  C     C_3   0.057778 0.692017 0.967122 0.116602
C139  C     C_3   0.155004 0.297333 0.482914 0.120192
C140  C     C_3   0.153486 0.300958 0.017670 0.120469
C141  C     C_3   0.715226 0.220034 0.505925 0.116487
C142  C     C_3   0.557762 0.192016 0.967111 0.116305
C143  C     C_3   0.534608 0.819024 0.455752 0.118179
C144  C     C_3   0.653476 0.800958 0.017679 0.121088
Cr1   Cr    Cr6+3 0.488160 0.884660 0.750000 0.978921
Cr2   Cr    Cr6+3 0.488160 0.115340 0.250000 0.982423
Cr3   Cr    Cr6+3 0.988160 0.384660 0.750000 0.973341
Cr4   Cr    Cr6+3 0.988160 0.615340 0.250000 0.984329
Cr5   Cr    Cr6+3 0.173480 0.883120 0.750000 1.009484
Cr6   Cr    Cr6+3 0.173480 0.116880 0.250000 1.015002
Cr7   Cr    Cr6+3 0.673480 0.383120 0.750000 1.017200
Cr8   Cr    Cr6+3 0.673480 0.616880 0.250000 1.005514
Cr9   Cr    Cr6+3 0.333410 0.727260 0.750000 0.976471
Cr10  Cr    Cr6+3 0.333410 0.272740 0.250000 0.982496
Cr11  Cr    Cr6+3 0.833410 0.227260 0.750000 0.975808
Cr12  Cr    Cr6+3 0.833410 0.772740 0.250000 0.982427
H1    H     H_    0.145291 0.851114 0.521761 0.142068
H2    H     H_    0.284637 0.789479 0.967706 0.108682
H3    H     H_    0.317746 0.167690 0.507462 0.103617
H4    H     H_    0.152139 0.144508 0.023023 0.147366
H5    H     H_    0.700797 0.379754 0.512239 0.131912
H6    H     H_    0.784634 0.289468 0.967706 0.108438
H7    H     H_    0.762647 0.726758 0.476812 0.111732
H8    H     H_    0.652107 0.644509 0.023040 0.147623
H9    H     H_    0.910437 0.962488 0.535984 0.188311
H10   H     H_    0.954158 0.078027 0.908281 0.111164
H11   H     H_    0.948655 0.920883 0.411113 0.109856
H12   H     H_    0.916444 0.037693 0.032521 0.195338
H13   H     H_    0.447852 0.578392 0.585742 0.153486
H14   H     H_    0.454159 0.578032 0.908281 0.110890
H15   H     H_    0.418905 0.546087 0.458951 0.197718
H16   H     H_    0.416441 0.537698 0.032527 0.195339
H17   H     H_    0.899380 0.819719 0.471246 0.141830
H18   H     H_    0.128824 0.859852 0.060743 0.121286
H19   H     H_    0.090275 0.127044 0.567064 0.133925
H20   H     H_    0.907936 0.179049 0.962287 0.143273
H21   H     H_    0.468138 0.342344 0.458199 0.114802
H22   H     H_    0.628817 0.359845 0.060739 0.121450
H23   H     H_    0.608977 0.671965 0.574338 0.133432
H24   H     H_    0.407923 0.679056 0.962289 0.143251
H25   H     H_    0.885475 0.722548 0.587140 0.132465
H26   H     H_    0.948829 0.838995 0.950145 0.165838
H27   H     H_    0.980203 0.177493 0.438232 0.192655
H28   H     H_    0.896494 0.274432 0.084121 0.139984
H29   H     H_    0.466383 0.230855 0.573784 0.170320
H30   H     H_    0.448828 0.338997 0.950137 0.165915
H31   H     H_    0.432955 0.668207 0.446930 0.147011
H32   H     H_    0.396480 0.774449 0.084127 0.138841
H33   H     H_    0.970230 0.622252 0.487579 0.126974
H34   H     H_    0.878178 0.711119 0.026583 0.147960
H35   H     H_    0.953371 0.309426 0.512903 0.153920
H36   H     H_    0.985647 0.371592 0.986466 0.122210
H37   H     H_    0.551287 0.145915 0.474142 0.133425
H38   H     H_    0.378161 0.211120 0.026569 0.147769
H39   H     H_    0.350089 0.800302 0.514469 0.140095
H40   H     H_    0.485658 0.871600 0.986462 0.122026
H41   H     H_    0.576680 0.011492 0.381713 0.146124
H42   H     H_    0.533731 0.969067 0.139841 0.126055
H43   H     H_    0.523092 0.042173 0.644180 0.135446
H44   H     H_    0.577870 0.993428 0.877247 0.138707
H45   H     H_    0.034317 0.473249 0.364862 0.127349
H46   H     H_    0.033718 0.469062 0.139856 0.126931
H47   H     H_    0.070771 0.507030 0.627394 0.126008
H48   H     H_    0.077881 0.493407 0.877265 0.138460
H49   H     H_    0.150665 0.928513 0.361114 0.125457
H50   H     H_    0.074212 0.985065 0.103925 0.149429
H51   H     H_    0.070836 0.012651 0.607977 0.146335
H52   H     H_    0.155911 0.073343 0.859094 0.122297
H53   H     H_    0.573063 0.486697 0.391790 0.145450
H54   H     H_    0.574206 0.485070 0.103926 0.149405
H55   H     H_    0.644368 0.566497 0.641445 0.123113
H56   H     H_    0.655909 0.573335 0.859089 0.120311
O1    O     O_R   0.575450 0.828820 0.667950 -0.498497
O2    O     O_R   0.575450 0.828820 0.832050 -0.522671
O3    O     O_R   0.575450 0.171180 0.332050 -0.527263
O4    O     O_R   0.575450 0.171180 0.167950 -0.515127
O5    O     O_R   0.075450 0.328820 0.667950 -0.517893
O6    O     O_R   0.075450 0.328820 0.832050 -0.526043
O7    O     O_R   0.075450 0.671180 0.332050 -0.527430
O8    O     O_R   0.075450 0.671180 0.167950 -0.513838
O9    O     O_R   0.416860 0.942890 0.674680 -0.522936
O10   O     O_R   0.416860 0.942890 0.825320 -0.536054
O11   O     O_R   0.416860 0.057110 0.325320 -0.524772
O12   O     O_R   0.416860 0.057110 0.174680 -0.505598
O13   O     O_R   0.916860 0.442890 0.674680 -0.516192
O14   O     O_R   0.916860 0.442890 0.825320 -0.535506
O15   O     O_R   0.916860 0.557110 0.325320 -0.526051
O16   O     O_R   0.916860 0.557110 0.174680 -0.506708
O17   O     O_R   0.213790 0.953680 0.668330 -0.533021
O18   O     O_R   0.213790 0.953680 0.831670 -0.507364
O19   O     O_R   0.213790 0.046320 0.331670 -0.519744
O20   O     O_R   0.213790 0.046320 0.168330 -0.534302
O21   O     O_R   0.713790 0.453680 0.668330 -0.522245
O22   O     O_R   0.713790 0.453680 0.831670 -0.509918
O23   O     O_R   0.713790 0.546320 0.331670 -0.529613
O24   O     O_R   0.713790 0.546320 0.168330 -0.532580
O25   O     O_R   0.121360 0.817890 0.672660 -0.498419
O26   O     O_R   0.121360 0.817890 0.827340 -0.502141
O27   O     O_R   0.121360 0.182110 0.327340 -0.504008
O28   O     O_R   0.121360 0.182110 0.172660 -0.494418
O29   O     O_R   0.621360 0.317890 0.672660 -0.484791
O30   O     O_R   0.621360 0.317890 0.827340 -0.499599
O31   O     O_R   0.621360 0.682110 0.327340 -0.504936
O32   O     O_R   0.621360 0.682110 0.172660 -0.497940
O33   O     O_R   0.206850 0.711370 0.665820 -0.551866
O34   O     O_R   0.206850 0.711370 0.834180 -0.547594
O35   O     O_R   0.206850 0.288630 0.334180 -0.541215
O36   O     O_R   0.206850 0.288630 0.165820 -0.552996
O37   O     O_R   0.706850 0.211370 0.665820 -0.542011
O38   O     O_R   0.706850 0.211370 0.834180 -0.545972
O39   O     O_R   0.706850 0.788630 0.334180 -0.546797
O40   O     O_R   0.706850 0.788630 0.165820 -0.556801
O41   O     O_R   0.457710 0.733190 0.672630 -0.517180
O42   O     O_R   0.457710 0.733190 0.827370 -0.513310
O43   O     O_R   0.457710 0.266810 0.327370 -0.527978
O44   O     O_R   0.457710 0.266810 0.172630 -0.519782
O45   O     O_R   0.957710 0.233190 0.672630 -0.537062
O46   O     O_R   0.957710 0.233190 0.827370 -0.517436
O47   O     O_R   0.957710 0.766810 0.327370 -0.517997
O48   O     O_R   0.957710 0.766810 0.172630 -0.516088
O49   O     O_3   0.331690 0.831680 0.750000 -0.293272
O50   O     O_3   0.331690 0.168320 0.250000 -0.281838
O51   O     O_3   0.831690 0.331680 0.750000 -0.296938
O52   O     O_3   0.831690 0.668320 0.250000 -0.279744
N1    N     N_3   0.233413 0.643794 0.535827 -0.605276
H57   H     H_    0.204596 0.616897 0.581152 0.258124
H58   H     H_    0.308808 0.671591 0.553094 0.244601
N2    N     N_3   0.027737 0.630170 0.927598 -0.634153
H59   H     H_    0.958984 0.641789 0.890875 0.235064
H60   H     H_    0.102997 0.616951 0.897210 0.236298
N3    N     N_3   0.181145 0.363188 0.453519 -0.627288
H61   H     H_    0.122354 0.368942 0.409843 0.261075
H62   H     H_    0.269459 0.362850 0.434552 0.241771
N4    N     N_3   0.251161 0.347305 0.035069 -0.589116
H63   H     H_    0.220611 0.371011 0.080759 0.273942
H64   H     H_    0.322077 0.319026 0.055172 0.248850
N5    N     N_3   0.811258 0.174120 0.523736 -0.620890
H65   H     H_    0.772656 0.137263 0.555240 0.286594
H66   H     H_    0.865481 0.200000 0.560561 0.244949
N6    N     N_3   0.527718 0.130173 0.927579 -0.633823
H67   H     H_    0.458961 0.141795 0.890859 0.236767
H68   H     H_    0.602974 0.116957 0.897186 0.236452
N7    N     N_3   0.508394 0.876996 0.409882 -0.640238
H69   H     H_    0.443488 0.861193 0.371964 0.231345
H70   H     H_    0.586509 0.888817 0.381187 0.233752
N8    N     N_3   0.751154 0.847303 0.035072 -0.589020
H71   H     H_    0.720607 0.871008 0.080763 0.273907
H72   H     H_    0.822071 0.819023 0.055173 0.249116
N9    N     N_3   0.243885 0.756050 0.407985 -0.648204
H73   H     H_    0.264311 0.709194 0.383869 0.264439
H74   H     H_    0.213227 0.789201 0.367810 0.239702
N10   N     N_3   0.233504 0.649001 0.047966 -0.625427
H75   H     H_    0.259146 0.620895 0.002617 0.221659
H76   H     H_    0.175008 0.616207 0.074433 0.269826
N11   N     N_3   0.304921 0.308896 0.592396 -0.621044
H77   H     H_    0.360705 0.335108 0.557253 0.219184
H78   H     H_    0.261048 0.348677 0.618512 0.262665
N12   N     N_3   0.259347 0.237359 0.909130 -0.646369
H79   H     H_    0.276782 0.283651 0.882977 0.258638
H80   H     H_    0.230506 0.202236 0.869719 0.232414
N13   N     N_3   0.818857 0.288325 0.398988 -0.640520
H81   H     H_    0.826959 0.245599 0.365176 0.246399
H82   H     H_    0.793828 0.329332 0.366223 0.222383
N14   N     N_3   0.733482 0.148994 0.047956 -0.625231
H83   H     H_    0.759133 0.120893 0.002606 0.221536
H84   H     H_    0.674980 0.116199 0.074418 0.270058
N15   N     N_3   0.702572 0.869433 0.543228 -0.610696
H85   H     H_    0.738501 0.893640 0.497959 0.224186
H86   H     H_    0.644312 0.903626 0.567593 0.267619
N16   N     N_3   0.759352 0.737343 0.909159 -0.647333
H87   H     H_    0.776788 0.783628 0.882993 0.258203
H88   H     H_    0.730530 0.702204 0.869760 0.231943
N17   N     N_3   0.776850 0.033964 0.450920 -0.605655
H89   H     H_    0.776888 0.077750 0.418597 0.255234
H90   H     H_    0.787066 0.992277 0.415993 0.196417
N18   N     N_3   0.758051 0.987586 0.101362 -0.631919
H91   H     H_    0.742208 0.957222 0.146819 0.204806
H92   H     H_    0.768730 0.036227 0.123810 0.222763
N19   N     N_3   0.748951 0.028774 0.606464 -0.639102
H93   H     H_    0.744706 0.982847 0.635087 0.228792
H94   H     H_    0.740902 0.067479 0.645400 0.226871
N20   N     N_3   0.779402 0.975954 0.944848 -0.605443
H95   H     H_    0.787683 0.013902 0.905555 0.190166
H96   H     H_    0.777635 0.929087 0.917245 0.253407
N21   N     N_3   0.250796 0.503685 0.404512 -0.654806
H97   H     H_    0.242142 0.548944 0.374976 0.235514
H98   H     H_    0.248986 0.463359 0.367146 0.212724
N22   N     N_3   0.258037 0.487592 0.101395 -0.632098
H99   H     H_    0.242202 0.457212 0.146842 0.204944
H100  H     H_    0.268682 0.536228 0.123862 0.222333
N23   N     N_3   0.278234 0.492276 0.559976 -0.634386
H101  H     H_    0.318726 0.447851 0.540799 0.252212
H102  H     H_    0.271138 0.486876 0.616033 0.200308
N24   N     N_3   0.279408 0.475945 0.944878 -0.605510
H103  H     H_    0.287699 0.513896 0.905589 0.189849
H104  H     H_    0.277639 0.429081 0.917270 0.253253

loop_
_geom_bond_atom_site_label_1
_geom_bond_atom_site_label_2
_ccdc_geom_bond_type
N20   H96   S    
C7    C29   S    
C119  C143  S    
C6    C32   S    
C120  C144  S    
C110  C118  S    
N13   H81   S    
Cr5   O18   S    
C4    O20   A    
C121  H25   S    
C16   C144  S    
Cr8   O32   S    
C30   C64   A    
C57   C59   A    
Cr1   O9    S    
C58   C60   A    
N3    H61   S    
Cr6   O20   S    
C62   C70   A    
C1    O9    A    
N4    H63   S    
C61   C63   A    
C91   O3    A    
C23   C103  S    
C49   C51   A    
C34   C42   A    
C50   C52   A    
C23   C89   S    
C69   H55   S    
C67   H49   S    
C88   O40   A    
C97   C105  S    
C47   N23   S    
C73   C75   A    
C42   C44   A    
C20   C132  S    
Cr5   O49   S    
Cr3   O14   S    
C83   O27   A    
Cr10  O43   S    
C45   C47   A    
C112  H8    S    
N16   H88   S    
C115  C123  S    
C27   C57   A    
C57   C65   A    
C112  C120  S    
Cr11  O46   S    
C19   C99   S    
C10   N10   S    
C29   C55   A    
C96   O8    A    
Cr7   O22   S    
C30   C56   A    
N18   H91   S    
C100  C124  S    
Cr3   O5    S    
C81   O33   A    
C44   N20   S    
C104  C128  S    
C7    O15   A    
C86   O30   A    
Cr9   O34   S    
C12   C20   S    
C120  C128  S    
C13   C21   S    
C85   C117  S    
C93   O45   A    
C63   C71   A    
C113  C137  S    
C36   C44   A    
C33   C51   A    
N12   H79   S    
C80   H16   S    
C142  N6    S    
C130  C138  S    
C90   O2    A    
C36   C50   A    
C39   C47   A    
C40   C48   A    
Cr9   O41   S    
C133  C141  S    
C24   C90   S    
Cr8   O24   S    
C28   C58   A    
C143  N7    S    
C98   C106  S    
N10   H76   S    
C8    C30   S    
C4    O12   A    
N8    H72   S    
C91   O43   A    
C10   C18   S    
C5    O13   A    
C76   H12   S    
Cr4   O7    S    
C2    C28   S    
C32   C62   A    
Cr1   O2    S    
C134  H38   S    
C129  C137  S    
C126  C134  S    
Cr6   O27   S    
C38   H46   S    
C42   N18   S    
C10   C138  S    
N15   H86   S    
C130  H34   S    
C14   C142  S    
C85   O37   A    
C70   H56   S    
C69   C77   A    
Cr4   O16   S    
C71   C79   A    
C8    O16   A    
Cr12  O39   S    
C35   H43   S    
N11   H78   S    
C11   N11   S    
C74   C76   A    
C110  H6    S    
C105  C113  S    
C124  H28   S    
C78   C80   A    
N17   H90   S    
C9    C105  S    
C66   C74   A    
C78   H14   S    
C124  C132  S    
C93   O5    A    
C20   C94   S    
N21   H98   S    
C97   C121  S    
C59   C67   A    
Cr12  O52   S    
C87   O31   A    
C40   H48   S    
C71   H53   S    
C129  H33   S    
C35   C49   A    
C62   C64   A    
Cr2   O50   S    
C35   C43   A    
C132  H36   S    
C24   C136  S    
C135  C143  S    
C90   O42   A    
C41   N17   S    
C84   C116  S    
N5    H65   S    
C100  C108  S    
C82   O34   A    
C144  N8    S    
C83   C115  S    
N6    H67   S    
C73   H9    S    
C3    O19   A    
C104  C112  S    
N24   H103  S    
C87   C119  S    
Cr7   O29   S    
Cr2   O12   S    
C34   H42   S    
C127  H31   S    
N9    H73   S    
C43   N19   S    
Cr4   O52   S    
N1    H58   S    
C15   C143  S    
C40   C54   A    
Cr1   O49   S    
C102  H22   S    
C10   C106  S    
C67   C75   A    
C83   O35   A    
C48   N24   S    
C14   C110  S    
C3    O11   A    
N22   H99   S    
C102  C126  S    
C79   H15   S    
C65   H51   S    
C103  C111  S    
C68   C76   A    
C38   C56   A    
C84   O36   A    
Cr5   O17   S    
C14   C22   S    
Cr11  O51   S    
C72   C80   A    
C68   H50   S    
C94   O46   A    
C81   O25   A    
N4    H64   S    
C114  C138  S    
C38   C46   A    
C131  C139  S    
C2    O18   A    
C45   N21   S    
C37   C55   A    
C46   C48   A    
C113  C121  S    
Cr10  O35   S    
C133  H37   S    
C95   O7    A    
C22   C92   S    
C25   C59   A    
C17   C97   S    
C27   C49   A    
C119  C127  S    
C29   C63   A    
Cr3   O51   S    
C39   H47   S    
C41   C43   A    
C31   C61   A    
N19   H94   S    
Cr3   O13   S    
C109  C117  S    
Cr10  O44   S    
C11   C19   S    
C127  C135  S    
C136  H40   S    
C128  C136  S    
Cr11  O45   S    
N7    H70   S    
C101  C109  S    
Cr7   O21   S    
C2    O10   A    
N18   H92   S    
C21   C133  S    
C11   C139  S    
C116  C140  S    
C9    C137  S    
C105  H1    S    
Cr9   O33   S    
C100  H20   S    
C12   C140  S    
C17   C95   S    
C13   C141  S    
C88   C120  S    
Cr2   O3    S    
C19   C93   S    
Cr7   O51   S    
Cr12  O47   S    
Cr8   O52   S    
C77   C79   A    
N20   H95   S    
N12   H80   S    
C32   C54   A    
C7    O23   A    
N13   H82   S    
Cr11  O37   S    
C16   N16   S    
C123  H27   S    
N15   H85   S    
C3    C25   S    
C97   H17   S    
Cr8   O31   S    
N11   H77   S    
Cr1   O10   S    
Cr6   O19   S    
C117  C141  S    
N23   H101  S    
Cr10  O50   S    
C134  C142  S    
C66   H52   S    
C107  H3    S    
C20   C100  S    
C126  H30   S    
C96   O48   A    
C85   O29   A    
Cr5   O26   S    
C86   C118  S    
Cr4   O8    S    
Cr6   O50   S    
Cr1   O1    S    
C92   O44   A    
C22   C134  S    
Cr6   O28   S    
C102  C110  S    
C74   H10   S    
C16   C112  S    
C89   O1    A    
C21   C91   S    
N16   H87   S    
C12   N12   S    
C116  C124  S    
C123  C131  S    
C128  H32   S    
C36   H44   S    
C121  C129  S    
C103  C127  S    
C88   O32   A    
C4    C26   S    
Cr12  O40   S    
C15   N15   S    
C132  C140  S    
C99   C107  S    
C34   C52   A    
C23   C135  S    
C33   C41   A    
C108  C116  S    
C136  C144  S    
Cr3   O6    S    
N17   H89   S    
C39   C53   A    
C138  N2    S    
C6    O14   A    
C92   O4    A    
C103  H23   S    
N21   H97   S    
C101  H21   S    
C135  H39   S    
N19   H93   S    
N2    H59   S    
C60   C68   A    
C81   C113  S    
Cr5   O25   S    
C37   H45   S    
C86   O38   A    
Cr9   O42   S    
C70   C78   A    
C18   C96   S    
Cr8   O23   S    
C95   O47   A    
C106  C114  S    
C125  H29   S    
N10   H75   S    
N6    H68   S    
N8    H71   S    
C98   H18   S    
N24   H104  S    
C94   O6    A    
C65   C73   A    
C140  N4    S    
C137  N1    S    
C58   C66   A    
C72   H54   S    
C13   C109  S    
N1    H57   S    
C21   C101  S    
C15   C23   S    
C12   C108  S    
C16   C24   S    
C89   O41   A    
C13   N13   S    
C84   O28   A    
Cr4   O15   S    
C28   C50   A    
Cr11  O38   S    
C53   C55   A    
C19   C131  S    
C54   C56   A    
C17   C129  S    
C15   C111  S    
C111  H7    S    
C82   C114  S    
N22   H100  S    
C106  H2    S    
C139  N3    S    
C24   C104  S    
C25   C51   A    
C26   C52   A    
C75   H11   S    
C101  C125  S    
C33   H41   S    
C125  C133  S    
C99   H19   S    
C31   C53   A    
C46   N22   S    
N23   H102  S    
C107  C115  S    
C98   C122  S    
C111  C119  S    
C9    C17   S    
N14   H83   S    
Cr10  O36   S    
N5    H66   S    
C11   C107  S    
C8    O24   A    
N7    H69   S    
Cr9   O49   S    
C99   C123  S    
C61   C69   A    
N3    H62   S    
N2    H60   S    
C115  C139  S    
C118  C142  S    
C14   N14   S    
C108  H4    S    
C131  H35   S    
C118  C126  S    
C22   C102  S    
C87   O39   A    
C141  N5    S    
C109  H5    S    
Cr7   O30   S    
C9    N9    S    
Cr2   O11   S    
C104  H24   S    
C26   C60   A    
C82   O26   A    
N14   H84   S    
N9    H74   S    
C64   C72   A    
C6    O22   A    
C18   C130  S    
C114  C122  S    
C1    O17   A    
C122  H26   S    
C77   H13   S    
C1    C27   S    
C5    O21   A    
C18   C98   S    
C5    C31   S    
C117  C125  S    
C37   C45   A    
C122  C130  S    
Cr2   O4    S    
Cr12  O48   S    
