data_mof_unit_55280.cif
_audit_creation_date              2012-10-26T18:34:49-0400
_audit_creation_method            fapswitch 2.2
_symmetry_space_group_name_H-M    P1
_symmetry_Int_Tables_number       1
_space_group_crystal_system       triclinic
_cell_length_a                    10.766124
_cell_length_b                    9.736178
_cell_length_c                    17.732083
_cell_angle_alpha                 88.099432
_cell_angle_beta                  100.650816
_cell_angle_gamma                 87.820487
_cell_volume                      1823.82005498

loop_
_atom_site_label
_atom_site_type_symbol
_atom_type_description
_atom_site_fract_x
_atom_site_fract_y
_atom_site_fract_z
_atom_type_partial_charge
C1    C     C_R   0.262246 0.501796 0.499053 0.566345
C2    C     C_R   0.486720 0.498161 0.642587 0.576393
C3    C     C_R   0.870734 0.494741 0.498577 0.049097
C4    C     C_R   0.128058 0.502971 0.499396 0.048826
C5    C     C_R   0.474358 0.618697 0.841730 -0.098239
C6    C     C_R   0.560950 0.378956 0.162460 -0.074397
C7    C     C_R   0.506282 0.621131 0.149253 -0.104841
C8    C     C_R   0.497222 0.371760 0.848380 -0.083594
C9    C     C_R   0.450007 0.618861 0.761506 0.175322
C10   C     C_R   0.573219 0.382761 0.242406 0.196838
C11   C     C_R   0.519419 0.629253 0.228874 0.169081
C12   C     C_R   0.737310 0.497901 0.500103 0.561718
C13   C     C_R   0.469418 0.368052 0.768108 0.178995
C14   C     C_R   0.465503 0.494101 0.723731 -0.015179
C15   C     C_R   0.536084 0.505493 0.276194 -0.022264
C16   C     C_R   0.408485 0.082629 0.449308 0.271741
C17   C     C_R   0.593122 0.917718 0.550367 0.322720
C18   C     C_R   0.590190 0.068063 0.551630 0.284161
C19   C     C_R   0.404278 0.933032 0.452022 0.335261
C20   C     C_R   0.502398 0.495952 0.884875 -0.039253
C21   C     C_R   0.524362 0.496766 0.116181 -0.041554
C22   C     C_1   0.513186 0.495233 0.966619 0.022180
C23   C     C_1   0.518859 0.494463 0.034912 0.022549
C24   C     C_R   0.084554 0.418739 0.553466 -0.119348
C25   C     C_R   0.913817 0.576818 0.443546 -0.059160
C26   C     C_R   0.955875 0.414622 0.553139 -0.106710
C27   C     C_R   0.042244 0.579060 0.443174 -0.033322
C28   C     C_R   0.512220 0.501815 0.357086 0.576125
Cu1   Cu    Cu3+1 0.500000 0.640660 0.500000 1.257721
Cu2   Cu    Cu3+1 0.500000 0.359340 0.500000 1.213160
H1    H     H_    0.465138 0.713788 0.870748 0.177565
H2    H     H_    0.708998 0.112281 0.208206 0.364552
H3    H     H_    0.670623 0.860007 0.192903 0.342375
H4    H     H_    0.527283 0.074589 0.801512 0.368293
H5    H     H_    0.154837 0.175750 0.457144 0.343145
H6    H     H_    0.808859 0.621082 0.657821 0.356116
H7    H     H_    0.860158 0.113334 0.566277 0.349514
H8    H     H_    0.222993 0.699830 0.317370 0.356517
H9    H     H_    0.584716 0.285329 0.136007 0.151801
H10   H     H_    0.487437 0.713679 0.112551 0.180880
H11   H     H_    0.502381 0.277661 0.883376 0.167675
H12   H     H_    0.150347 0.357167 0.595987 0.188027
H13   H     H_    0.847935 0.637244 0.400338 0.167339
H14   H     H_    0.923797 0.352335 0.596590 0.192168
H15   H     H_    0.073158 0.637415 0.397968 0.182186
H16   H     H_    0.224846 0.791459 0.778302 0.352336
N1    N     N_R   0.500000 0.852070 0.500000 -0.285579
N2    N     N_R   0.500000 0.147930 0.500000 -0.300634
O1    O     O_R   0.319640 0.618740 0.499990 -0.407694
O2    O     O_2   0.284936 0.737169 0.641184 -0.245710
O3    O     O_3   0.292329 0.853950 0.770617 -0.415578
O4    O     O_2   0.738069 0.290552 0.368940 -0.255630
O5    O     O_2   0.571961 0.136899 0.316210 -0.184278
O6    O     O_3   0.761127 0.169157 0.245775 -0.450221
O7    O     O_2   0.411704 0.855787 0.275061 -0.164703
O8    O     O_2   0.632443 0.800404 0.336521 -0.256271
O9    O     O_3   0.585664 0.898898 0.196594 -0.507076
O10   O     O_2   0.250137 0.248899 0.730962 -0.233285
O11   O     O_2   0.407082 0.174846 0.656654 -0.215465
O12   O     O_R   0.680360 0.381260 0.500010 -0.456981
O13   O     O_3   0.434667 0.086621 0.797967 -0.419344
O14   O     O_2   0.285609 0.331163 0.366337 -0.262583
O15   O     O_2   0.293733 0.124066 0.301383 -0.142838
O16   O     O_3   0.145697 0.150807 0.402761 -0.415223
O17   O     O_2   0.773920 0.878442 0.686843 -0.156454
O18   O     O_2   0.836172 0.827335 0.565764 -0.254280
O19   O     O_3   0.720873 0.654048 0.636086 -0.493658
O20   O     O_2   0.713503 0.297807 0.629232 -0.284898
O21   O     O_2   0.674623 0.102461 0.702251 -0.197268
O22   O     O_3   0.851365 0.088834 0.619660 -0.422011
O23   O     O_R   0.680360 0.618740 0.500010 -0.448264
O24   O     O_2   0.176157 0.932139 0.339120 -0.170224
O25   O     O_2   0.180017 0.838693 0.466144 -0.241337
O26   O     O_3   0.282056 0.701391 0.367294 -0.507042
O27   O     O_R   0.319640 0.381260 0.499990 -0.500360
O28   O     O_R   0.500000 0.618830 0.391250 -0.421489
O29   O     O_R   0.500000 0.381170 0.608750 -0.430323
O30   O     O_R   0.500000 0.618830 0.608750 -0.409496
O31   O     O_R   0.500000 0.381170 0.391250 -0.419903
O32   O     O_2   0.473212 0.862658 0.692587 -0.179926
S1    S     S_3+6 0.374777 0.770490 0.712989 0.091231
S2    S     S_3+6 0.660369 0.242241 0.296418 0.088807
S3    S     S_3+6 0.537077 0.797813 0.263099 0.068885
S4    S     S_3+6 0.388938 0.218899 0.734202 0.095551
S5    S     S_3+6 0.287310 0.178791 0.378913 0.150007
S6    S     S_3+6 0.730005 0.819794 0.610028 0.136995
S7    S     S_3+6 0.704237 0.146027 0.625742 0.126532
S8    S     S_3+6 0.258963 0.854155 0.405049 0.127155

loop_
_geom_bond_atom_site_label_1
_geom_bond_atom_site_label_2
_ccdc_geom_bond_type
C8    C13   A    
C24   H12   S    
C16   N2    A    
H6    O19   S    
C26   H14   S    
O17   S6    D    
C5    C20   A    
Cu1   O1    S    
C7    C11   A    
C13   S4    S    
C8    C20   A    
Cu1   N1    S    
Cu2   N2    S    
C24   C26   A    
C10   C15   A    
C4    C24   A    
C19   N1    A    
C28   O31   A    
C3    C12   S    
Cu2   O29   S    
C11   C15   A    
Cu1   O30   S    
Cu2   O12   S    
C7    H10   S    
O9    S3    S    
H5    O16   S    
O3    S1    S    
O21   S7    D    
C27   H15   S    
H7    O22   S    
O15   S5    D    
C25   H13   S    
O22   S7    S    
H2    O6    S    
O24   S8    D    
O14   S5    D    
C17   S6    S    
C1    O27   A    
C3    C25   A    
C8    H11   S    
C19   S8    S    
Cu1   O28   S    
C11   S3    S    
C7    C21   A    
C6    C21   A    
H16   O3    S    
C10   S2    S    
H4    O13   S    
O5    S2    D    
C9    C14   A    
O25   S8    D    
C5    C9    A    
Cu1   Cu2   S    
C2    O30   A    
O10   S4    D    
C17   C18   A    
O11   S4    D    
O4    S2    D    
Cu2   O31   S    
C12   O23   A    
C20   C22   S    
C21   C23   S    
C16   S5    S    
O7    S3    D    
C28   O28   A    
O16   S5    S    
O6    S2    S    
C4    C27   A    
O8    S3    D    
H8    O26   S    
O19   S6    S    
H3    O9    S    
C6    H9    S    
C3    C26   A    
C17   N1    A    
Cu1   O23   S    
O32   S1    D    
O13   S4    S    
C18   N2    A    
O18   S6    D    
C25   C27   A    
C18   S7    S    
C1    C4    S    
C2    O29   A    
Cu2   O27   S    
C15   C28   S    
C16   C19   A    
C2    C14   S    
C6    C10   A    
C12   O12   A    
O20   S7    D    
C22   C23   T    
O26   S8    S    
C13   C14   A    
C1    O1    A    
O2    S1    D    
C9    S1    S    
C5    H1    S    
