data_mof_unit_46979.cif
_audit_creation_date              2012-10-26T21:25:54-0400
_audit_creation_method            fapswitch 2.2
_symmetry_space_group_name_H-M    P1
_symmetry_Int_Tables_number       1
_space_group_crystal_system       triclinic
_cell_length_a                    10.816015
_cell_length_b                    10.829491
_cell_length_c                    12.738728
_cell_angle_alpha                 92.749227
_cell_angle_beta                  93.05512
_cell_angle_gamma                 88.865546
_cell_volume                      1488.05386592

loop_
_atom_site_label
_atom_site_type_symbol
_atom_type_description
_atom_site_fract_x
_atom_site_fract_y
_atom_site_fract_z
_atom_type_partial_charge
C1    C     C_R   0.262047 0.497052 0.500448 0.581648
C2    C     C_R   0.805576 0.745793 0.368855 0.312211
C3    C     C_R   0.133674 0.365897 0.661802 0.046752
C4    C     C_R   0.866307 0.634163 0.338247 0.047011
C5    C     C_R   0.128455 0.400458 0.769195 -0.135262
C6    C     C_R   0.871381 0.599573 0.230853 -0.135951
C7    C     C_R   0.183993 0.325554 0.845255 -0.066512
C8    C     C_R   0.815865 0.674528 0.154822 -0.066914
C9    C     C_R   0.244627 0.215606 0.814742 -0.106115
C10   C     C_R   0.755368 0.784539 0.185370 -0.106090
C11   C     C_R   0.939522 0.450212 0.581619 -0.173010
C12   C     C_R   0.737951 0.502955 0.499553 0.581565
C13   C     C_R   0.060472 0.549824 0.418392 -0.173057
C14   C     C_R   0.871632 0.505499 0.499458 0.032960
C15   C     C_R   0.128364 0.494516 0.500546 0.033002
C16   C     C_R   0.504187 0.261941 0.500851 0.576877
C17   C     C_R   0.495812 0.738059 0.499149 0.576822
C18   C     C_R   0.932250 0.558414 0.417996 -0.008875
C19   C     C_R   0.067742 0.441612 0.582017 -0.008961
C20   C     C_2   0.487172 0.452153 0.030604 0.240968
C21   C     C_2   0.512912 0.547828 0.969402 0.241196
C22   C     C_1   0.517356 0.528732 0.852497 0.163463
C23   C     C_R   0.495122 0.871683 0.498099 0.014397
C24   C     C_1   0.482680 0.471257 0.147506 0.163298
C25   C     C_R   0.852639 0.190635 0.728069 -0.100191
C26   C     C_R   0.147412 0.809418 0.271786 -0.100651
C27   C     C_R   0.770247 0.149592 0.646239 -0.154185
C28   C     C_R   0.229772 0.850387 0.353670 -0.154056
C29   C     C_R   0.647699 0.123609 0.666580 0.035658
C30   C     C_R   0.352349 0.876399 0.333383 0.035715
C31   C     C_R   0.608293 0.139345 0.769537 -0.111507
C32   C     C_R   0.391833 0.860727 0.230431 -0.111678
C33   C     C_R   0.690158 0.183536 0.850732 -0.082143
C34   C     C_R   0.504871 0.128317 0.501904 0.014426
C35   C     C_R   0.309989 0.816643 0.149181 -0.081805
C36   C     C_R   0.812296 0.212457 0.829920 0.305366
C37   C     C_R   0.187840 0.787797 0.169932 0.305271
C38   C     C_R   0.560716 0.935821 0.580384 -0.128917
C39   C     C_R   0.439275 0.064181 0.419622 -0.128926
C40   C     C_3   0.860103 0.369225 0.950048 -0.132470
C41   C     C_3   0.138450 0.629804 0.051771 -0.132850
C42   C     C_3   0.546400 0.758478 0.949770 -0.160620
C43   C     C_3   0.453835 0.241476 0.050231 -0.160736
C44   C     C_3   0.107156 0.134268 0.498015 -0.149290
C45   C     C_R   0.433132 0.936325 0.416956 -0.037543
C46   C     C_3   0.892950 0.865904 0.502017 -0.149183
C47   C     C_R   0.566865 0.063677 0.583045 -0.037555
C48   C     C_R   0.251502 0.180895 0.708257 -0.093080
C49   C     C_R   0.748594 0.819255 0.291863 -0.093158
C50   C     C_R   0.194514 0.254309 0.631234 0.312178
Cu1   Cu    Cu3+1 0.492140 0.492110 0.395880 1.003727
Cu2   Cu    Cu3+1 0.507860 0.507890 0.604120 1.003886
H1    H     H_    0.080495 0.484796 0.793877 0.105262
H2    H     H_    0.197127 0.865832 0.432150 0.091150
H3    H     H_    0.515419 0.114795 0.787265 0.113356
H4    H     H_    0.484744 0.885250 0.212749 0.113334
H5    H     H_    0.660175 0.191799 0.930246 0.138291
H6    H     H_    0.339978 0.808286 0.069651 0.139029
H7    H     H_    0.610872 0.885811 0.641524 0.147575
H8    H     H_    0.389126 0.114190 0.358479 0.147543
H9    H     H_    0.285727 0.156608 0.873538 0.122751
H10   H     H_    0.714282 0.843574 0.126598 0.122606
H11   H     H_    0.299474 0.095940 0.685317 0.109918
H12   H     H_    0.919207 0.515167 0.206150 0.104280
H13   H     H_    0.700701 0.904244 0.314832 0.109825
H14   H     H_    0.775465 0.364418 0.995482 0.127605
H15   H     H_    0.845788 0.436249 0.886560 0.114327
H16   H     H_    0.935277 0.404993 0.005227 0.119938
H17   H     H_    0.147979 0.563632 0.116190 0.113857
H18   H     H_    0.225297 0.631330 0.008961 0.127671
H19   H     H_    0.064489 0.595342 0.994803 0.120562
H20   H     H_    0.463142 0.765540 0.895011 0.117302
H21   H     H_    0.632127 0.744840 0.905824 0.130227
H22   H     H_    0.553415 0.848164 0.995227 0.116368
H23   H     H_    0.179120 0.352235 0.927942 0.133179
H24   H     H_    0.368147 0.255029 0.094238 0.130341
H25   H     H_    0.537148 0.234474 0.104933 0.116883
H26   H     H_    0.446849 0.151794 0.004762 0.116438
H27   H     H_    0.014154 0.177933 0.507090 0.108483
H28   H     H_    0.117241 0.049930 0.544545 0.096142
H29   H     H_    0.113750 0.104898 0.413855 0.148503
H30   H     H_    0.882669 0.950287 0.455534 0.096080
H31   H     H_    0.986003 0.822355 0.492802 0.108449
H32   H     H_    0.886451 0.895185 0.586213 0.148589
H33   H     H_    0.820642 0.647833 0.072130 0.133122
H34   H     H_    0.891972 0.409716 0.643783 0.126843
H35   H     H_    0.108018 0.590352 0.356240 0.126452
H36   H     H_    0.948130 0.205531 0.712283 0.121477
H37   H     H_    0.051896 0.794495 0.287507 0.121381
H38   H     H_    0.802848 0.134092 0.567754 0.091096
N1    N     N_1   0.480320 0.480250 0.239400 -0.212535
N2    N     N_1   0.519680 0.519750 0.760600 -0.212562
O1    O     O_R   0.313000 0.493330 0.412070 -0.501273
O2    O     O_3   0.103783 0.749217 0.090090 -0.569725
O3    O     O_3   0.534621 0.663293 0.020500 -0.615246
O4    O     O_3   0.465457 0.336691 0.979507 -0.615244
O5    O     O_3   0.201858 0.218948 0.526046 -0.573490
O6    O     O_3   0.798314 0.781125 0.474056 -0.573483
O7    O     O_R   0.687000 0.506670 0.587930 -0.501240
O8    O     O_R   0.326280 0.506660 0.587930 -0.497477
O9    O     O_R   0.673720 0.493340 0.412070 -0.497559
O10   O     O_R   0.493370 0.312980 0.412070 -0.514226
O11   O     O_R   0.506630 0.687020 0.587930 -0.514188
O12   O     O_R   0.506650 0.326310 0.587930 -0.477520
O13   O     O_R   0.493350 0.673690 0.412070 -0.477527
O14   O     O_3   0.896554 0.251295 0.909566 -0.570048

loop_
_geom_bond_atom_site_label_1
_geom_bond_atom_site_label_2
_ccdc_geom_bond_type
Cu2   O11   S    
C23   C45   A    
C27   C29   A    
C14   C18   A    
C30   C45   S    
Cu1   O10   S    
C15   C19   A    
C11   C19   A    
C17   C23   S    
C49   H13   S    
C13   C18   A    
C29   C47   S    
C35   H6    S    
C9    H9    S    
C5    H1    S    
C35   C37   A    
C8    C10   A    
C11   C14   A    
C11   H34   S    
C33   C36   A    
C27   H38   S    
C8    H33   S    
C6    H12   S    
C12   O7    A    
C16   C34   S    
C46   H30   S    
C16   O12   A    
C20   C24   S    
C42   H21   S    
C40   H15   S    
C31   C33   A    
C3    C19   S    
C1    C15   S    
C41   H19   S    
C4    C18   S    
C38   H7    S    
C48   C50   A    
C46   O6    S    
C40   H14   S    
C21   C22   S    
Cu1   N1    S    
C10   H10   S    
C1    O8    A    
C3    C50   A    
C42   H22   S    
C36   O14   S    
C42   O3    S    
C32   C35   A    
C44   H28   S    
C4    C6    A    
C44   H29   S    
C5    C7    A    
C28   H2    S    
C48   H11   S    
C6    C8    A    
C21   O3    S    
Cu2   O8    S    
C25   H36   S    
C34   C39   A    
C43   H26   S    
C2    C4    A    
C2    C49   A    
C17   O13   A    
C44   O5    S    
C41   O2    S    
Cu1   O13   S    
C13   H35   S    
C42   H20   S    
C43   O4    S    
C38   C47   A    
Cu1   O1    S    
C46   H32   S    
C16   O10   A    
C12   C14   S    
C13   C15   A    
Cu2   N2    S    
C25   C27   A    
C24   N1    T    
C40   O14   S    
C43   H24   S    
C7    C9    A    
Cu2   O12   S    
C50   O5    S    
C33   H5    S    
C44   H27   S    
C3    C5    A    
C7    H23   S    
C26   C37   A    
C43   H25   S    
C23   C38   A    
Cu2   O7    S    
C26   C28   A    
C39   C45   A    
C28   C30   A    
C17   O11   A    
C26   H37   S    
Cu1   Cu2   S    
C29   C31   A    
C30   C32   A    
C10   C49   A    
C39   H8    S    
C37   O2    S    
C20   O4    S    
C25   C36   A    
C46   H31   S    
C12   O9    A    
C20   C21   D    
C2    O6    S    
C9    C48   A    
C1    O1    A    
C40   H16   S    
C22   N2    T    
C34   C47   A    
C31   H3    S    
C41   H17   S    
C32   H4    S    
Cu1   O9    S    
C41   H18   S    
