data_mof_unit_58321.cif
_audit_creation_date              2012-12-11T15:54:39-0500
_audit_creation_method            fapswitch 2.2
_symmetry_space_group_name_H-M    P1
_symmetry_Int_Tables_number       1
_space_group_crystal_system       triclinic
_cell_length_a                    6.927682
_cell_length_b                    14.356052
_cell_length_c                    16.314524
_cell_angle_alpha                 90.175384
_cell_angle_beta                  89.46187
_cell_angle_gamma                 90.336309
_cell_volume                      1622.44048543

loop_
_atom_site_label
_atom_site_type_symbol
_atom_type_description
_atom_site_fract_x
_atom_site_fract_y
_atom_site_fract_z
_atom_type_partial_charge
O1    O     O_R   0.638180 0.333920 0.163320 -0.544163
O2    O     O_R   0.361820 0.666080 0.836680 -0.544178
O3    O     O_R   0.308470 0.344960 0.336080 -0.544899
O4    O     O_R   0.691530 0.655040 0.663920 -0.544912
O5    O     O_R   0.138140 0.166110 0.336680 -0.539152
O6    O     O_R   0.861860 0.833890 0.663320 -0.539108
C1    C     C_R   0.477235 0.367108 0.365132 0.675642
C2    C     C_R   0.522765 0.632891 0.634868 0.675563
O7    O     O_R   0.308460 0.344950 0.163930 -0.547203
O8    O     O_R   0.691540 0.655050 0.836070 -0.547222
O9    O     O_R   0.138140 0.166100 0.163310 -0.532530
O10   O     O_R   0.861860 0.833900 0.836690 -0.532397
C3    C     C_R   0.478083 0.367225 0.134980 0.677314
C4    C     C_R   0.521917 0.632775 0.865020 0.677276
O11   O     O_R   0.638180 0.333930 0.336700 -0.547789
O12   O     O_R   0.361820 0.666070 0.663300 -0.547795
O13   O     O_3   0.471670 0.191340 0.250000 -0.355747
O14   O     O_3   0.528330 0.808660 0.750000 -0.355677
V1    V     V_3+5 0.196830 0.260900 0.250000 1.427915
V2    V     V_3+5 0.803170 0.739100 0.750000 1.428056
O15   O     O_R   0.808420 0.155070 0.163920 -0.545570
O16   O     O_R   0.191580 0.844930 0.836080 -0.545589
C5    C     C_R   0.977255 0.134905 0.133401 0.715640
C6    C     C_R   0.022749 0.865069 0.866617 0.715803
O17   O     O_R   0.808420 0.155080 0.336070 -0.527493
O18   O     O_R   0.191580 0.844920 0.663930 -0.527518
C7    C     C_R   0.975518 0.131574 0.363892 0.728518
C8    C     C_R   0.024483 0.868424 0.636100 0.728453
V3    V     V_3+5 0.696830 0.239130 0.250000 1.440248
V4    V     V_3+5 0.303170 0.760870 0.750000 1.440338
O19   O     O_3   0.971850 0.308690 0.250010 -0.379654
O20   O     O_3   0.028150 0.691310 0.749990 -0.379685
H1    H     H_    0.358948 0.850760 0.284865 0.150657
H2    H     H_    0.641741 0.149445 0.715133 0.150594
C9    C     C_R   0.753891 0.156662 0.514461 -0.152033
C10   C     C_R   0.246484 0.843464 0.485547 -0.152019
C11   C     C_R   0.657681 0.175391 0.587426 -0.150888
C12   C     C_R   0.342939 0.824821 0.412586 -0.150754
C13   C     C_R   0.702768 0.126228 0.657239 -0.121989
C14   C     C_R   0.297717 0.873934 0.342759 -0.121832
C15   C     C_R   0.842533 0.056108 0.654386 0.001539
C16   C     C_R   0.157589 0.943931 0.345603 0.001309
C17   C     C_R   0.914176 0.023476 0.577076 0.016467
C18   C     C_R   0.085857 0.976548 0.422920 0.016452
C19   C     C_R   0.881204 0.079953 0.506700 0.061706
C20   C     C_R   0.118897 0.920092 0.493301 0.061623
C21   C     C_R   0.022338 0.939515 0.568820 -0.153388
C22   C     C_R   0.977657 0.060499 0.431176 -0.153202
H3    H     H_    0.723669 0.203668 0.465096 0.129643
H4    H     H_    0.276819 0.796484 0.534916 0.129697
H5    H     H_    0.557494 0.232902 0.591124 0.130113
H6    H     H_    0.443434 0.767403 0.408899 0.130048
C23   C     C_R   0.178840 0.978177 0.964680 -0.176719
C24   C     C_R   0.821171 0.021769 0.035362 -0.176625
H7    H     H_    0.319021 0.962935 0.938135 0.118420
H8    H     H_    0.680990 0.037012 0.061906 0.118354
C25   C     C_R   0.167106 0.044298 0.027803 -0.068536
C26   C     C_R   0.832905 0.955648 0.972239 -0.068463
H9    H     H_    0.298940 0.077461 0.048331 0.116801
H10   H     H_    0.701071 0.922486 0.951710 0.116859
C27   C     C_R   0.988200 0.066772 0.064297 -0.021411
C28   C     C_R   0.011809 0.933181 0.935738 -0.021543
C29   C     C_R   0.321260 0.478333 0.465332 -0.153789
C30   C     C_R   0.678740 0.521665 0.534669 -0.153823
H11   H     H_    0.181138 0.462875 0.439587 0.117032
H12   H     H_    0.818862 0.537123 0.560415 0.117036
C31   C     C_R   0.332748 0.542135 0.530290 -0.156338
C32   C     C_R   0.667251 0.457863 0.469711 -0.156389
H13   H     H_    0.200817 0.574021 0.552389 0.117395
H14   H     H_    0.799183 0.425977 0.447612 0.117399
C33   C     C_R   0.511630 0.564638 0.565970 -0.048900
C34   C     C_R   0.488370 0.435360 0.434031 -0.048907
C35   C     C_R   0.320853 0.474334 0.033162 -0.151017
C36   C     C_R   0.679147 0.525666 0.966838 -0.151027
H15   H     H_    0.180099 0.455640 0.057606 0.115733
H16   H     H_    0.819901 0.544360 0.942394 0.115726
C37   C     C_R   0.331300 0.537825 0.968060 -0.148803
C38   C     C_R   0.668700 0.462176 0.031941 -0.148810
H17   H     H_    0.198328 0.566154 0.944612 0.116071
H18   H     H_    0.801672 0.433847 0.055388 0.116079
C39   C     C_R   0.510600 0.564442 0.933870 -0.046122
C40   C     C_R   0.489399 0.435558 0.066130 -0.046131
C41   C     C_2   0.941812 0.037652 0.732317 0.701833
O21   O     O_2   0.850570 0.038729 0.796765 -0.573453
O22   O     O_R   0.142893 0.029612 0.732841 -0.661712
H19   H     H_    0.197197 0.026865 0.790176 0.290439
C42   C     C_2   0.058057 0.962241 0.267688 0.701951
O23   O     O_2   0.149015 0.960910 0.203194 -0.573521
O24   O     O_R   0.857005 0.970412 0.267258 -0.661762
H20   H     H_    0.802501 0.973069 0.209953 0.290441

loop_
_geom_bond_atom_site_label_1
_geom_bond_atom_site_label_2
_ccdc_geom_bond_type
C7    C22   S    
C26   C28   A    
V4    O20   S    
C42   O23   D    
C29   H11   S    
C8    C21   S    
O13   V3    S    
O4    C2    A    
V1    O19   S    
C13   C15   A    
O22   H19   S    
O9    V1    S    
C36   H16   S    
C30   C32   A    
C9    C11   A    
O3    C1    A    
C24   C26   A    
C11   H5    S    
C38   H18   S    
C25   H9    S    
C12   H6    S    
C26   H10   S    
C15   C41   S    
C30   C33   A    
O7    C3    A    
O5    C7    A    
O7    V1    S    
O6    C8    A    
O8    V2    S    
C9    H3    S    
O3    V1    S    
O14   V4    S    
C31   C33   A    
C14   C16   A    
C2    O12   A    
V3    O19   S    
C15   C17   A    
C16   C18   A    
C18   C20   A    
O11   V3    S    
C24   H8    S    
C23   H7    S    
O17   V3    S    
C29   C31   A    
H1    C14   S    
H2    C13   S    
O8    C4    A    
C1    C34   S    
C23   C25   A    
C1    O11   A    
O15   V3    S    
C3    C40   S    
C31   H13   S    
C30   H12   S    
C23   C28   A    
C38   C40   A    
C41   O21   D    
C37   C39   A    
C32   C34   A    
O10   V2    S    
O1    V3    S    
C37   H17   S    
C10   C20   A    
C17   C19   A    
C41   O22   S    
O18   V4    S    
O15   C5    A    
O16   C6    A    
O1    C3    A    
C35   H15   S    
C36   C39   A    
C9    C19   A    
C35   C40   A    
C10   H4    S    
V2    O20   S    
C19   C22   A    
C20   C21   A    
C2    C33   S    
C6    C28   S    
O16   V4    S    
C25   C27   A    
O5    V1    S    
C24   C27   A    
O17   C7    A    
O6    V2    S    
O10   C6    A    
O18   C8    A    
O2    V4    S    
C10   C12   A    
C11   C13   A    
C12   C14   A    
C17   C21   A    
O9    C5    A    
O13   V1    S    
O14   V2    S    
O2    C4    A    
O4    V2    S    
C5    C27   S    
C29   C34   A    
C32   H14   S    
C36   C38   A    
C42   O24   S    
C35   C37   A    
C16   C42   S    
C4    C39   S    
O24   H20   S    
O12   V4    S    
C18   C22   A    
