data_mof_unit_39845.cif
_audit_creation_date              2012-12-10T20:48:48-0500
_audit_creation_method            fapswitch 2.2
_symmetry_space_group_name_H-M    P1
_symmetry_Int_Tables_number       1
_space_group_crystal_system       triclinic
_cell_length_a                    15.745642
_cell_length_b                    8.923314
_cell_length_c                    8.108764
_cell_angle_alpha                 90.038463
_cell_angle_beta                  90.243113
_cell_angle_gamma                 90.012215
_cell_volume                      1139.29762395

loop_
_atom_site_label
_atom_site_type_symbol
_atom_type_description
_atom_site_fract_x
_atom_site_fract_y
_atom_site_fract_z
_atom_type_partial_charge
C1    C     C_R   0.500000 0.217996 0.499967 0.927635
C2    C     C_3   0.047172 0.536361 0.334475 -0.328407
C3    C     C_3   0.952594 0.382283 0.579330 -0.370002
C4    C     C_3   0.950110 0.554219 0.339755 -0.365997
C5    C     C_1   0.750894 0.510467 0.502952 -0.062340
C6    C     C_1   0.249158 0.511704 0.499944 -0.051549
C7    C     C_3   0.082954 0.538484 0.513113 -0.039632
C8    C     C_3   0.917213 0.535214 0.519124 -0.026201
C9    C     C_3   0.948994 0.668070 0.638504 0.526504
C10   C     C_3   0.052087 0.686886 0.607897 0.525095
C11   C     C_1   0.825850 0.522237 0.509825 0.114686
C12   C     C_1   0.174256 0.524845 0.504329 0.122503
C13   C     C_R   0.337757 0.500099 0.499712 0.898604
C14   C     C_R   0.662243 0.500082 0.500467 0.892473
C15   C     C_1   0.499991 0.934767 0.500063 -0.144576
C16   C     C_1   0.499996 0.065191 0.499960 -0.153515
C17   C     C_R   0.499990 0.781973 0.500039 0.955966
C18   C     C_3   0.049597 0.392703 0.596053 -0.402696
H1    H     H_    0.936567 0.292988 0.488086 0.211533
H2    H     H_    0.046660 0.970541 0.260014 0.404529
H3    H     H_    0.863768 0.792551 0.007890 0.395286
H4    H     H_    0.843931 0.983406 0.404628 0.381144
H5    H     H_    0.921355 0.467600 0.257641 0.225276
H6    H     H_    0.077780 0.292471 0.535269 0.231709
H7    H     H_    0.062780 0.427485 0.274324 0.213412
H8    H     H_    0.076325 0.622689 0.254304 0.289236
H9    H     H_    0.069094 0.384702 0.726613 0.274614
H10   H     H_    0.930678 0.662420 0.286632 0.303765
H11   H     H_    0.923536 0.344147 0.696406 0.266847
H12   H     H_    0.243980 0.791218 0.851522 0.381464
N1    N     N_1   0.500000 0.500030 0.073640 -0.014063
N2    N     N_1   0.500000 0.500030 0.926360 -0.013246
O1    O     O_R   0.500000 0.285340 0.636850 -0.615260
O2    O     O_2   0.127075 0.577341 0.898739 -0.310935
O3    O     O_3   0.214401 0.773425 0.745219 -0.511679
O4    O     O_2   0.078664 0.992437 0.583417 -0.225833
O5    O     O_2   0.172990 0.834496 0.425619 -0.283519
O6    O     O_3   0.024226 0.877630 0.310502 -0.512441
O7    O     O_2   0.829439 0.561434 0.856263 -0.315257
O8    O     O_2   0.973588 0.499170 0.929004 -0.299920
O9    O     O_3   0.923200 0.771097 0.976174 -0.433046
O10   O     O_2   0.798186 0.818088 0.673732 -0.285458
O11   O     O_2   0.925042 0.970043 0.691510 -0.220043
O12   O     O_R   0.500000 0.285340 0.363150 -0.616358
O13   O     O_3   0.871116 0.883304 0.403738 -0.547619
O14   O     O_R   0.377140 0.500000 0.636930 -0.602292
O15   O     O_R   0.377140 0.500000 0.363070 -0.614095
O16   O     O_R   0.622860 0.500000 0.636930 -0.587552
O17   O     O_R   0.622860 0.500000 0.363070 -0.617158
O18   O     O_R   0.500000 0.714650 0.636900 -0.609031
O19   O     O_R   0.500000 0.714650 0.363100 -0.613755
O20   O     O_2   0.077998 0.837960 0.900631 -0.174550
S1    S     S_3+6 0.116118 0.716260 0.796689 0.112400
S2    S     S_3+6 0.082630 0.851856 0.481684 0.083748
S3    S     S_3+6 0.919271 0.618877 0.853333 0.074413
S4    S     S_3+6 0.885557 0.839330 0.603168 0.075646
Zn1   Zn    Zn3+2 0.500000 0.499990 0.682780 1.047541
Zn2   Zn    Zn3+2 0.500000 0.499990 0.317220 1.031997

loop_
_geom_bond_atom_site_label_1
_geom_bond_atom_site_label_2
_ccdc_geom_bond_type
C17   O18   A    
C7    C10   S    
C2    C4    S    
C3    H1    S    
C9    S3    S    
O3    S1    S    
H2    O6    S    
C9    C10   S    
C1    O12   A    
N1    N2    T    
O6    S2    S    
C4    C8    S    
C7    C18   S    
C17   O19   A    
C1    O1    A    
O16   Zn1   S    
C2    H8    S    
C1    C16   S    
O15   Zn2   S    
C3    H11   S    
C5    C14   S    
C13   O14   A    
N2    Zn1   S    
O2    S1    D    
C8    C11   S    
H3    O9    S    
O5    S2    D    
H12   O3    S    
N1    Zn2   S    
C4    H10   S    
C5    C11   T    
C2    H7    S    
O14   Zn1   S    
C6    C12   T    
C7    C12   S    
C10   S2    S    
C18   H6    S    
C14   O17   A    
O4    S2    D    
C18   H9    S    
C9    S4    S    
C15   C16   T    
O11   S4    D    
H4    O13   S    
O20   S1    D    
C3    C18   S    
C15   C17   S    
C3    C8    S    
O19   Zn2   S    
C10   S1    S    
C14   O16   A    
O9    S3    S    
O1    Zn1   S    
O10   S4    D    
C4    H5    S    
O18   Zn1   S    
C13   O15   A    
O7    S3    D    
O17   Zn2   S    
C2    C7    S    
O13   S4    S    
O12   Zn2   S    
C8    C9    S    
C6    C13   S    
O8    S3    D    
