data_mof_unit_64927.cif
_audit_creation_date              2012-12-10T17:35:39-0500
_audit_creation_method            fapswitch 2.2
_symmetry_space_group_name_H-M    P1
_symmetry_Int_Tables_number       1
_space_group_crystal_system       triclinic
_cell_length_a                    36.924893
_cell_length_b                    30.091931
_cell_length_c                    21.485583
_cell_angle_alpha                 90.02965
_cell_angle_beta                  54.815351
_cell_angle_gamma                 89.997662
_cell_volume                      19511.8065752

loop_
_atom_site_label
_atom_site_type_symbol
_atom_type_description
_atom_site_fract_x
_atom_site_fract_y
_atom_site_fract_z
_atom_type_partial_charge
Br1   Br    Br    0.623479 0.422068 0.958981 -0.455616
Br2   Br    Br    0.074968 0.565151 0.614796 -0.550323
Br3   Br    Br    0.425865 0.066068 0.384345 -0.545644
Br4   Br    Br    0.574118 0.066064 0.615747 -0.545245
Br5   Br    Br    0.582141 0.375179 0.851847 -0.394543
Br6   Br    Br    0.417412 0.375398 0.147447 -0.400016
Br7   Br    Br    0.080569 0.874850 0.849448 -0.390567
Br8   Br    Br    0.919381 0.874994 0.150507 -0.390267
Br9   Br    Br    0.424810 0.296749 0.239006 -0.404054
Br10  Br    Br    0.574435 0.296392 0.760859 -0.402303
Br11  Br    Br    0.930423 0.796632 0.238253 -0.399817
Br12  Br    Br    0.376450 0.423275 0.038208 -0.453145
Br13  Br    Br    0.069483 0.796441 0.761719 -0.400989
Br14  Br    Br    0.123235 0.920210 0.955041 -0.454622
Br15  Br    Br    0.876837 0.920211 0.044751 -0.456655
Br16  Br    Br    0.875657 0.424935 0.717239 -0.477790
Br17  Br    Br    0.124212 0.425893 0.281389 -0.479035
Br18  Br    Br    0.375422 0.923496 0.715362 -0.475569
Br19  Br    Br    0.624638 0.923413 0.284595 -0.480197
Br20  Br    Br    0.924294 0.564353 0.386123 -0.548867
C1    C     C_R   0.913305 0.499908 0.589356 0.969012
C2    C     C_R   0.343182 0.467099 0.118369 0.178622
C3    C     C_R   0.970038 0.842519 0.068236 0.244149
C4    C     C_R   0.499930 0.365245 0.999926 -0.211460
C5    C     C_R   0.999975 0.865173 0.999980 -0.212603
C6    C     C_R   0.472309 0.296331 0.070230 -0.013185
C7    C     C_R   0.527277 0.296247 0.929583 -0.013963
C8    C     C_R   0.973823 0.796215 0.070571 -0.014749
C9    C     C_R   0.026092 0.796157 0.929396 -0.014553
C10   C     C_R   0.499807 0.273119 0.999926 -0.106470
C11   C     C_R   0.999955 0.773018 0.999985 -0.106048
C12   C     C_R   0.449286 0.271956 0.139630 0.332822
C13   C     C_R   0.156671 0.965907 0.878762 0.177167
C14   C     C_R   0.550222 0.271782 0.860215 0.332669
C15   C     C_R   0.952318 0.771839 0.139874 0.332350
C16   C     C_R   0.047590 0.771724 0.860097 0.332069
C17   C     C_R   0.952180 0.725698 0.138290 -0.252794
C18   C     C_R   0.047727 0.725584 0.861688 -0.253060
C19   C     C_R   0.449255 0.225812 0.137990 -0.252714
C20   C     C_R   0.550343 0.225646 0.861921 -0.252699
C21   C     C_R   0.975091 0.702951 0.069391 0.080221
C22   C     C_R   0.024821 0.702894 0.930592 0.080350
C23   C     C_R   0.473637 0.203053 0.069155 0.079801
C24   C     C_R   0.843360 0.965889 0.121170 0.177140
C25   C     C_R   0.526072 0.202976 0.930794 0.079838
C26   C     C_3   0.985772 0.545516 0.226155 -0.429610
C27   C     C_3   0.013688 0.545643 0.774478 -0.429949
C28   C     C_3   0.486930 0.045712 0.224937 -0.429829
C29   C     C_3   0.513067 0.045743 0.775129 -0.429982
C30   C     C_R   0.999954 0.726383 0.999989 0.102989
C31   C     C_R   0.499836 0.226479 0.999959 0.102943
C32   C     C_R   0.974746 0.656784 0.068946 -0.226614
C33   C     C_R   0.025182 0.656727 0.931046 -0.226634
C34   C     C_R   0.473380 0.156879 0.068696 -0.225838
C35   C     C_R   0.634520 0.498423 0.865960 -0.230996
C36   C     C_R   0.526455 0.156808 0.931314 -0.225931
C37   C     C_R   0.999972 0.634102 0.999999 -0.059361
C38   C     C_R   0.499957 0.134164 0.000019 -0.061652
C39   C     C_R   0.537494 0.656451 0.943070 -0.206877
C40   C     C_R   0.462270 0.656561 0.058124 -0.207539
C41   C     C_R   0.038472 0.156352 0.978692 -0.201860
C42   C     C_R   0.961537 0.156374 0.021405 -0.202046
C43   C     C_R   0.499787 0.634011 0.000346 -0.082811
C44   C     C_R   0.000004 0.133905 0.000043 -0.079881
C45   C     C_R   0.461736 0.702843 0.058616 0.028814
C46   C     C_R   0.365450 0.498110 0.134092 -0.235284
C47   C     C_R   0.538388 0.702707 0.943238 0.037149
C48   C     C_R   0.960845 0.202628 0.022725 0.025390
C49   C     C_R   0.039167 0.202606 0.977371 0.025425
C50   C     C_R   0.500114 0.726014 0.000921 -0.069313
C51   C     C_R   0.000008 0.225865 0.000040 -0.068002
C52   C     C_R   0.423822 0.726389 0.115610 0.468125
C53   C     C_R   0.576880 0.725982 0.887639 0.469369
C54   C     C_R   0.921806 0.226042 0.046728 0.467515
C55   C     C_R   0.078205 0.225998 0.953372 0.467555
C56   C     C_R   0.922311 0.272458 0.045787 -0.318929
C57   C     C_R   0.134450 0.998827 0.866359 -0.230603
C58   C     C_R   0.077708 0.272417 0.954272 -0.319043
C59   C     C_R   0.423894 0.772797 0.113558 -0.321520
C60   C     C_R   0.576379 0.772482 0.887675 -0.334537
C61   C     C_R   0.960969 0.295592 0.023106 0.066684
C62   C     C_R   0.039057 0.295573 0.976915 0.066760
C63   C     C_R   0.461820 0.795812 0.057181 0.068265
C64   C     C_R   0.538470 0.795666 0.943918 0.074107
C65   C     C_3   0.045530 0.486071 0.241651 0.307871
C66   C     C_3   0.954602 0.485567 0.758205 0.307353
C67   C     C_3   0.545246 0.984825 0.241915 0.306762
C68   C     C_R   0.865552 0.998819 0.133636 -0.230387
C69   C     C_3   0.454758 0.984898 0.758059 0.306838
C70   C     C_R   0.000011 0.272320 0.000020 0.061842
C71   C     C_R   0.500187 0.772468 0.000818 0.060656
C72   C     C_R   0.961229 0.341784 0.023077 -0.220607
C73   C     C_R   0.038804 0.341767 0.976900 -0.220740
C74   C     C_R   0.461936 0.841977 0.056144 -0.220526
C75   C     C_R   0.538196 0.841857 0.944125 -0.221000
C76   C     C_R   0.000017 0.364823 0.999980 -0.079052
C77   C     C_R   0.500044 0.864926 0.000014 -0.077437
C78   C     C_3   0.965313 0.464776 0.320035 -0.450659
C79   C     C_R   0.657656 0.529759 0.807065 0.338712
C80   C     C_3   0.035060 0.465151 0.679502 -0.451282
C81   C     C_3   0.464536 0.965537 0.320903 -0.451900
C82   C     C_3   0.535473 0.965559 0.679040 -0.450213
C83   C     C_3   0.998474 0.500259 0.312131 -0.047180
C84   C     C_3   0.001492 0.500283 0.687902 -0.046698
C85   C     C_3   0.498551 0.000217 0.312054 -0.045797
C86   C     C_3   0.501450 0.000259 0.687943 -0.047849
C87   C     C_3   0.000344 0.499009 0.189076 0.054464
C88   C     C_3   0.999650 0.498977 0.810928 0.054867
C89   C     C_3   0.500358 0.998855 0.189060 0.056714
C90   C     C_R   0.342246 0.528303 0.194930 0.356458
C91   C     C_3   0.499643 0.998894 0.810935 0.053866
C92   C     C_3   0.047507 0.488772 0.168192 -0.463162
C93   C     C_3   0.952598 0.488264 0.831696 -0.463559
C94   C     C_3   0.547276 0.987506 0.168395 -0.463567
C95   C     C_3   0.452726 0.987583 0.831581 -0.462199
C96   C     C_3   0.632591 0.548951 0.735258 0.117676
C97   C     C_3   0.601231 0.580095 0.732169 -0.765937
C98   C     C_3   0.366584 0.541411 0.269729 0.119420
C99   C     C_3   0.402420 0.565728 0.270609 -0.793690
C100  C     C_3   0.132690 0.054310 0.739684 0.116970
C101  C     C_R   0.157558 0.031654 0.810241 0.339710
C102  C     C_3   0.101772 0.086901 0.738067 -0.790213
C103  C     C_3   0.867271 0.054327 0.260411 0.117066
C104  C     C_3   0.898188 0.086908 0.262048 -0.790170
C105  C     C_3   0.381758 0.704073 0.239053 0.088020
C106  C     C_3   0.339050 0.680719 0.299607 -0.787666
C107  C     C_3   0.647878 0.707976 0.843358 0.090124
C108  C     C_3   0.683128 0.672698 0.797882 -0.782015
C109  C     C_3   0.855770 0.200254 0.147272 0.078592
C110  C     C_3   0.815783 0.171915 0.170181 -0.749081
C111  C     C_3   0.144285 0.200165 0.852889 0.078504
C112  C     C_R   0.086688 0.499892 0.410723 0.968607
C113  C     C_R   0.842415 0.031647 0.189823 0.339637
C114  C     C_3   0.184288 0.171852 0.830041 -0.748896
C115  C     C_3   0.087861 0.550673 0.227433 0.102335
C116  C     C_3   0.136612 0.562289 0.186639 -0.758711
C117  C     C_3   0.911587 0.549694 0.773038 0.104898
C118  C     C_3   0.862732 0.560872 0.813860 -0.767009
C119  C     C_3   0.589039 0.048339 0.226494 0.102344
C120  C     C_3   0.638026 0.058921 0.185466 -0.762818
C121  C     C_3   0.410957 0.048440 0.773564 0.102146
C122  C     C_3   0.361970 0.059057 0.814593 -0.761569
C123  C     C_R   0.703907 0.531465 0.765144 0.015536
C124  C     C_R   0.296044 0.530328 0.236577 0.011762
C125  C     C_R   0.203791 0.033374 0.768818 0.017425
C126  C     C_R   0.796180 0.033356 0.231263 0.017383
C127  C     C_R   0.726711 0.499217 0.778214 -0.023333
C128  C     C_R   0.273249 0.499103 0.221754 -0.026754
C129  C     C_R   0.226595 0.999868 0.779559 -0.023613
C130  C     C_R   0.773406 0.999833 0.220475 -0.023597
C131  C     C_R   0.703193 0.466516 0.835337 0.048053
C132  C     C_R   0.413275 0.999921 0.589454 0.967766
C133  C     C_R   0.296770 0.467203 0.163085 0.049679
C134  C     C_R   0.203061 0.966020 0.834383 0.048219
C135  C     C_R   0.796969 0.965985 0.165579 0.048950
C136  C     C_R   0.727777 0.565032 0.710887 -0.196716
C137  C     C_R   0.272225 0.563142 0.292448 -0.168862
C138  C     C_R   0.227645 0.068110 0.717251 -0.197440
C139  C     C_R   0.772297 0.068098 0.282892 -0.197261
C140  C     C_R   0.773673 0.565587 0.667450 -0.190241
C141  C     C_R   0.226324 0.563888 0.335792 -0.190920
C142  C     C_R   0.273570 0.068387 0.673436 -0.192906
C143  C     C_R   0.586725 0.999903 0.410560 0.968200
C144  C     C_R   0.726371 0.068363 0.326726 -0.192698
C145  C     C_R   0.796498 0.532860 0.677885 0.121791
C146  C     C_R   0.203476 0.532043 0.323730 0.119754
C147  C     C_R   0.296401 0.034357 0.681226 0.123113
C148  C     C_R   0.703570 0.034318 0.318888 0.123024
C149  C     C_R   0.998486 0.500057 0.380222 0.921761
C150  C     C_R   0.001481 0.500073 0.619812 0.920126
C151  C     C_R   0.498561 0.000054 0.380143 0.919554
C152  C     C_R   0.501439 0.000072 0.619855 0.919790
C153  C     C_R   0.773265 0.499730 0.733862 0.063800
C154  C     C_3   0.967148 0.463601 0.246639 -0.397681
C155  C     C_R   0.226696 0.499671 0.266207 0.064736
C156  C     C_R   0.273152 0.000267 0.735190 0.064120
C157  C     C_R   0.726848 0.000220 0.264864 0.064085
C158  C     C_R   0.796536 0.467124 0.745257 0.039243
C159  C     C_R   0.203414 0.467794 0.253513 0.040389
C160  C     C_R   0.296403 0.966588 0.744548 0.038498
C161  C     C_R   0.703625 0.966525 0.255459 0.039536
C162  C     C_R   0.772627 0.435028 0.802239 -0.169827
C163  C     C_R   0.227317 0.436522 0.194939 -0.169501
C164  C     C_R   0.272463 0.933493 0.799551 -0.169292
C165  C     C_3   0.033238 0.463925 0.752880 -0.397373
C166  C     C_R   0.727594 0.933424 0.200396 -0.170148
C167  C     C_R   0.726737 0.434801 0.846650 -0.137527
C168  C     C_R   0.273214 0.436333 0.150313 -0.136582
C169  C     C_R   0.226572 0.933254 0.843789 -0.136205
C170  C     C_R   0.773486 0.933199 0.156133 -0.137021
C171  C     C_R   0.842342 0.532617 0.632306 -0.298826
C172  C     C_R   0.157629 0.531909 0.369195 -0.296764
C173  C     C_R   0.342253 0.033775 0.634999 -0.299628
C174  C     C_R   0.657721 0.033733 0.365116 -0.299436
C175  C     C_R   0.865508 0.499706 0.641379 -0.151686
C176  C     C_3   0.466327 0.964266 0.247547 -0.399949
C177  C     C_R   0.134468 0.499656 0.358830 -0.151597
C178  C     C_R   0.365432 0.999819 0.641925 -0.152885
C179  C     C_R   0.634569 0.999770 0.358129 -0.152391
C180  C     C_R   0.843060 0.467289 0.699053 0.228581
C181  C     C_R   0.156890 0.467821 0.300075 0.228409
C182  C     C_R   0.342937 0.966701 0.698330 0.228379
C183  C     C_R   0.657091 0.966636 0.301683 0.228851
C184  C     C_R   0.999992 0.586507 0.000004 0.881014
C185  C     C_R   0.499990 0.086528 0.000030 0.881589
C186  C     C_R   0.000170 0.498874 0.121102 0.872402
C187  C     C_3   0.533678 0.964283 0.752395 -0.397905
C188  C     C_R   0.999831 0.498831 0.878896 0.872248
C189  C     C_R   0.500170 0.998730 0.121097 0.871313
C190  C     C_R   0.499831 0.998754 0.878898 0.872790
C191  C     C_R   0.000007 0.413049 0.999990 0.872534
C192  C     C_R   0.500012 0.913084 0.999924 0.871889
C193  C     C_3   0.983653 0.546470 0.299752 0.130095
C194  C     C_3   0.015798 0.546642 0.700892 0.130799
C195  C     C_3   0.484822 0.046758 0.298512 0.131124
C196  C     C_3   0.515169 0.046791 0.701555 0.131366
C197  C     C_R   0.500008 0.413241 0.999963 1.015293
C198  C     C_R   0.656791 0.466503 0.880101 0.178302
C199  C     C_R   0.999996 0.913213 0.999990 1.016056
C200  C     C_R   0.586657 0.499585 0.913431 1.011521
C201  C     C_R   0.413333 0.499395 0.086586 1.013150
C202  C     C_R   0.086632 0.999740 0.913496 1.012348
C203  C     C_R   0.913369 0.999738 0.086502 1.012490
C204  C     C_R   0.499811 0.586497 0.000212 0.888399
C205  C     C_R   0.000005 0.086461 0.000009 0.888870
C206  C     C_R   0.530870 0.342563 0.932285 0.242078
C207  C     C_R   0.468820 0.342654 0.067471 0.241124
C208  C     C_R   0.029897 0.842460 0.931723 0.244165
H1    H     H_    0.005103 0.573679 0.295408 0.124997
H2    H     H_    0.952449 0.449357 0.749832 0.170661
H3    H     H_    0.932046 0.084151 0.208644 0.271886
H4    H     H_    0.380561 0.738524 0.259206 0.141921
H5    H     H_    0.410075 0.685844 0.232398 0.135634
H6    H     H_    0.338894 0.646478 0.280698 0.271983
H7    H     H_    0.336348 0.679085 0.353772 0.205660
H8    H     H_    0.310094 0.699139 0.309504 0.263267
H9    H     H_    0.634919 0.703680 0.904497 0.135346
H10   H     H_    0.663641 0.741241 0.823460 0.151787
H11   H     H_    0.696792 0.675550 0.736522 0.258544
H12   H     H_    0.710456 0.676980 0.804900 0.208302
H13   H     H_    0.546922 0.948586 0.250699 0.169003
H14   H     H_    0.668401 0.639197 0.818731 0.276688
H15   H     H_    0.843778 0.233695 0.173693 0.145184
H16   H     H_    0.873147 0.184064 0.169888 0.148552
H17   H     H_    0.826639 0.137797 0.146816 0.268734
H18   H     H_    0.792939 0.170024 0.233215 0.198024
H19   H     H_    0.797816 0.186830 0.147997 0.259367
H20   H     H_    0.156256 0.233599 0.826514 0.145044
H21   H     H_    0.126963 0.183942 0.830187 0.148609
H22   H     H_    0.173461 0.137736 0.853343 0.268739
H23   H     H_    0.207181 0.169950 0.767011 0.197932
H24   H     H_    0.453088 0.948659 0.749219 0.170592
H25   H     H_    0.202191 0.186796 0.852336 0.259440
H26   H     H_    0.069784 0.566420 0.284486 0.167831
H27   H     H_    0.076435 0.565095 0.194089 0.120442
H28   H     H_    0.156174 0.547040 0.129026 0.258926
H29   H     H_    0.140948 0.598916 0.180828 0.207195
H30   H     H_    0.149146 0.549745 0.219550 0.260653
H31   H     H_    0.929549 0.565536 0.716100 0.166702
H32   H     H_    0.922829 0.564276 0.806574 0.120238
H33   H     H_    0.843290 0.545501 0.871343 0.259187
H34   H     H_    0.858047 0.597462 0.819976 0.204867
H35   H     H_    0.059375 0.456399 0.137534 0.170236
H36   H     H_    0.850343 0.548171 0.780807 0.260583
H37   H     H_    0.571279 0.064354 0.283317 0.166168
H38   H     H_    0.577936 0.063102 0.192883 0.120749
H39   H     H_    0.657251 0.043351 0.128104 0.259472
H40   H     H_    0.643117 0.095453 0.179051 0.205546
H41   H     H_    0.650333 0.046041 0.218522 0.260592
H42   H     H_    0.428721 0.064435 0.716760 0.166048
H43   H     H_    0.422052 0.063199 0.807204 0.120816
H44   H     H_    0.342742 0.043507 0.871936 0.259950
H45   H     H_    0.356876 0.095593 0.821052 0.205427
H46   H     H_    0.941074 0.455785 0.861994 0.169825
H47   H     H_    0.349670 0.046180 0.781512 0.260487
H48   H     H_    0.558391 0.954884 0.138427 0.169300
H49   H     H_    0.441610 0.954970 0.861502 0.172026
H50   H     H_    0.711240 0.590998 0.701361 0.181946
H51   H     H_    0.288828 0.588399 0.303107 0.173591
H52   H     H_    0.211034 0.095135 0.710069 0.177755
H53   H     H_    0.994051 0.573632 0.705570 0.124481
H54   H     H_    0.788883 0.095137 0.290108 0.177733
H55   H     H_    0.791357 0.591464 0.625168 0.165303
H56   H     H_    0.208653 0.589180 0.379302 0.166281
H57   H     H_    0.291269 0.095089 0.632948 0.162586
H58   H     H_    0.708649 0.095072 0.367260 0.162623
H59   H     H_    0.860179 0.557547 0.588106 0.204079
H60   H     H_    0.139775 0.556318 0.414387 0.204247
H61   H     H_    0.360062 0.059380 0.592087 0.203139
H62   H     H_    0.639891 0.059348 0.408065 0.203139
H63   H     H_    0.788807 0.409481 0.813247 0.201632
H64   H     H_    0.506895 0.073463 0.293551 0.123879
H65   H     H_    0.211127 0.411631 0.182765 0.201580
H66   H     H_    0.288623 0.907076 0.808915 0.201831
H67   H     H_    0.711456 0.906995 0.190998 0.200711
H68   H     H_    0.710252 0.409236 0.889582 0.201269
H69   H     H_    0.289695 0.411450 0.106081 0.200867
H70   H     H_    0.210053 0.906819 0.884992 0.201674
H71   H     H_    0.790028 0.906759 0.114881 0.200861
H72   H     H_    0.935354 0.707404 0.191443 0.185613
H73   H     H_    0.064553 0.707247 0.808539 0.185542
H74   H     H_    0.431294 0.207524 0.191189 0.185656
H75   H     H_    0.493090 0.073509 0.706561 0.123944
H76   H     H_    0.568282 0.207289 0.808749 0.185643
H77   H     H_    0.955759 0.638387 0.122043 0.149911
H78   H     H_    0.044178 0.638287 0.877953 0.149846
H79   H     H_    0.453372 0.138509 0.121664 0.151638
H80   H     H_    0.546490 0.138383 0.878365 0.151643
H81   H     H_    0.566160 0.637574 0.899476 0.204892
H82   H     H_    0.433582 0.637791 0.101825 0.201449
H83   H     H_    0.067805 0.137499 0.962101 0.189994
H84   H     H_    0.932204 0.137539 0.037987 0.189933
H85   H     H_    0.892401 0.290309 0.062903 0.169288
H86   H     H_    0.977420 0.429930 0.220525 0.165799
H87   H     H_    0.107616 0.290253 0.937160 0.169267
H88   H     H_    0.394199 0.790755 0.156200 0.168138
H89   H     H_    0.605592 0.790398 0.843576 0.162008
H90   H     H_    0.931318 0.359776 0.040504 0.163084
H91   H     H_    0.068714 0.359747 0.959464 0.163055
H92   H     H_    0.432537 0.860034 0.099581 0.161769
H93   H     H_    0.567532 0.859833 0.900395 0.161263
H94   H     H_    0.952974 0.554184 0.238322 0.225120
H95   H     H_    0.046381 0.554650 0.762449 0.224609
H96   H     H_    0.454364 0.055167 0.236827 0.224277
H97   H     H_    0.023343 0.430143 0.778543 0.165752
H98   H     H_    0.545634 0.055172 0.763248 0.224327
H99   H     H_    0.009664 0.571078 0.185852 0.137636
H100  H     H_    0.989504 0.570943 0.815117 0.137726
H101  H     H_    0.511446 0.070669 0.184007 0.138399
H102  H     H_    0.488550 0.070718 0.816101 0.138554
H103  H     H_    0.071651 0.514080 0.128220 0.200936
H104  H     H_    0.928187 0.513347 0.871933 0.200987
H105  H     H_    0.571999 0.012270 0.127914 0.201433
H106  H     H_    0.428003 0.012368 0.872097 0.201504
H107  H     H_    0.973577 0.431123 0.329959 0.189566
H108  H     H_    0.475782 0.930347 0.222282 0.162545
H109  H     H_    0.027187 0.431419 0.669108 0.189324
H110  H     H_    0.471984 0.931712 0.331704 0.187185
H111  H     H_    0.528037 0.931736 0.668179 0.189588
H112  H     H_    0.930967 0.471848 0.369868 0.230339
H113  H     H_    0.069321 0.472597 0.629765 0.229875
H114  H     H_    0.430376 0.973454 0.370562 0.229823
H115  H     H_    0.569632 0.973456 0.629399 0.230151
H116  H     H_    0.933278 0.469900 0.261673 0.218703
H117  H     H_    0.067040 0.470565 0.737915 0.218565
H118  H     H_    0.432606 0.971362 0.262463 0.218162
H119  H     H_    0.524225 0.930369 0.777602 0.166258
H120  H     H_    0.567398 0.971353 0.737494 0.218393
H121  H     H_    0.620263 0.514315 0.741596 0.175537
H122  H     H_    0.665743 0.551298 0.680165 0.138867
H123  H     H_    0.613159 0.614897 0.724434 0.268587
H124  H     H_    0.599644 0.570855 0.683749 0.205486
H125  H     H_    0.567480 0.577751 0.785931 0.266199
H126  H     H_    0.374258 0.505153 0.263833 0.173844
H127  H     H_    0.334315 0.547047 0.325312 0.136080
H128  H     H_    0.395243 0.601862 0.279134 0.242378
H129  H     H_    0.403684 0.552900 0.317772 0.208908
H130  H     H_    0.048112 0.449891 0.249567 0.171031
H131  H     H_    0.435206 0.560462 0.215883 0.272911
H132  H     H_    0.120101 0.020044 0.743741 0.176085
H133  H     H_    0.165983 0.057173 0.684971 0.138886
H134  H     H_    0.114003 0.121402 0.732489 0.244851
H135  H     H_    0.100332 0.079422 0.688920 0.210794
H136  H     H_    0.067910 0.084168 0.791459 0.271911
H137  H     H_    0.879871 0.020056 0.256307 0.176153
H138  H     H_    0.833981 0.057216 0.315136 0.138966
H139  H     H_    0.885946 0.121415 0.267674 0.244899
H140  H     H_    0.899639 0.079442 0.311176 0.210778
O1    O     O_R   0.933920 0.537280 0.566050 -0.626537
O2    O     O_R   0.433920 0.499950 0.013850 -0.597558
O3    O     O_R   0.066080 0.999950 0.986150 -0.600248
O4    O     O_R   0.933920 0.999950 0.013850 -0.600383
O5    O     O_R   0.499950 0.566010 0.947790 -0.626998
O6    O     O_R   0.500050 0.566010 0.052210 -0.635792
O7    O     O_R   0.999950 0.066010 0.947790 -0.630987
O8    O     O_R   0.000050 0.066010 0.052210 -0.630990
O9    O     O_R   0.933880 0.462680 0.566080 -0.582754
O10   O     O_R   0.066120 0.462680 0.433920 -0.583473
O11   O     O_R   0.433880 0.962680 0.566080 -0.582535
O12   O     O_R   0.066080 0.537280 0.433950 -0.625055
O13   O     O_R   0.566120 0.962680 0.433920 -0.581922
O14   O     O_R   0.999990 0.537270 0.407410 -0.623019
O15   O     O_R   0.000010 0.537270 0.592590 -0.622687
O16   O     O_R   0.499990 0.037270 0.407410 -0.622018
O17   O     O_R   0.500010 0.037270 0.592590 -0.622021
O18   O     O_R   0.999940 0.462670 0.407440 -0.620448
O19   O     O_R   0.000060 0.462670 0.592560 -0.620533
O20   O     O_R   0.499940 0.962670 0.407440 -0.620946
O21   O     O_R   0.500060 0.962670 0.592560 -0.620069
O22   O     O_R   0.962660 0.566020 0.037320 -0.615590
O23   O     O_R   0.433920 0.037280 0.566050 -0.626860
O24   O     O_R   0.037340 0.566020 0.962680 -0.615439
O25   O     O_R   0.462660 0.066020 0.037320 -0.615723
O26   O     O_R   0.537340 0.066020 0.962680 -0.615803
O27   O     O_R   0.962680 0.499950 0.129900 -0.626901
O28   O     O_R   0.037320 0.499950 0.870100 -0.627105
O29   O     O_R   0.462680 0.999950 0.129900 -0.628817
O30   O     O_R   0.537320 0.999950 0.870100 -0.628668
O31   O     O_R   0.037280 0.499990 0.055330 -0.627094
O32   O     O_R   0.962720 0.499990 0.944670 -0.627192
O33   O     O_R   0.537280 0.999990 0.055330 -0.625749
O34   O     O_R   0.566080 0.037280 0.433950 -0.627045
O35   O     O_R   0.462720 0.999990 0.944670 -0.624865
O36   O     O_R   0.962680 0.433880 0.037290 -0.626699
O37   O     O_R   0.037320 0.433880 0.962710 -0.626750
O38   O     O_R   0.462680 0.933880 0.037290 -0.625238
O39   O     O_R   0.537320 0.933880 0.962710 -0.627239
O40   O     O_R   0.499930 0.433870 0.947760 -0.580272
O41   O     O_R   0.500070 0.433870 0.052240 -0.580754
O42   O     O_R   0.999930 0.933870 0.947760 -0.579332
O43   O     O_R   0.000070 0.933870 0.052240 -0.579221
O44   O     O_3   0.634431 0.561637 0.796790 -0.628594
O45   O     O_R   0.566010 0.499970 0.881660 -0.613867
O46   O     O_3   0.365369 0.557985 0.209279 -0.620142
O47   O     O_3   0.134301 0.064660 0.802277 -0.628533
O48   O     O_3   0.865643 0.064663 0.197846 -0.628604
O49   O     O_3   0.385467 0.704144 0.169900 -0.595342
O50   O     O_3   0.614226 0.703015 0.831485 -0.607767
O51   O     O_3   0.883743 0.203651 0.067130 -0.603880
O52   O     O_3   0.116256 0.203587 0.933032 -0.603778
O53   O     O_3   0.083189 0.504052 0.235579 -0.584349
O54   O     O_3   0.916719 0.503112 0.764535 -0.584150
O55   O     O_3   0.583370 0.001819 0.235362 -0.584278
O56   O     O_R   0.433990 0.499970 0.118340 -0.611338
O57   O     O_3   0.416629 0.001915 0.764641 -0.583917
O58   O     O_R   0.066010 0.999970 0.881660 -0.615074
O59   O     O_R   0.933990 0.999970 0.118340 -0.615021
O60   O     O_R   0.566080 0.499950 0.986150 -0.600549
Zn1   Zn    Zn3+2 0.000000 0.549780 0.500000 1.012893
Zn2   Zn    Zn3+2 0.500070 0.499950 0.069750 1.034545
Zn3   Zn    Zn3+2 0.999930 0.999950 0.930250 1.046203
Zn4   Zn    Zn3+2 0.000070 0.999950 0.069750 1.046606
Zn5   Zn    Zn3+2 0.500000 0.049780 0.500000 1.012174
Zn6   Zn    Zn3+2 0.000000 0.450160 0.500000 1.054812
Zn7   Zn    Zn3+2 0.500000 0.950160 0.500000 1.054694
Zn8   Zn    Zn3+2 0.950160 0.499940 0.049810 0.965233
Zn9   Zn    Zn3+2 0.049840 0.499940 0.950190 0.965180
Zn10  Zn    Zn3+2 0.450160 0.999940 0.049810 0.967483
Zn11  Zn    Zn3+2 0.549840 0.999940 0.950190 0.964812
Zn12  Zn    Zn3+2 0.499930 0.499950 0.930250 1.046371

loop_
_geom_bond_atom_site_label_1
_geom_bond_atom_site_label_2
_ccdc_geom_bond_type
C10   C31   A    
C85   C195  S    
C77   C192  S    
C108  H14   S    
C87   C92   S    
C82   H115  S    
C202  O3    A    
C105  H4    S    
Br14  C13   S    
C189  O29   A    
O5    Zn12  S    
C75   H93   S    
C196  H75   S    
O42   Zn3   S    
O31   Zn9   S    
C79   C123  A    
Br15  C24   S    
C52   C59   A    
C40   H82   S    
C41   H83   S    
Br3   C195  S    
C80   C84   S    
Br8   C3    S    
C89   C176  S    
C184  O22   A    
C97   H124  S    
C42   C44   A    
O18   Zn6   S    
C165  H97   S    
C152  O17   A    
C126  C130  A    
C78   H112  S    
O8    Zn4   S    
C105  O49   S    
C56   H85   S    
C25   C36   A    
O60   Zn2   S    
C200  O45   A    
C143  O34   A    
C69   C86   S    
C64   C71   A    
O40   Zn12  S    
C197  O41   A    
C65   C83   S    
C29   C91   S    
C111  C114  S    
O36   Zn8   S    
C76   C191  S    
O37   Zn9   S    
C203  O59   A    
C89   C189  S    
O19   Zn6   S    
C35   C198  A    
C189  O33   A    
C78   H107  S    
C144  C148  A    
C112  O12   A    
C173  H61   S    
C39   H81   S    
O12   Zn1   S    
C74   C77   A    
O34   Zn5   S    
C88   C93   S    
C166  C170  A    
C119  O55   S    
C205  O7    A    
O3    Zn4   S    
C58   C62   A    
C23   C34   A    
C187  H119  S    
C118  H33   S    
C6    C207  A    
C119  C120  S    
Br6   C207  S    
Br19  C183  S    
C120  H39   S    
C121  H42   S    
C154  H86   S    
Br17  C181  S    
O26   Zn11  S    
C158  C162  A    
O14   Zn1   S    
C61   C70   A    
O35   Zn10  S    
C134  C169  A    
C72   H90   S    
C40   C45   A    
Br2   C194  S    
C73   H91   S    
C74   H92   S    
C80   H113  S    
C59   H88   S    
C114  H22   S    
C11   C30   A    
C191  O36   A    
C204  O5    A    
C193  H1    S    
C109  O51   S    
O1    Zn1   S    
C85   C151  S    
C86   C152  S    
C192  O38   A    
C68   C113  A    
C100  O47   S    
C155  C159  A    
C110  H19   S    
C75   C77   A    
O9    Zn6   S    
C86   C196  S    
C81   H114  S    
C39   C43   A    
C42   C48   A    
C203  O4    A    
C190  O30   A    
Br11  C15   S    
C184  O24   A    
C163  C168  A    
C37   C184  S    
C151  O20   A    
C149  O18   A    
C67   H13   S    
C111  H20   S    
C107  H10   S    
C122  H47   S    
C78   C83   S    
C55   O52   S    
O15   Zn1   S    
C69   C95   S    
C6    C12   A    
C53   O50   S    
Br4   C196  S    
C69   H24   S    
C98   H127  S    
C50   C71   A    
C94   H105  S    
C99   H131  S    
C88   C188  S    
C65   C92   S    
C66   C84   S    
C115  O53   S    
C141  H56   S    
C103  C104  S    
C28   H96   S    
C108  H11   S    
C26   H99   S    
C54   C56   A    
C29   H98   S    
C22   C33   A    
C42   H84   S    
C45   C50   A    
C27   C194  S    
Br12  C2    S    
C72   C76   A    
C139  H54   S    
C120  H41   S    
C199  O42   A    
O29   Zn10  S    
C117  O54   S    
O27   Zn8   S    
C39   C47   A    
C61   C72   A    
C28   H101  S    
C8    C15   A    
O24   Zn9   S    
C178  C182  A    
Br1   C198  S    
C162  H63   S    
C106  H8    S    
C60   H89   S    
Br9   C12   S    
C81   C176  S    
O7    Zn3   S    
C195  H64   S    
C119  H37   S    
C28   C195  S    
C143  C179  S    
C147  C173  A    
C97   H125  S    
C161  C183  A    
C132  O23   A    
C44   C205  S    
C110  H17   S    
C173  C178  A    
C117  H31   S    
C27   H100  S    
C68   C203  S    
C159  C181  A    
C136  C140  A    
C34   H79   S    
O23   Zn5   S    
C152  O21   A    
C29   H102  S    
O21   Zn7   S    
C169  H70   S    
C3    C8    A    
C202  O58   A    
C64   C75   A    
C127  C131  A    
C136  H50   S    
C137  H51   S    
C138  H52   S    
C67   C85   S    
C26   C193  S    
C102  H135  S    
C186  O31   A    
C122  H45   S    
C89   C94   S    
C22   C30   A    
C130  C157  A    
C194  H53   S    
C118  H36   S    
C6    C10   A    
C130  C135  A    
C54   O51   S    
C103  O48   S    
C99   H129  S    
C91   C187  S    
C174  H62   S    
C84   C150  S    
C109  C110  S    
C132  O11   A    
C114  H25   S    
C191  O37   A    
C161  C166  A    
C87   C154  S    
C45   C52   A    
O28   Zn9   S    
C144  H58   S    
C47   C50   A    
C115  H27   S    
C100  H132  S    
C80   C165  S    
C91   C190  S    
C96   H122  S    
C13   C57   A    
C51   C70   A    
C153  C158  A    
C157  C161  A    
C63   C71   A    
C27   H95   S    
C118  H34   S    
C36   C38   A    
C115  H26   S    
C17   C21   A    
C106  H6    S    
C171  C175  A    
C82   H111  S    
C97   H123  S    
C57   C101  A    
O20   Zn7   S    
C160  C164  A    
C57   C202  S    
C156  C160  A    
C27   C88   S    
C35   C79   A    
C96   H121  S    
C83   C149  S    
C32   H77   S    
C9    C208  A    
C124  C137  A    
C197  O40   A    
C111  H21   S    
C188  O32   A    
C2    C133  A    
O43   Zn4   S    
C81   H110  S    
C60   C64   A    
C103  H138  S    
C172  H60   S    
C121  O57   S    
C94   H48   S    
C115  C116  S    
O56   Zn2   S    
C170  H71   S    
C146  C155  A    
C66   C93   S    
C111  O52   S    
C99   H128  S    
C160  C182  A    
C98   O46   S    
C148  C157  A    
C185  O26   A    
C12   C19   A    
C104  H139  S    
C92   H103  S    
O32   Zn8   S    
O13   Zn7   S    
C120  H40   S    
C199  O43   A    
C47   C53   A    
C171  H59   S    
C100  H133  S    
C4    C207  A    
C113  O48   S    
C65   O53   S    
C4    C197  S    
C62   C73   A    
C179  C183  A    
C165  H117  S    
C114  H23   S    
C46   C201  S    
C204  O6    A    
C1    O9    A    
C20   C25   A    
C66   H2    S    
C88   C165  S    
O11   Zn7   S    
C101  O47   S    
C93   H104  S    
C164  H66   S    
C33   C37   A    
C131  C167  A    
C63   C74   A    
C56   C61   A    
C41   C44   A    
C129  C134  A    
C135  C170  A    
C9    C16   A    
Br18  C182  S    
C172  C177  A    
C1    C175  S    
C90   C124  A    
C200  O60   A    
C109  H16   S    
C107  H9    S    
C154  H116  S    
C105  C106  S    
C5    C199  S    
C163  H65   S    
C107  C108  S    
C137  C141  A    
C21   C30   A    
C143  O13   A    
C158  C180  A    
C18   H73   S    
C58   H87   S    
O4    Zn3   S    
C8    C11   A    
C67   O55   S    
C52   O49   S    
C127  C153  A    
O39   Zn11  S    
O25   Zn10  S    
C133  C168  A    
C108  H12   S    
O59   Zn4   S    
O33   Zn11  S    
C38   C185  S    
C201  O2    A    
C129  C156  A    
C186  O27   A    
C16   C18   A    
C190  O35   A    
C33   H78   S    
C59   C63   A    
C125  C138  A    
C23   C31   A    
C187  H120  S    
C150  O15   A    
C48   C51   A    
O2    Zn12  S    
C95   H106  S    
C112  C177  S    
C145  C171  A    
C49   C55   A    
C146  C172  A    
C121  H43   S    
C104  H3    S    
C32   C37   A    
C92   H35   S    
C112  O10   A    
C142  H57   S    
C113  C126  A    
O22   Zn8   S    
C48   C54   A    
C149  O14   A    
C125  C129  A    
C151  O16   A    
C150  O19   A    
C140  H55   S    
C176  H118  S    
C124  C128  A    
C79   O44   S    
C205  O8    A    
C110  H18   S    
O38   Zn10  S    
C96   C97   S    
C123  C127  A    
C29   C196  S    
C40   C43   A    
C14   C20   A    
C15   C17   A    
C18   C22   A    
C107  O50   S    
C78   C154  S    
Br7   C208  S    
C25   C31   A    
C145  C153  A    
Br5   C206  S    
C49   C51   A    
C20   H76   S    
C98   C99   S    
C2    C46   A    
C87   C186  S    
C188  O28   A    
C67   C94   S    
C176  H108  S    
C102  H136  S    
C177  C181  A    
O45   Zn12  S    
C82   C187  S    
C83   C193  S    
C21   C32   A    
C141  C146  A    
C95   H49   S    
C17   H72   S    
O30   Zn11  S    
C69   O57   S    
C148  C174  A    
C98   H126  S    
C7    C10   A    
C4    C206  A    
C100  C102  S    
C159  C163  A    
O58   Zn3   S    
C7    C14   A    
C81   C85   S    
C96   O44   S    
C128  C155  A    
C80   H109  S    
Br13  C16   S    
C36   H80   S    
C13   C134  A    
C19   C23   A    
C126  C139  A    
C109  H15   S    
C140  C145  A    
O17   Zn5   S    
O41   Zn2   S    
C46   C90   A    
C65   H130  S    
C166  H67   S    
C174  C179  A    
C66   O54   S    
C26   C87   S    
C131  C198  A    
C132  C178  S    
Br10  C14   S    
C62   C70   A    
C106  H7    S    
C168  H69   S    
C119  H38   S    
C73   C76   A    
C116  H30   S    
C101  C125  A    
C192  O39   A    
C116  H29   S    
C175  C180  A    
C34   C38   A    
C117  H32   S    
C41   C49   A    
O10   Zn6   S    
C139  C144  A    
C24   C135  A    
C43   C204  S    
C116  H28   S    
C19   H74   S    
C103  H137  S    
Br16  C180  S    
C93   H46   S    
C7    C206  A    
C26   H94   S    
C35   C200  S    
C117  C118  S    
C5    C208  A    
C90   O46   S    
Br20  C193  S    
C84   C194  S    
C9    C11   A    
C121  C122  S    
C123  C136  A    
C102  H134  S    
C53   C60   A    
C185  O25   A    
C28   C89   S    
C162  C167  A    
C3    C5    A    
C104  H140  S    
C55   C58   A    
C122  H44   S    
C105  H5    S    
C138  C142  A    
C142  C147  A    
O6    Zn2   S    
C1    O1    A    
C128  C133  A    
C82   C86   S    
C164  C169  A    
C91   C95   S    
O16   Zn5   S    
C24   C68   A    
C167  H68   S    
C201  O56   A    
C147  C156  A    
