data_mof_unit_14425.cif
_audit_creation_date              2012-12-10T17:08:39-0500
_audit_creation_method            fapswitch 2.2
_symmetry_space_group_name_H-M    P1
_symmetry_Int_Tables_number       1
_space_group_crystal_system       triclinic
_cell_length_a                    15.737362
_cell_length_b                    10.733677
_cell_length_c                    10.113172
_cell_angle_alpha                 91.177915
_cell_angle_beta                  88.667671
_cell_angle_gamma                 90.684454
_cell_volume                      1707.3794604

loop_
_atom_site_label
_atom_site_type_symbol
_atom_type_description
_atom_site_fract_x
_atom_site_fract_y
_atom_site_fract_z
_atom_type_partial_charge
C1    C     C_R   0.498180 0.262833 0.498478 0.901558
C2    C     C_3   0.944972 0.448380 0.630972 -0.449396
C3    C     C_3   0.917020 0.504782 0.498349 0.025481
C4    C     C_3   0.953514 0.640274 0.488060 0.209595
C5    C     C_3   0.051292 0.638757 0.511217 0.172962
C6    C     C_1   0.825534 0.505611 0.495804 0.056413
C7    C     C_1   0.174545 0.497576 0.506933 0.075795
C8    C     C_1   0.249828 0.497408 0.505255 -0.202155
C9    C     C_2   0.477489 0.929989 0.392396 -0.196979
C10   C     C_2   0.482662 0.867940 0.504865 -0.403411
C11   C     C_2   0.462903 0.063456 0.396184 0.271153
C12   C     C_R   0.338608 0.498846 0.501517 0.859890
C13   C     C_2   0.499882 0.130375 0.493508 -0.414032
C14   C     C_2   0.556646 0.560850 0.923070 0.634303
C15   C     C_2   0.541151 0.581171 0.072724 -0.082780
C16   C     C_R   0.497107 0.737137 0.501340 0.953456
C17   C     C_R   0.661417 0.500981 0.498621 0.899560
C18   C     C_3   0.041655 0.425262 0.622913 0.244197
C19   C     C_3   0.050204 0.441837 0.369974 0.225183
C20   C     C_3   0.951570 0.425054 0.377722 0.191273
C21   C     C_1   0.750259 0.503881 0.495892 -0.193986
C22   C     C_3   0.083144 0.499774 0.504804 -0.091478
H1    H     H_    0.910635 0.358804 0.649592 0.196374
H2    H     H_    0.927278 0.511663 0.714577 0.201986
H3    H     H_    0.941757 0.670603 0.384851 0.082127
H4    H     H_    0.483540 0.882677 0.296763 0.188751
H5    H     H_    0.471647 0.912281 0.601183 0.160590
H6    H     H_    0.538222 0.087902 0.567871 0.141875
H7    H     H_    0.565181 0.666190 0.118806 0.083040
H8    H     H_    0.045175 0.325949 0.594513 0.146438
H9    H     H_    0.060178 0.516818 0.296666 0.153495
H10   H     H_    0.924886 0.465157 0.286163 0.017730
H11   H     H_    0.060400 0.680693 0.610819 0.103814
N1    N     N_2   0.500900 0.501330 0.852150 0.036730
N2    N     N_2   0.500920 0.501360 0.147810 -0.017351
O1    O     O_R   0.499990 0.319060 0.613040 -0.651710
O2    O     O_R   0.500010 0.319100 0.386900 -0.610902
O3    O     O_R   0.377130 0.499990 0.613120 -0.657337
O4    O     O_R   0.377160 0.500030 0.386980 -0.601697
O5    O     O_R   0.499990 0.680900 0.613100 -0.589807
O6    O     O_R   0.500010 0.680940 0.386960 -0.624551
O7    O     O_R   0.622840 0.499970 0.613020 -0.558197
O8    O     O_R   0.622870 0.500010 0.386880 -0.637792
Zn1   Zn    Zn3+2 0.499980 0.499970 0.650990 0.997550
Zn2   Zn    Zn3+2 0.500020 0.500030 0.349010 0.941086
O9    O     O_3   0.083338 0.427603 0.746855 -0.603760
C23   C     C_3   0.092708 0.546303 0.807748 0.098222
H12   H     H_    0.033754 0.601679 0.807434 0.141700
H13   H     H_    0.146215 0.598026 0.759814 0.134930
C24   C     C_3   0.114802 0.529577 0.951987 -0.781295
H14   H     H_    0.174384 0.476044 0.958661 0.266839
H15   H     H_    0.123860 0.622066 0.001244 0.207580
H16   H     H_    0.062627 0.478614 0.004321 0.254407
N3    N     N_2   0.410433 0.120443 0.300781 -0.281666
H17   H     H_    0.365780 0.181046 0.340396 0.224612
C25   C     C_3   0.381961 0.046432 0.188585 -0.844447
H18   H     H_    0.338460 0.101502 0.129120 0.243306
H19   H     H_    0.346378 0.962727 0.221759 0.253290
H20   H     H_    0.437253 0.018593 0.124931 0.249066
O10   O     O_3   0.626495 0.612757 0.856670 -0.613699
C26   C     C_3   0.697334 0.629205 0.938750 -0.011714
H21   H     H_    0.705118 0.549924 0.006731 0.128161
H22   H     H_    0.691303 0.717760 0.997005 0.148880
C27   C     C_3   0.777290 0.636756 0.852057 -0.726554
H23   H     H_    0.772254 0.713988 0.781596 0.279447
H24   H     H_    0.833744 0.653207 0.914230 0.191853
H25   H     H_    0.785224 0.547842 0.795413 0.251268
O11   O     O_3   0.423216 0.497408 0.914449 -0.579646
C28   C     C_3   0.369761 0.405353 0.857616 0.261613
H26   H     H_    0.401375 0.345515 0.782214 0.181869
H27   H     H_    0.314437 0.452833 0.816091 0.173124
C29   C     C_3   0.332711 0.319368 0.962089 -0.981955
H28   H     H_    0.315058 0.372459 0.053923 0.287890
H29   H     H_    0.274987 0.271411 0.924135 0.235029
H30   H     H_    0.379726 0.246816 0.982618 0.250412
N4    N     N_2   0.499434 0.379406 0.101302 -0.192688
H31   H     H_    0.454470 0.328464 0.152881 0.277070
C30   C     C_3   0.580782 0.316900 0.100014 -0.731358
H32   H     H_    0.571264 0.216696 0.074190 0.220330
H33   H     H_    0.624748 0.356823 0.024557 0.201210
H34   H     H_    0.610439 0.324522 0.198276 0.262550
O12   O     O_3   0.095242 0.341831 0.305816 -0.594538
C31   C     C_3   0.114056 0.238802 0.384265 0.156760
H35   H     H_    0.056171 0.192945 0.425197 0.183155
H36   H     H_    0.157664 0.264676 0.464897 0.129442
C32   C     C_3   0.159810 0.142886 0.297262 -0.874104
H37   H     H_    0.215353 0.187110 0.246586 0.271838
H38   H     H_    0.182430 0.066570 0.359140 0.211243
H39   H     H_    0.116169 0.103832 0.221819 0.259478
O13   O     O_3   0.927134 0.298429 0.394192 -0.605645
C33   C     C_3   0.898738 0.244684 0.274218 0.154031
H40   H     H_    0.947981 0.254314 0.194050 0.172235
H41   H     H_    0.838924 0.289573 0.244256 0.130723
C34   C     C_3   0.880627 0.106681 0.293573 -0.887840
H42   H     H_    0.831105 0.094247 0.372393 0.258664
H43   H     H_    0.857614 0.063675 0.200045 0.212279
H44   H     H_    0.939455 0.058890 0.322102 0.246928
O14   O     O_3   0.093431 0.710660 0.412160 -0.632603
C35   C     C_3   0.157795 0.788705 0.465617 0.107406
H45   H     H_    0.188502 0.749160 0.553402 0.121907
H46   H     H_    0.130193 0.880192 0.495046 0.134626
C36   C     C_3   0.227222 0.808408 0.361119 -0.827657
H47   H     H_    0.200584 0.852131 0.272810 0.255297
H48   H     H_    0.277628 0.869743 0.402803 0.209806
H49   H     H_    0.255709 0.717796 0.330813 0.271226
O15   O     O_3   0.912576 0.720004 0.583220 -0.616930
C37   C     C_3   0.909780 0.843155 0.536558 0.111544
H50   H     H_    0.865629 0.848011 0.452453 0.146406
H51   H     H_    0.973924 0.876776 0.504152 0.155952
C38   C     C_3   0.877702 0.930012 0.646916 -0.859521
H52   H     H_    0.918088 0.922303 0.734932 0.255949
H53   H     H_    0.880148 0.027793 0.613027 0.224457
H54   H     H_    0.810957 0.905814 0.674519 0.252767

loop_
_geom_bond_atom_site_label_1
_geom_bond_atom_site_label_2
_ccdc_geom_bond_type
C10   H5    S    
C2    C18   S    
C11   C13   D    
N3    H17   S    
C19   C20   S    
C3    C6    S    
C19   H9    S    
C4    H3    S    
C7    C8    T    
C23   H13   S    
N4    C30   S    
C28   H26   S    
C30   H33   S    
O15   C37   S    
C25   H18   S    
C36   H49   S    
C28   H27   S    
C26   H22   S    
C17   O7    A    
C38   H52   S    
C5    C22   S    
C23   H12   S    
O11   C28   S    
C5    H11   S    
C24   H15   S    
C37   H50   S    
C13   H6    S    
C18   H8    S    
C19   O12   S    
C9    C10   D    
C1    O2    A    
O4    Zn2   S    
C37   H51   S    
C26   H21   S    
O7    Zn1   S    
C29   H30   S    
C18   O9    S    
C15   N2    D    
C9    H4    S    
C15   H7    S    
C23   C24   S    
N3    C25   S    
N2    N4    S    
C24   H16   S    
C36   H47   S    
C27   H25   S    
C19   C22   S    
N1    Zn1   S    
N4    H31   S    
C29   H29   S    
N1    O11   S    
C33   H40   S    
C32   H37   S    
C29   H28   S    
C34   H44   S    
C6    C21   T    
C4    O15   S    
C17   C21   S    
O10   C26   S    
C27   H24   S    
C26   C27   S    
C36   H48   S    
C17   O8    A    
O3    Zn1   S    
C33   H41   S    
C9    C11   S    
C31   H35   S    
C8    C12   S    
C35   C36   S    
C24   H14   S    
C3    C20   S    
C34   H43   S    
O8    Zn2   S    
C38   H54   S    
C11   N3    S    
C16   O5    A    
C31   H36   S    
O14   C35   S    
C2    H2    S    
C37   C38   S    
O1    Zn1   S    
C1    C13   S    
O2    Zn2   S    
C3    C4    S    
N2    Zn2   S    
C28   C29   S    
C20   H10   S    
O9    C23   S    
C35   H46   S    
C18   C22   S    
C4    C5    S    
C32   H39   S    
C14   N1    D    
C7    C22   S    
C14   O10   S    
C25   H20   S    
C27   H23   S    
C12   O4    A    
C2    C3    S    
C10   C16   S    
C35   H45   S    
C33   C34   S    
C30   H32   S    
C30   H34   S    
O13   C33   S    
C20   O13   S    
C25   H19   S    
C32   H38   S    
C12   O3    A    
C34   H42   S    
C38   H53   S    
O5    Zn1   S    
C31   C32   S    
C5    O14   S    
O12   C31   S    
C2    H1    S    
O6    Zn2   S    
C14   C15   S    
C16   O6    A    
C1    O1    A    
