data_mof_unit_28262.cif
_audit_creation_date              2012-12-11T17:01:19-0500
_audit_creation_method            fapswitch 2.2
_symmetry_space_group_name_H-M    P1
_symmetry_Int_Tables_number       1
_space_group_crystal_system       triclinic
_cell_length_a                    19.34738
_cell_length_b                    7.096287
_cell_length_c                    17.603056
_cell_angle_alpha                 89.965587
_cell_angle_beta                  108.466599
_cell_angle_gamma                 90.039255
_cell_volume                      2292.35819351

loop_
_atom_site_label
_atom_site_type_symbol
_atom_type_description
_atom_site_fract_x
_atom_site_fract_y
_atom_site_fract_z
_atom_type_partial_charge
O1    O     O_R   0.413720 0.494330 0.415730 -0.533269
O2    O     O_R   0.586280 0.994330 0.584270 -0.533689
O3    O     O_R   0.560210 0.819300 0.430070 -0.539070
O4    O     O_R   0.439790 0.319300 0.569930 -0.538130
C1    C     C_R   0.581278 0.655489 0.414270 0.731337
C2    C     C_R   0.418761 0.155393 0.585762 0.727995
O5    O     O_R   0.412670 0.823730 0.406310 -0.551002
O6    O     O_R   0.587330 0.323730 0.593690 -0.551363
O7    O     O_R   0.437690 0.998790 0.560340 -0.544649
O8    O     O_R   0.562310 0.498790 0.439660 -0.546259
C3    C     C_R   0.385009 0.655082 0.383911 0.697403
C4    C     C_R   0.615047 0.155177 0.615998 0.695135
O9    O     O_3   0.508380 0.662350 0.550560 -0.377870
O10   O     O_3   0.491620 0.162350 0.449440 -0.378126
V1    V     V_3+5 0.498450 0.935370 0.490620 1.395372
V2    V     V_3+5 0.501550 0.435370 0.509380 1.394879
C5    C     C_R   0.738120 0.009261 0.686314 0.112877
C6    C     C_R   0.261867 0.509173 0.313650 0.109058
C7    C     C_R   0.685192 0.147787 0.682224 -0.164592
C8    C     C_R   0.314999 0.647283 0.317476 -0.166127
C9    C     C_R   0.704200 0.290266 0.741348 -0.214342
C10   C     C_R   0.296383 0.788994 0.257958 -0.207130
H1    H     H_    0.667399 0.406545 0.739106 0.130298
H2    H     H_    0.333426 0.904742 0.260007 0.132834
C11   C     C_R   0.769679 0.279846 0.806241 -0.185620
C12   C     C_R   0.230870 0.778851 0.193123 -0.180297
H3    H     H_    0.781070 0.388576 0.851678 0.125953
H4    H     H_    0.219669 0.887179 0.147481 0.129030
C13   C     C_R   0.817539 0.125161 0.814609 -0.094228
C14   C     C_R   0.182673 0.624954 0.185123 -0.096954
C15   C     C_R   0.801121 0.997107 0.751215 0.045386
C16   C     C_R   0.198852 0.497142 0.248639 0.045959
C17   C     C_3   0.804139 0.788217 0.747316 -0.462848
C18   C     C_3   0.196076 0.288175 0.251990 -0.461030
C19   C     C_3   0.735798 0.800459 0.673500 0.279066
C20   C     C_3   0.264328 0.299987 0.325851 0.279398
H5    H     H_    0.793768 0.719394 0.799393 0.139682
H6    H     H_    0.206566 0.220564 0.199768 0.140205
H7    H     H_    0.853725 0.738906 0.734237 0.191005
H8    H     H_    0.146503 0.237765 0.264863 0.190821
H9    H     H_    0.685799 0.733321 0.679843 0.056246
H10   H     H_    0.314378 0.233653 0.319373 0.058809
C21   C     C_R   0.316476 0.289451 0.626612 -0.208633
C22   C     C_R   0.675696 0.803370 0.363788 -0.209550
C23   C     C_R   0.369602 0.148691 0.635250 -0.086439
C24   C     C_R   0.630357 0.648736 0.364686 -0.086787
C25   C     C_R   0.375863 0.004208 0.691703 -0.199287
C26   C     C_R   0.632731 0.488421 0.318684 -0.202221
C27   C     C_R   0.329830 0.000322 0.739541 0.041378
C28   C     C_R   0.678923 0.483097 0.271173 0.036597
C29   C     C_R   0.274592 0.137269 0.728067 0.043483
C30   C     C_R   0.725246 0.637026 0.271851 0.046803
C31   C     C_R   0.267889 0.282288 0.671240 0.093501
C32   C     C_R   0.724092 0.797004 0.319044 0.087310
C33   C     C_R   0.339509 0.865356 0.800258 -0.267145
C34   C     C_R   0.679482 0.326301 0.223029 -0.283916
C35   C     C_R   0.293832 0.862172 0.848428 0.397787
C36   C     C_R   0.724864 0.321551 0.174232 0.414040
C37   C     C_R   0.235827 0.992020 0.834162 0.000292
C38   C     C_R   0.773380 0.472163 0.177319 -0.006013
C39   C     C_R   0.226701 0.131029 0.774250 -0.006088
C40   C     C_R   0.772987 0.630941 0.225603 -0.018799
C41   C     C_R   0.170917 0.267236 0.761875 0.107408
C42   C     C_R   0.820138 0.784396 0.227516 0.141461
C43   C     C_R   0.164307 0.409343 0.704479 -0.211322
C44   C     C_R   0.819587 0.940734 0.276084 -0.110454
C45   C     C_R   0.212727 0.417711 0.660047 -0.184581
C46   C     C_R   0.771746 0.947367 0.321158 -0.181554
C47   C     C_R   0.187491 0.987827 0.879436 -0.206576
C48   C     C_R   0.821820 0.468266 0.132264 -0.197508
C49   C     C_R   0.131435 0.121674 0.866779 -0.087347
C50   C     C_R   0.868530 0.621072 0.133443 -0.106614
C51   C     C_R   0.123876 0.262054 0.808452 -0.219849
C52   C     C_R   0.866944 0.779310 0.180799 -0.184474
H11   H     H_    0.311421 0.401167 0.583111 0.145968
H12   H     H_    0.674847 0.926735 0.399812 0.140410
H13   H     H_    0.417795 0.897846 0.699766 0.121510
H14   H     H_    0.597646 0.369230 0.318730 0.127598
H15   H     H_    0.384077 0.765583 0.812227 0.138269
H16   H     H_    0.644795 0.206609 0.223415 0.144758
H17   H     H_    0.193776 0.881992 0.925543 0.153256
H18   H     H_    0.822504 0.347423 0.094901 0.163632
H19   H     H_    0.081117 0.366553 0.799081 0.122972
H20   H     H_    0.902894 0.897450 0.182177 0.126406
H21   H     H_    0.122287 0.515842 0.694788 0.129837
H22   H     H_    0.855561 0.059241 0.278422 0.121014
H23   H     H_    0.206925 0.530059 0.616746 0.134508
H24   H     H_    0.771898 0.070570 0.357563 0.129088
O11   O     O_R   0.937800 0.775460 0.060470 -0.535434
O12   O     O_R   0.062200 0.275460 0.939530 -0.536475
O13   O     O_R   0.087350 0.441340 0.093710 -0.537201
O14   O     O_R   0.912650 0.941340 0.906290 -0.537078
C53   C     C_R   0.115074 0.610443 0.115880 0.699303
C54   C     C_R   0.885010 0.110457 0.884004 0.701371
O15   O     O_R   0.939820 0.446010 0.069950 -0.543823
O16   O     O_R   0.060180 0.946010 0.930050 -0.543118
O17   O     O_R   0.913690 0.271230 0.915700 -0.541046
O18   O     O_R   0.086310 0.771230 0.084300 -0.540989
C55   C     C_R   0.918474 0.614214 0.084738 0.704651
C56   C     C_R   0.081470 0.114370 0.915290 0.704064
O19   O     O_3   0.991670 0.603050 0.949510 -0.373579
O20   O     O_3   0.008330 0.103050 0.050490 -0.373441
V3    V     V_3+5 0.001550 0.329940 0.009370 1.399622
V4    V     V_3+5 0.998450 0.829940 0.990630 1.401606
O21   O     O_3   0.312005 0.748917 0.915785 -0.555604
C57   C     C_3   0.283989 0.566791 0.893664 0.087882
H25   H     H_    0.308509 0.501858 0.850572 0.133785
H26   H     H_    0.223629 0.571601 0.866854 0.128155
C58   C     C_3   0.302387 0.443819 0.968201 -0.690388
H27   H     H_    0.276953 0.502650 0.011456 0.213418
H28   H     H_    0.281542 0.298964 0.951881 0.192728
H29   H     H_    0.362379 0.437384 0.996942 0.223606
O22   O     O_3   0.727440 0.162868 0.129177 -0.558601
C59   C     C_3   0.658636 0.123747 0.072324 0.090668
H30   H     H_    0.664172 0.134944 0.011577 0.132073
H31   H     H_    0.613962 0.222052 0.073526 0.103231
C60   C     C_3   0.636158 0.922874 0.083906 -0.707295
H32   H     H_    0.630538 0.906604 0.144397 0.221021
H33   H     H_    0.583089 0.889748 0.038232 0.179325
H34   H     H_    0.677778 0.822077 0.077323 0.227244
O23   O     O_3   0.751121 0.756627 0.602149 -0.544256
C61   C     C_3   0.749658 0.559173 0.591383 0.098129
H35   H     H_    0.692555 0.512122 0.563353 0.141903
H36   H     H_    0.773926 0.481198 0.648589 0.133686
C62   C     C_3   0.793758 0.507373 0.536650 -0.711381
H37   H     H_    0.851842 0.545743 0.565556 0.220453
H38   H     H_    0.789876 0.353319 0.524927 0.180034
H39   H     H_    0.772918 0.583098 0.478868 0.236504
O24   O     O_3   0.248963 0.253766 0.397002 -0.546154
C63   C     C_3   0.249461 0.055813 0.406411 0.096048
H40   H     H_    0.305960 0.007849 0.437279 0.142538
H41   H     H_    0.227731 0.979465 0.348450 0.133718
C64   C     C_3   0.201468 0.001587 0.456677 -0.713972
H42   H     H_    0.144288 0.044604 0.425558 0.221587
H43   H     H_    0.203265 0.846551 0.465809 0.179801
H44   H     H_    0.220586 0.071371 0.515883 0.235398

loop_
_geom_bond_atom_site_label_1
_geom_bond_atom_site_label_2
_ccdc_geom_bond_type
C44   C46   A    
C41   C43   A    
C2    C23   S    
C60   H32   S    
C20   H10   S    
O1    C3    A    
O2    C4    A    
C2    O7    A    
C59   H30   S    
C25   C27   A    
O5    C3    A    
C17   H7    S    
O11   C55   A    
C18   H8    S    
C7    C9    A    
O22   C59   S    
C14   C53   S    
C58   H28   S    
C13   C54   S    
O15   C55   A    
C35   C37   A    
C46   H24   S    
C32   C46   A    
C57   H25   S    
C49   C56   S    
C36   C38   A    
C38   C40   A    
C26   H14   S    
C47   C49   A    
C57   C58   S    
C40   C42   A    
C17   C19   S    
C21   C31   A    
C22   C24   A    
C27   C29   A    
C29   C39   A    
C64   H44   S    
C28   C30   A    
C15   C17   S    
C18   C20   S    
C30   C32   A    
O5    V1    S    
O6    V2    S    
C21   H11   S    
C48   H18   S    
O12   C56   A    
O15   V3    S    
C23   C25   A    
C11   C13   A    
C24   C26   A    
C3    C8    S    
C37   C39   A    
C48   C50   A    
C35   O21   S    
C19   O23   S    
C50   C52   A    
C58   H29   S    
C52   H20   S    
C49   C51   A    
C60   H33   S    
C41   C51   A    
C54   O17   A    
C43   C45   A    
C27   C33   A    
O13   C53   A    
C28   C34   A    
C29   C31   A    
C42   C44   A    
O4    V2    S    
C63   H41   S    
C36   O22   S    
C33   H15   S    
C38   C48   A    
O6    C4    A    
C39   C41   A    
O1    V2    S    
O20   V4    S    
O2    V1    S    
C21   C23   A    
O23   C61   S    
O17   V3    S    
C19   H9    S    
C37   C47   A    
O4    C2    A    
C8    C10   A    
C12   C14   A    
O19   V4    S    
C33   C35   A    
O11   V4    S    
C62   H37   S    
C5    C15   A    
C10   H2    S    
C60   H34   S    
C63   C64   S    
C6    C16   A    
C25   H13   S    
C61   H36   S    
O3    V1    S    
C64   H43   S    
O24   C63   S    
O21   C57   S    
O16   V4    S    
C9    C11   A    
C18   H6    S    
C45   H23   S    
O13   V3    S    
O3    C1    A    
C44   H22   S    
C59   H31   S    
C43   H21   S    
C11   H3    S    
C1    C24   S    
C12   H4    S    
C34   H16   S    
C61   C62   S    
C9    H1    S    
C63   H40   S    
O7    V1    S    
C1    O8    A    
C13   C15   A    
C30   C40   A    
C20   O24   S    
C14   C16   A    
O14   C54   A    
C64   H42   S    
C57   H26   S    
C62   H39   S    
O18   V4    S    
O16   C56   A    
C4    C7    S    
C26   C28   A    
C5    C7    A    
C34   C36   A    
C6    C8    A    
O20   V3    S    
C31   C45   A    
C17   H5    S    
O12   V3    S    
C59   C60   S    
C47   H17   S    
O14   V4    S    
C22   C32   A    
O19   V3    S    
C10   C12   A    
O9    V2    S    
C62   H38   S    
C42   C52   A    
O10   V1    S    
O8    V2    S    
C5    C19   S    
C22   H12   S    
C61   H35   S    
C58   H27   S    
C6    C20   S    
C53   O18   A    
C51   H19   S    
C16   C18   S    
C50   C55   S    
