data_mof_unit_68304.cif
_audit_creation_date              2012-12-11T17:19:11-0500
_audit_creation_method            fapswitch 2.2
_symmetry_space_group_name_H-M    P1
_symmetry_Int_Tables_number       1
_space_group_crystal_system       triclinic
_cell_length_a                    14.703023
_cell_length_b                    7.275484
_cell_length_c                    13.471456
_cell_angle_alpha                 89.992434
_cell_angle_beta                  100.019703
_cell_angle_gamma                 90.008664
_cell_volume                      1419.08416776

loop_
_atom_site_label
_atom_site_type_symbol
_atom_type_description
_atom_site_fract_x
_atom_site_fract_y
_atom_site_fract_z
_atom_type_partial_charge
O1    O     O_R   0.648180 0.355050 0.151550 -0.531266
O2    O     O_R   0.351820 0.644950 0.848450 -0.532849
O3    O     O_R   0.851820 0.855050 0.348450 -0.531729
O4    O     O_R   0.148180 0.144950 0.651550 -0.533411
O5    O     O_R   0.835240 0.681980 0.154280 -0.533782
O6    O     O_R   0.164760 0.318020 0.845720 -0.512320
O7    O     O_R   0.664760 0.181980 0.345720 -0.531783
O8    O     O_R   0.335240 0.818020 0.654280 -0.532853
C1    C     C_R   0.865398 0.515382 0.135184 0.665531
C2    C     C_R   0.134631 0.484620 0.864843 0.675597
C3    C     C_R   0.634600 0.015348 0.364812 0.666651
C4    C     C_R   0.365364 0.984659 0.635149 0.660441
O9    O     O_R   0.647870 0.684600 0.139630 -0.511477
O10   O     O_R   0.352130 0.315400 0.860370 -0.510805
O11   O     O_R   0.852130 0.184600 0.360370 -0.511239
O12   O     O_R   0.147870 0.815400 0.639630 -0.512305
O13   O     O_R   0.663110 0.857440 0.333700 -0.532034
O14   O     O_R   0.336890 0.142560 0.666300 -0.534612
O15   O     O_R   0.836890 0.357440 0.166300 -0.532166
O16   O     O_R   0.163110 0.642560 0.833700 -0.538083
C5    C     C_R   0.615200 0.515922 0.113095 0.777586
C6    C     C_R   0.384813 0.484080 0.886889 0.774247
C7    C     C_R   0.884804 0.015925 0.386900 0.773836
C8    C     C_R   0.115199 0.984077 0.613096 0.774995
O17   O     O_3   0.755220 0.522230 0.313690 -0.367437
O18   O     O_3   0.244780 0.477770 0.686310 -0.372164
O19   O     O_3   0.744780 0.022230 0.186310 -0.368194
O20   O     O_3   0.255220 0.977770 0.813690 -0.361611
V1    V     V_3+5 0.749030 0.796100 0.238190 1.611045
V2    V     V_3+5 0.250970 0.203900 0.761810 1.650252
V3    V     V_3+5 0.750970 0.296100 0.261810 1.614557
V4    V     V_3+5 0.249030 0.703900 0.738190 1.617696
C9    C     C_1   0.966003 0.005270 0.466795 -0.005646
C10   C     C_1   0.033999 0.994735 0.533202 -0.003625
C11   C     C_1   0.534012 0.505268 0.033187 -0.004394
C12   C     C_1   0.466021 0.494745 0.966773 -0.003478
H1    H     H_    0.208811 0.157429 0.303756 0.188903
H2    H     H_    0.791467 0.844949 0.696423 0.204922
H3    H     H_    0.291451 0.655877 0.196319 0.211721
H4    H     H_    0.708499 0.345125 0.803600 0.204404
C13   C     C_R   0.569848 0.962183 0.711647 -0.143527
C14   C     C_R   0.430114 0.038005 0.288378 -0.126647
C15   C     C_R   0.930149 0.462230 0.788364 -0.144479
C16   C     C_R   0.069889 0.538124 0.211644 -0.152984
C17   C     C_R   0.663179 0.911742 0.743972 0.419341
C18   C     C_R   0.336881 0.089202 0.256098 0.380394
C19   C     C_R   0.836807 0.411817 0.756044 0.421997
C20   C     C_R   0.163200 0.588809 0.243931 0.412610
C21   C     C_R   0.719816 0.883161 0.673018 -0.084113
C22   C     C_R   0.280340 0.118334 0.327094 -0.107110
C23   C     C_R   0.780159 0.383307 0.826999 -0.084423
C24   C     C_R   0.219840 0.617308 0.172961 -0.136327
C25   C     C_R   0.687084 0.912536 0.571468 -0.075345
C26   C     C_R   0.313013 0.088466 0.428611 -0.055816
C27   C     C_R   0.812896 0.412704 0.928543 -0.074176
C28   C     C_R   0.187124 0.587656 0.071438 -0.069903
C29   C     C_R   0.594248 0.961573 0.535873 0.055968
C30   C     C_R   0.405766 0.038756 0.464151 0.054548
C31   C     C_R   0.905748 0.461686 0.964136 0.059411
C32   C     C_R   0.094296 0.538401 0.035881 0.089269
C33   C     C_R   0.532095 0.973241 0.605924 -0.034822
C34   C     C_R   0.467888 0.026863 0.394087 -0.033979
C35   C     C_R   0.967907 0.473282 0.894087 -0.041324
C36   C     C_R   0.032135 0.526855 0.105932 -0.048080
C37   C     C_R   0.564046 0.999836 0.431867 -0.123694
C38   C     C_R   0.435936 0.000202 0.568124 -0.122692
C39   C     C_R   0.935959 0.499951 0.068137 -0.124356
C40   C     C_R   0.064086 0.500048 0.931895 -0.090157
H5    H     H_    0.736254 0.895833 0.521125 0.154926
H6    H     H_    0.263891 0.105505 0.478981 0.151737
H7    H     H_    0.763716 0.396042 0.978883 0.154241
H8    H     H_    0.236282 0.604468 0.021085 0.154853
S1    S     S_3+6 0.712259 0.887404 0.873373 -0.038774
O21   O     O_2   0.690444 0.052405 0.932072 -0.362323
O22   O     O_2   0.671458 0.720058 0.913794 -0.359908
O23   O     O_3   0.827597 0.863550 0.887525 -0.521655
H9    H     H_    0.849826 0.869567 0.961202 0.360748
S2    S     S_3+6 0.287967 0.114518 0.126678 -0.021786
O24   O     O_2   0.329625 0.281273 0.086721 -0.338189
O25   O     O_2   0.309164 0.950307 0.067012 -0.360128
O26   O     O_3   0.172742 0.141517 0.111381 -0.505250
H10   H     H_    0.148503 0.019254 0.126002 0.332971
S3    S     S_3+6 0.787737 0.387386 0.626647 -0.038315
O27   O     O_2   0.809567 0.552355 0.567901 -0.362251
O28   O     O_2   0.828531 0.220021 0.586281 -0.359049
O29   O     O_3   0.672396 0.363502 0.612491 -0.522321
H11   H     H_    0.650172 0.369498 0.538812 0.361688
S4    S     S_3+6 0.212245 0.613711 0.373298 -0.041679
O30   O     O_2   0.171484 0.781340 0.413431 -0.364540
O31   O     O_2   0.190370 0.449049 0.432256 -0.360180
O32   O     O_3   0.327591 0.637444 0.387436 -0.519884
H12   H     H_    0.349840 0.631130 0.461102 0.361685
C41   C     C_2   0.520186 0.036257 0.788803 0.838744
O33   O     O_2   0.510010 0.202324 0.794209 -0.558720
O34   O     O_R   0.489701 0.918791 0.858130 -0.629886
H13   H     H_    0.458181 0.987172 0.908256 0.316592
C42   C     C_2   0.479649 0.963511 0.211205 0.834885
O35   O     O_2   0.489667 0.797388 0.205873 -0.558339
O36   O     O_R   0.510311 0.080704 0.141868 -0.629578
H14   H     H_    0.541756 0.012080 0.091766 0.317095
C43   C     C_2   0.979823 0.536261 0.711193 0.834170
O37   O     O_2   0.989993 0.702328 0.705726 -0.557420
O38   O     O_R   0.010320 0.418755 0.641916 -0.629793
H15   H     H_    0.041844 0.487112 0.591769 0.316538
C44   C     C_2   0.020251 0.464045 0.288838 0.843322
O39   O     O_2   0.010063 0.297976 0.294272 -0.563528
O40   O     O_R   0.989790 0.581511 0.358155 -0.630582
H16   H     H_    0.958270 0.513127 0.408297 0.317177

loop_
_geom_bond_atom_site_label_1
_geom_bond_atom_site_label_2
_ccdc_geom_bond_type
C30   C34   A    
C16   C20   A    
O1    C5    A    
C41   O33   D    
C27   C31   A    
O19   V1    S    
O13   V1    S    
S1    O21   D    
O3    C7    A    
O34   H13   S    
C13   C33   A    
C17   S1    S    
C25   H5    S    
C15   C43   S    
O26   H10   S    
C15   C35   A    
H2    C21   S    
C16   C44   S    
C16   C36   A    
O7    C3    A    
C44   O40   S    
C22   C26   A    
O9    V1    S    
O16   V4    S    
O4    C8    A    
S2    O25   D    
O1    V3    S    
O2    V4    S    
C14   C18   A    
O3    V1    S    
C31   C39   A    
C33   C38   A    
C30   C38   A    
C13   C41   S    
S3    O27   D    
C2    O16   A    
C7    C9    S    
O2    C6    A    
O40   H16   S    
C20   S4    S    
O14   V2    S    
C19   S3    S    
C14   C34   A    
O11   C7    A    
H3    C24   S    
O15   V3    S    
C43   O38   S    
S1    O22   D    
O10   V2    S    
C42   O36   S    
C1    O15   A    
C42   O35   D    
O5    V1    S    
O7    V3    S    
C36   C39   A    
O8    V4    S    
C43   O37   D    
O23   H9    S    
C14   C42   S    
O32   H12   S    
C18   S2    S    
C25   C29   A    
O29   H11   S    
C19   C23   A    
C28   H8    S    
C4    C38   S    
C8    C10   S    
C28   C32   A    
C11   C12   T    
C1    C39   S    
O5    C1    A    
O36   H14   S    
C26   H6    S    
S4    O32   S    
C17   C21   A    
O8    C4    A    
C9    C10   T    
O9    C5    A    
O11   V3    S    
O6    V2    S    
S4    O31   D    
S1    O23   S    
C26   C30   A    
C35   C40   A    
C3    O13   A    
C34   C37   A    
S3    O28   D    
S2    O24   D    
O17   V3    S    
C29   C37   A    
O6    C2    A    
C29   C33   A    
C5    C11   S    
C2    C40   S    
O12   V4    S    
H4    C23   S    
C6    C12   S    
C44   O39   D    
C18   C22   A    
C31   C35   A    
C32   C36   A    
O10   C6    A    
O20   V2    S    
H1    C22   S    
S2    O26   S    
C41   O34   S    
C21   C25   A    
C23   C27   A    
O4    V2    S    
C24   C28   A    
C20   C24   A    
S3    O29   S    
S4    O30   D    
C32   C40   A    
O12   C8    A    
C4    O14   A    
O38   H15   S    
C13   C17   A    
C15   C19   A    
O18   V4    S    
C27   H7    S    
C3    C37   S    
