data_mof_unit_32576.cif
_audit_creation_date              2013-03-05T16:10:50-0500
_audit_creation_method            fapswitch 2.2
_symmetry_space_group_name_H-M    P1
_symmetry_Int_Tables_number       1
_space_group_crystal_system       triclinic
_cell_length_a                    11.053642
_cell_length_b                    9.820225
_cell_length_c                    15.856132
_cell_angle_alpha                 91.416386
_cell_angle_beta                  88.535003
_cell_angle_gamma                 91.179759
_cell_volume                      1719.73993357

loop_
_atom_site_label
_atom_site_type_symbol
_atom_site_description
_atom_site_fract_x
_atom_site_fract_y
_atom_site_fract_z
_atom_type_partial_charge
O1    O     O_R   0.317570 0.620260 0.500050 -0.592275
O2    O     O_R   0.317570 0.379740 0.500050 -0.602953
C1    C     C_R   0.262229 0.498806 0.501072 0.783480
O3    O     O_R   0.499890 0.620310 0.379470 -0.604561
O4    O     O_R   0.499890 0.379690 0.379470 -0.512947
C2    C     C_R   0.499624 0.498493 0.341382 0.841517
Cu1   Cu    Cu3+1 0.499860 0.642410 0.500040 0.984926
Cu2   Cu    Cu3+1 0.499860 0.357590 0.500040 0.996322
O5    O     O_R   0.682190 0.620260 0.500020 -0.600599
O6    O     O_R   0.682190 0.379740 0.500020 -0.600613
O7    O     O_R   0.499870 0.620210 0.620600 -0.515893
O8    O     O_R   0.499870 0.379790 0.620600 -0.571888
C3    C     C_R   0.740819 0.500799 0.504382 0.699567
C4    C     C_R   0.499762 0.501413 0.658735 0.813445
C5    C     C_3   0.423835 0.618941 0.054880 0.035195
C6    C     C_3   0.437270 0.357988 0.047146 -0.012730
C7    C     C_3   0.424114 0.364206 0.948502 0.046383
C8    C     C_3   0.435667 0.635299 0.956107 0.055839
H1    H     H_    0.502281 0.276761 0.060296 0.135372
H2    H     H_    0.463625 0.710136 0.087061 0.155666
C9    C     C_1   0.497315 0.504096 0.748389 -0.035849
C10   C     C_3   0.496349 0.492922 0.083565 -0.067230
C11   C     C_3   0.492549 0.499280 0.916546 -0.030097
C12   C     C_3   0.626204 0.493330 0.947055 -0.387960
C13   C     C_3   0.631570 0.502592 0.046480 -0.155623
C14   C     C_1   0.494630 0.503503 0.823974 0.049355
C15   C     C_1   0.496740 0.492416 0.176285 -0.043903
C16   C     C_1   0.498075 0.494693 0.251840 -0.070176
H3    H     H_    0.683210 0.574338 0.917406 0.210762
H4    H     H_    0.668387 0.399703 0.921012 0.272839
C17   C     C_3   0.084087 0.643772 0.500413 -0.390707
C18   C     C_3   0.076154 0.440112 0.588611 -0.345094
H5    H     H_    0.114012 0.682057 0.437559 0.236389
H6    H     H_    0.128771 0.350044 0.605885 0.201774
H7    H     H_    0.133888 0.710271 0.546562 0.147783
H8    H     H_    0.093541 0.516392 0.640279 0.198522
C19   C     C_3   0.945600 0.651952 0.515231 -0.013349
C20   C     C_3   0.937252 0.406000 0.582821 -0.043175
H9    H     H_    0.115951 0.463357 0.366960 0.204628
H10   H     H_    0.100187 0.312564 0.425477 0.178506
H11   H     H_    0.911891 0.495599 0.368453 0.177357
H12   H     H_    0.892815 0.334945 0.409606 0.211925
C21   C     C_3   0.074710 0.421113 0.425807 -0.357749
C22   C     C_3   0.126665 0.497868 0.504151 0.014596
C23   C     C_3   0.883646 0.499747 0.508894 -0.076921
C24   C     C_3   0.934865 0.435458 0.423697 -0.415725
C25   C     C_3   0.623369 0.086648 0.514079 -0.083159
C26   C     C_3   0.625320 0.920722 0.497775 -0.057131
C27   C     C_3   0.411130 0.078611 0.565612 0.129045
C28   C     C_3   0.428019 0.919832 0.575576 0.180041
C29   C     C_3   0.455946 0.077438 0.419405 -0.173008
C30   C     C_3   0.438469 0.913280 0.424810 -0.220095
N1    N     N_3   0.500250 0.143650 0.501830 -0.228607
N2    N     N_3   0.500250 0.856350 0.501830 -0.238588
H13   H     H_    0.523857 0.091675 0.368147 0.250358
H14   H     H_    0.480376 0.871082 0.365725 0.209894
H15   H     H_    0.319291 0.083882 0.540023 0.041161
H16   H     H_    0.336552 0.871298 0.574990 0.074435
I1    I     I_    0.271305 0.700738 0.896241 -0.118284
I2    I     I_    0.237956 0.346373 0.907588 -0.088071
C31   C     C_2   0.907707 0.743237 0.445482 0.284228
H17   H     H_    0.861534 0.701292 0.391394 0.102442
O9    O     O_2   0.942132 0.862422 0.443639 -0.561785
C32   C     C_2   0.934865 0.251706 0.566025 0.224305
H18   H     H_    0.968105 0.209198 0.506951 0.109294
O10   O     O_2   0.915829 0.171097 0.622689 -0.513625
C33   C     C_2   0.661105 0.140278 0.602268 0.443153
H19   H     H_    0.697640 0.241263 0.610938 0.102949
O11   O     O_2   0.645078 0.076600 0.666569 -0.444564
C34   C     C_2   0.707465 0.871339 0.563093 0.514452
H20   H     H_    0.796754 0.917743 0.565318 0.060387
O12   O     O_2   0.674213 0.795583 0.618645 -0.421472
C35   C     C_2   0.720718 0.141095 0.453306 0.431178
H21   H     H_    0.811721 0.107493 0.460759 0.077862
O13   O     O_2   0.699404 0.204213 0.389976 -0.491260
C36   C     C_2   0.681704 0.868339 0.411306 0.269749
H22   H     H_    0.673752 0.762800 0.394380 0.145565
O14   O     O_2   0.720196 0.938440 0.353708 -0.503185
I3    I     I_    0.329031 0.182882 0.674721 -0.203894
I4    I     I_    0.450707 0.870013 0.708635 -0.125715
C37   C     C_2   0.345178 0.145118 0.385305 0.487147
H23   H     H_    0.261697 0.153028 0.422024 0.043235
O15   O     O_2   0.346458 0.186400 0.313354 -0.503735
C38   C     C_2   0.307780 0.865596 0.414856 0.438911
H24   H     H_    0.237134 0.898482 0.458924 0.035598
O16   O     O_2   0.279059 0.795229 0.353640 -0.509437
I5    I     I_    0.243280 0.633581 0.112111 -0.086437
I6    I     I_    0.286972 0.267244 0.118818 -0.106468
C39   C     C_2   0.474394 0.232179 0.909769 0.434728
H25   H     H_    0.445331 0.135885 0.936569 0.146844
O17   O     O_2   0.543320 0.229695 0.848376 -0.472295
C40   C     C_2   0.517137 0.758355 0.935390 0.392587
H26   H     H_    0.574681 0.756913 0.878796 0.128233
O18   O     O_2   0.512577 0.864299 0.977597 -0.508644
C41   C     C_2   0.694552 0.635200 0.074091 0.373947
H27   H     H_    0.658454 0.696416 0.126383 0.089926
O19   O     O_2   0.791342 0.670474 0.041775 -0.445831
C42   C     C_2   0.708616 0.390479 0.081813 0.475303
H28   H     H_    0.720829 0.386923 0.149454 0.072442
O20   O     O_2   0.758496 0.304872 0.036769 -0.465155
C43   C     C_2   0.931120 0.729111 0.599849 0.380828
H29   H     H_    0.977800 0.826937 0.608077 0.129780
O21   O     O_2   0.870541 0.688314 0.659300 -0.507401
C44   C     C_2   0.871554 0.427271 0.667497 0.618736
H30   H     H_    0.774904 0.444417 0.669982 0.026444
O22   O     O_2   0.924617 0.420349 0.733908 -0.451471

loop_
_geom_bond_atom_site_label_1
_geom_bond_atom_site_label_2
_geom_bond_distance
_ccdc_geom_bond_type
C5    C8    1.580135 S    
C3    C23   1.582472 S    
C9    C14   1.198248 T    
C43   H29   1.087649 S    
C35   H21   1.075356 S    
C26   C36   1.570827 S    
C41   H27   1.084625 S    
C44   O22   1.222402 D    
C37   H23   1.081547 S    
Cu1   Cu2   2.796996 S    
C23   C24   1.574007 S    
C26   N2    1.508800 S    
C7    C11   1.600244 S    
C18   H8    1.114009 S    
C4    C9    1.420731 S    
C38   O16   1.222291 D    
O1    C1    1.329438 A    
C6    H1    1.111590 S    
O4    C2    1.327003 A    
O7    C4    1.327177 A    
C42   H28   1.085898 S    
C27   H15   1.105495 S    
C30   C38   1.520251 S    
H12   C24   1.102615 S    
C11   C14   1.469022 S    
C31   O9    1.224067 D    
O5    C3    1.355957 A    
C12   H3    1.110683 S    
C20   C23   1.638296 S    
C20   C44   1.521905 S    
C38   H24   1.083360 S    
C5    C10   1.571033 S    
C2    C16   1.419888 S    
C6    C7    1.577346 S    
C10   C13   1.594004 S    
H11   C24   1.106222 S    
C17   H5    1.113808 S    
C34   H20   1.079573 S    
C18   C20   1.569244 S    
C39   O17   1.220801 D    
C29   C37   1.522609 S    
C25   N1    1.501138 S    
C43   O21   1.213622 D    
C35   O13   1.223492 D    
O3    Cu1   1.918706 S    
C25   C33   1.546322 S    
C44   H30   1.084512 S    
C37   O15   1.219803 D    
C30   N2    1.537033 S    
C20   C32   1.531737 S    
H10   C21   1.107994 S    
C5    H2    1.108380 S    
C1    C22   1.497870 S    
C17   C22   1.520313 S    
C36   O14   1.219910 D    
C33   H19   1.070069 S    
C28   H16   1.109003 S    
C7    C39   1.529677 S    
C12   C13   1.579423 S    
C25   C35   1.523513 S    
O3    C2    1.326656 A    
H9    C21   1.113615 S    
C27   I3    2.176126 S    
C33   O11   1.216407 D    
C32   O10   1.223425 D    
Cu1   O7    1.929356 S    
C21   C22   1.553538 S    
C8    I1    2.186596 S    
C25   C26   1.643980 S    
Cu2   O8    1.918647 S    
C40   O18   1.224277 D    
C18   C22   1.553439 S    
C28   N2    1.526480 S    
C36   H22   1.066590 S    
O8    C4    1.325320 A    
C13   C41   1.523884 S    
C42   O20   1.220707 D    
C10   C15   1.470435 S    
C17   H7    1.116735 S    
C19   C23   1.633127 S    
C5    I5    2.177177 S    
Cu1   O5    2.031553 S    
C6    C10   1.568946 S    
C11   C12   1.568936 S    
O1    Cu1   2.022215 S    
O2    Cu2   2.031119 S    
C26   C34   1.491095 S    
O6    C3    1.343346 A    
C28   I4    2.199239 S    
Cu2   N1    2.101927 S    
O4    Cu2   1.929365 S    
C19   C31   1.513378 S    
C41   O19   1.221761 D    
C8    C40   1.529350 S    
C32   H18   1.075178 S    
O2    C1    1.330274 A    
C29   C30   1.623757 S    
C19   C43   1.530915 S    
C8    C11   1.595620 S    
C27   N1    1.535010 S    
C40   H26   1.086554 S    
C29   H13   1.101695 S    
C31   H17   1.077935 S    
C21   C24   1.556369 S    
C12   H4    1.105595 S    
C7    I2    2.175677 S    
C17   C19   1.546191 S    
C13   C42   1.531281 S    
Cu2   O6    2.022650 S    
C27   C28   1.586417 S    
C15   C16   1.198133 T    
C6    I6    2.176751 S    
C34   O12   1.212019 D    
Cu1   N2    2.100346 S    
C29   N1    1.532418 S    
C39   H25   1.085537 S    
C30   H14   1.109283 S    
C18   H6    1.112165 S    
