data_mof_unit_54900.cif
_audit_creation_date              2012-12-10T17:14:26-0500
_audit_creation_method            fapswitch 2.2
_symmetry_space_group_name_H-M    P1
_symmetry_Int_Tables_number       1
_space_group_crystal_system       triclinic
_cell_length_a                    15.104805
_cell_length_b                    14.399678
_cell_length_c                    10.222716
_cell_angle_alpha                 89.99893
_cell_angle_beta                  84.388614
_cell_angle_gamma                 89.998443
_cell_volume                      2212.83000947

loop_
_atom_site_label
_atom_site_type_symbol
_atom_type_description
_atom_site_fract_x
_atom_site_fract_y
_atom_site_fract_z
_atom_type_partial_charge
C1    C     C_R   0.388989 0.124554 0.550900 0.854120
C2    C     C_2   0.510399 0.983094 0.071038 0.206333
C3    C     C_2   0.989603 0.483089 0.928963 0.206343
C4    C     C_2   0.010390 0.483068 0.071035 0.206369
C5    C     C_2   0.306191 0.821490 0.582735 -0.302760
C6    C     C_2   0.666590 0.207686 0.430404 -0.296886
C7    C     C_2   0.693808 0.821486 0.417264 -0.302716
C8    C     C_2   0.333417 0.207698 0.569579 -0.296957
C9    C     C_2   0.806179 0.321505 0.582743 -0.302718
C10   C     C_2   0.166585 0.707693 0.430414 -0.296894
C11   C     C_2   0.193810 0.321486 0.417273 -0.302682
C12   C     C_R   0.615996 0.880860 0.446646 0.948600
C13   C     C_2   0.833418 0.707700 0.569581 -0.296880
C14   C     C_2   0.229197 0.844746 0.531448 -0.105791
C15   C     C_2   0.658559 0.275430 0.524334 -0.117728
C16   C     C_2   0.770806 0.844750 0.468526 -0.105751
C17   C     C_2   0.341453 0.275437 0.475639 -0.117804
C18   C     C_2   0.729199 0.344747 0.531407 -0.105763
C19   C     C_2   0.158558 0.775427 0.524363 -0.117791
C20   C     C_2   0.270809 0.344754 0.468534 -0.105768
C21   C     C_2   0.841446 0.775431 0.475627 -0.117776
C22   C     C_2   0.580780 0.282990 0.625379 0.534102
C23   C     C_R   0.611012 0.124551 0.449096 0.854056
C24   C     C_2   0.211489 0.939743 0.482193 0.538778
C25   C     C_2   0.419237 0.282987 0.374606 0.534390
C26   C     C_2   0.788511 0.939752 0.517755 0.538667
C27   C     C_2   0.080775 0.782986 0.625398 0.534223
C28   C     C_2   0.711505 0.439729 0.482084 0.538680
C29   C     C_2   0.919223 0.782971 0.374582 0.534308
C30   C     C_2   0.288521 0.439764 0.517734 0.538575
C31   C     C_2   0.735873 0.211272 0.316546 0.483025
C32   C     C_2   0.316587 0.732939 0.654802 0.496858
C33   C     C_2   0.264132 0.211296 0.683428 0.483021
C34   C     C_R   0.384001 0.880864 0.553356 0.948595
C35   C     C_2   0.683411 0.732926 0.345230 0.496837
C36   C     C_2   0.235853 0.711300 0.316538 0.483057
C37   C     C_2   0.816548 0.232984 0.654896 0.496915
C38   C     C_2   0.764147 0.711312 0.683451 0.483100
C39   C     C_2   0.183410 0.232920 0.345250 0.496866
C40   C     C_R   0.888989 0.624555 0.550901 0.854066
C41   C     C_R   0.115998 0.380862 0.446646 0.948557
C42   C     C_R   0.111009 0.624554 0.449098 0.854030
C43   C     C_R   0.883997 0.380869 0.553359 0.948540
C44   C     C_2   0.489612 0.983065 0.928965 0.206327
H1    H     H_    0.320528 0.012911 0.191095 0.211887
H2    H     H_    0.252869 0.997847 0.504393 0.053511
H3    H     H_    0.479138 0.243633 0.383316 0.039924
H4    H     H_    0.747152 0.997859 0.495481 0.053428
H5    H     H_    0.020887 0.743600 0.616731 0.039973
H6    H     H_    0.752860 0.497847 0.504327 0.053451
H7    H     H_    0.979139 0.743647 0.383320 0.039942
H8    H     H_    0.247126 0.497856 0.495521 0.053390
H9    H     H_    0.776828 0.272640 0.297754 0.098991
H10   H     H_    0.260212 0.687304 0.678910 0.074055
H11   H     H_    0.223273 0.272722 0.702322 0.098936
H12   H     H_    0.377388 0.113229 0.180174 0.217590
H13   H     H_    0.739801 0.687348 0.320987 0.074143
H14   H     H_    0.276856 0.772651 0.297814 0.098901
H15   H     H_    0.760184 0.187321 0.678907 0.074078
H16   H     H_    0.723194 0.772693 0.702234 0.098968
H17   H     H_    0.239786 0.187298 0.321108 0.074085
H18   H     H_    0.620367 0.901588 0.033783 0.191970
H19   H     H_    0.639670 0.008651 0.095975 0.238308
H20   H     H_    0.379725 0.901450 0.966246 0.191973
H21   H     H_    0.360315 0.008482 0.904018 0.238192
H22   H     H_    0.120292 0.401469 0.033757 0.191933
H23   H     H_    0.679426 0.013251 0.808660 0.212026
H24   H     H_    0.139682 0.508504 0.095980 0.238284
H25   H     H_    0.879653 0.401562 0.966220 0.192031
H26   H     H_    0.860325 0.508622 0.904028 0.238279
H27   H     H_    0.622344 0.113404 0.820055 0.217560
H28   H     H_    0.820568 0.513213 0.191331 0.212010
H29   H     H_    0.877618 0.613383 0.179947 0.217582
H30   H     H_    0.179466 0.512963 0.808871 0.211881
H31   H     H_    0.122565 0.613258 0.819853 0.217587
H32   H     H_    0.520886 0.243619 0.616706 0.039956
N1    N     N_2   0.549450 0.000000 0.831550 -0.089696
N2    N     N_3   0.403831 0.951943 0.898368 -0.367688
N3    N     N_3   0.096176 0.451959 0.101634 -0.367717
N4    N     N_3   0.903798 0.452047 0.898357 -0.367624
N5    N     N_2   0.450550 0.000000 0.168450 -0.089676
N6    N     N_2   0.049450 0.500000 0.831550 -0.089683
N7    N     N_2   0.950550 0.500000 0.168450 -0.089691
N8    N     N_3   0.374404 0.046790 0.139829 -0.419499
N9    N     N_3   0.625526 0.046918 0.860157 -0.419513
N10   N     N_3   0.874459 0.546896 0.139840 -0.419524
N11   N     N_3   0.125582 0.546812 0.860168 -0.419455
N12   N     N_3   0.596210 0.952068 0.101646 -0.367712
O1    O     O_R   0.398960 0.091100 0.433300 -0.661024
O2    O     O_R   0.569290 0.908910 0.353790 -0.536449
O3    O     O_R   0.569290 0.091090 0.353790 -0.567856
O4    O     O_R   0.430710 0.908910 0.646210 -0.536370
O5    O     O_R   0.930710 0.591090 0.646210 -0.567866
O6    O     O_R   0.069290 0.408910 0.353790 -0.536423
O7    O     O_R   0.069290 0.591090 0.353790 -0.567809
O8    O     O_R   0.930710 0.408910 0.646210 -0.536315
O9    O     O_2   0.582725 0.335265 0.719139 -0.510671
O10   O     O_2   0.148777 0.954082 0.418038 -0.514156
O11   O     O_2   0.417290 0.335234 0.280817 -0.510670
O12   O     O_R   0.601040 0.908900 0.566700 -0.626139
O13   O     O_2   0.851189 0.954087 0.581984 -0.514217
O14   O     O_2   0.082702 0.835286 0.719135 -0.510554
O15   O     O_2   0.648837 0.454037 0.417817 -0.514150
O16   O     O_2   0.917251 0.835172 0.280745 -0.510745
O17   O     O_2   0.351256 0.454129 0.581855 -0.514105
O18   O     O_2   0.747724 0.145260 0.241899 -0.546221
O19   O     O_2   0.388852 0.710127 0.688471 -0.500073
O20   O     O_2   0.252163 0.145227 0.757938 -0.546195
O21   O     O_2   0.611129 0.710037 0.311760 -0.500131
O22   O     O_2   0.247627 0.645333 0.241784 -0.546193
O23   O     O_R   0.601040 0.091100 0.566700 -0.661040
O24   O     O_2   0.888776 0.210234 0.688763 -0.500099
O25   O     O_2   0.752307 0.645310 0.758119 -0.546220
O26   O     O_2   0.111141 0.210077 0.311665 -0.500140
O27   O     O_R   0.398960 0.908900 0.433300 -0.626214
O28   O     O_R   0.898960 0.591100 0.433300 -0.661039
O29   O     O_R   0.101040 0.408900 0.566700 -0.626154
O30   O     O_R   0.101040 0.591100 0.566700 -0.661064
O31   O     O_R   0.898960 0.408900 0.433300 -0.626200
O32   O     O_R   0.430710 0.091090 0.646210 -0.567945
Zn1   Zn    Zn3+2 0.478810 0.000000 0.357840 0.974589
Zn2   Zn    Zn3+2 0.521190 0.000000 0.642160 0.974599
Zn3   Zn    Zn3+2 0.978810 0.500000 0.357840 0.974614
Zn4   Zn    Zn3+2 0.021190 0.500000 0.642160 0.974630

loop_
_geom_bond_atom_site_label_1
_geom_bond_atom_site_label_2
_ccdc_geom_bond_type
C33   H11   S    
C15   C18   S    
C16   C21   S    
O27   Zn1   S    
O28   Zn3   S    
H19   N12   S    
C10   C42   S    
C1    C8    S    
O5    Zn4   S    
C22   H32   S    
C40   O5    A    
C20   C30   S    
H22   N3    S    
O1    Zn1   S    
C24   O10   D    
C12   O2    A    
C44   N1    D    
O29   Zn4   S    
C36   H14   S    
C26   O13   D    
C14   C24   S    
N6    N11   S    
C17   C20   S    
N6    Zn4   S    
C13   C40   S    
N1    Zn2   S    
C6    C15   D    
H27   N9    S    
C28   H6    S    
C25   O11   D    
C15   C22   S    
C2    C44   S    
C37   O24   D    
C32   O19   D    
C2    N12   S    
H30   N11   S    
C19   C27   S    
C25   H3    S    
C35   O21   D    
C26   H4    S    
C5    C32   S    
O6    Zn3   S    
H24   N3    S    
C6    C31   S    
N1    N9    S    
C22   O9    D    
O23   Zn2   S    
C33   O20   D    
H20   N2    S    
C3    N4    S    
C32   H10   S    
O32   Zn2   S    
H12   N8    S    
C16   C26   S    
C7    C12   S    
C39   H17   S    
C11   C20   D    
H23   N9    S    
C9    C43   S    
O8    Zn4   S    
H26   N4    S    
C42   O7    A    
C18   C28   S    
C4    N3    S    
C38   O25   D    
C42   O30   A    
C34   O27   A    
H18   N12   S    
C29   O16   D    
N5    Zn1   S    
C1    O32   A    
O4    Zn2   S    
C41   O6    A    
C10   C19   D    
C39   O26   D    
C5    C34   S    
C3    N6    D    
C9    C37   S    
C43   O8    A    
C13   C38   S    
C13   C21   D    
O30   Zn4   S    
C31   H9    S    
C11   C39   S    
C5    C14   D    
C37   H15   S    
C38   H16   S    
H31   N11   S    
C7    C16   D    
C30   O17   D    
C36   O22   D    
C31   O18   D    
C23   O3    A    
H1    N8    S    
C3    C4    S    
N5    N8    S    
C29   H7    S    
O7    Zn3   S    
C30   H8    S    
C1    O1    A    
H21   N2    S    
C7    C35   S    
C14   C19   S    
C2    N5    D    
H28   N10   S    
O31   Zn3   S    
C23   O23   A    
C27   O14   D    
C8    C17   D    
C35   H13   S    
C17   C25   S    
C44   N2    S    
C24   H2    S    
C28   O15   D    
C40   O28   A    
C4    N7    D    
C21   C29   S    
C6    C23   S    
O2    Zn1   S    
C11   C41   S    
O12   Zn2   S    
C8    C33   S    
C34   O4    A    
H29   N10   S    
C12   O12   A    
C9    C18   D    
N7    N10   S    
O3    Zn1   S    
H25   N4    S    
C10   C36   S    
C41   O29   A    
N7    Zn3   S    
C27   H5    S    
C43   O31   A    
