data_mof_unit_45208.cif
_audit_creation_date              2012-12-10T20:11:15-0500
_audit_creation_method            fapswitch 2.2
_symmetry_space_group_name_H-M    P1
_symmetry_Int_Tables_number       1
_space_group_crystal_system       triclinic
_cell_length_a                    15.882887
_cell_length_b                    15.885321
_cell_length_c                    51.668047
_cell_angle_alpha                 89.98708
_cell_angle_beta                  89.993761
_cell_angle_gamma                 89.976527
_cell_volume                      13036.0926129

loop_
_atom_site_label
_atom_site_type_symbol
_atom_type_description
_atom_site_fract_x
_atom_site_fract_y
_atom_site_fract_z
_atom_type_partial_charge
C1    C     C_R   0.059121 0.550689 0.636877 0.018038
C2    C     C_R   0.064893 0.457273 0.363320 0.017997
C3    C     C_R   0.457266 0.064915 0.636680 0.017975
C4    C     C_R   0.550697 0.059068 0.363114 0.018069
C5    C     C_R   0.940912 0.449313 0.636885 0.018051
C6    C     C_R   0.935082 0.542720 0.363318 0.017972
C7    C     C_R   0.542753 0.935141 0.636684 0.018009
C8    C     C_R   0.449317 0.940867 0.363122 0.018042
C9    C     C_R   0.564634 0.042910 0.136684 0.017306
C10   C     C_R   0.564181 0.959560 0.863770 0.016144
C11   C     C_R   0.949557 0.558741 0.136818 0.017924
C12   C     C_R   0.041518 0.566148 0.863329 0.017427
C13   C     C_R   0.434732 0.957724 0.136778 0.018555
C14   C     C_R   0.433631 0.044916 0.862988 0.014437
C15   C     C_R   0.051901 0.441235 0.136983 0.018092
C16   C     C_R   0.962301 0.432466 0.863486 0.018840
C17   C     C_R   0.495727 0.003259 0.986255 -0.086664
C18   C     C_R   0.496476 0.002812 0.013765 -0.086450
C19   C     C_R   0.002408 0.498827 0.986388 -0.086203
C20   C     C_R   0.002154 0.498976 0.013917 -0.085625
C21   C     C_R   0.000007 0.500011 0.486359 -0.086014
C22   C     C_R   0.000013 0.500013 0.513887 -0.085637
C23   C     C_R   0.499990 0.999985 0.486113 -0.085635
C24   C     C_R   0.499991 0.999997 0.513641 -0.086015
C25   C     C_R   0.459189 0.853343 0.986510 0.191169
C26   C     C_R   0.525878 0.154179 0.013789 0.184111
C27   C     C_R   0.153933 0.527845 0.986650 0.183770
C28   C     C_R   0.852343 0.461521 0.013486 0.183755
C29   C     C_R   0.533364 0.152999 0.986709 0.184529
C30   C     C_R   0.468234 0.851157 0.013511 0.179488
C31   C     C_R   0.851040 0.469006 0.986432 0.183453
C32   C     C_R   0.152128 0.535739 0.013692 0.184278
C33   C     C_R   0.024923 0.347764 0.486521 0.183144
C34   C     C_R   0.967239 0.650912 0.513549 0.183577
C35   C     C_R   0.650914 0.967221 0.486440 0.183575
C36   C     C_R   0.347719 0.024899 0.513493 0.183142
C37   C     C_R   0.975094 0.652259 0.486501 0.183140
C38   C     C_R   0.032789 0.349113 0.513568 0.183579
C39   C     C_R   0.349065 0.032745 0.486444 0.183578
C40   C     C_R   0.652262 0.975091 0.513487 0.183146
C41   C     C_R   0.064783 0.542411 0.609493 0.098565
C42   C     C_R   0.071092 0.469697 0.390528 0.102418
C43   C     C_R   0.469677 0.071110 0.609470 0.102428
C44   C     C_R   0.542399 0.064729 0.390498 0.098548
C45   C     C_R   0.935252 0.457606 0.609501 0.098563
C46   C     C_R   0.928889 0.530308 0.390528 0.102424
C47   C     C_R   0.530322 0.928939 0.609477 0.102422
C48   C     C_R   0.457598 0.935207 0.390507 0.098556
C49   C     C_R   0.570219 0.030959 0.109450 0.103173
C50   C     C_R   0.566732 0.968517 0.891212 0.092250
C51   C     C_R   0.957846 0.564150 0.109428 0.098355
C52   C     C_R   0.029552 0.571612 0.890572 0.101520
C53   C     C_R   0.427775 0.971050 0.109642 0.102674
C54   C     C_R   0.427861 0.036413 0.890322 0.090035
C55   C     C_R   0.044363 0.435670 0.109579 0.098129
C56   C     C_R   0.975997 0.426752 0.890643 0.101731
C57   C     C_R   0.000018 0.500012 0.595932 0.219649
C58   C     C_R   0.999992 0.500006 0.404212 0.209397
C59   C     C_R   0.499996 0.000023 0.595789 0.209388
C60   C     C_R   0.499994 0.999969 0.404068 0.219647
C61   C     C_R   0.498626 0.001435 0.095866 0.208434
C62   C     C_R   0.496470 0.002920 0.904278 0.230881
C63   C     C_R   0.001284 0.499867 0.095951 0.220473
C64   C     C_R   0.002819 0.499207 0.904270 0.211040
C65   C     C_R   0.000145 0.499939 0.820333 0.802991
C66   C     C_R   0.000075 0.500004 0.179728 0.809946
C67   C     C_R   0.499951 0.000337 0.820341 0.803396
C68   C     C_R   0.499994 0.000015 0.179701 0.805189
C69   C     C_R   0.500001 0.999991 0.320276 0.809618
C70   C     C_R   0.500001 0.000009 0.679689 0.804930
C71   C     C_R   0.999996 0.500000 0.320312 0.804844
C72   C     C_R   0.000004 0.500000 0.679723 0.809766
C73   C     C_R   0.839711 0.660295 0.749997 0.856068
C74   C     C_R   0.160273 0.339706 0.250007 0.851551
C75   C     C_R   0.339696 0.839706 0.750002 0.855864
C76   C     C_R   0.660285 0.160296 0.249994 0.851927
C77   C     C_R   0.160292 0.339700 0.749998 0.856384
C78   C     C_R   0.839720 0.660294 0.250004 0.851741
C79   C     C_R   0.660298 0.160302 0.750001 0.855507
C80   C     C_R   0.339720 0.839697 0.249995 0.851743
C81   C     C_R   0.839693 0.339710 0.249999 0.855923
C82   C     C_R   0.160301 0.660279 0.750002 0.852469
C83   C     C_R   0.339701 0.160285 0.250001 0.855736
C84   C     C_R   0.660288 0.839720 0.750000 0.854697
C85   C     C_R   0.160304 0.660296 0.249997 0.855901
C86   C     C_R   0.839697 0.339720 0.750006 0.852661
C87   C     C_R   0.660300 0.839710 0.250002 0.855938
C88   C     C_R   0.339706 0.160280 0.749997 0.855562
C89   C     C_R   0.000014 0.500000 0.650755 -0.121452
C90   C     C_R   0.999989 0.499997 0.349328 -0.128219
C91   C     C_R   0.500008 0.000024 0.650673 -0.128244
C92   C     C_R   0.500006 0.999973 0.349245 -0.121393
C93   C     C_R   0.499866 0.000167 0.150712 -0.128349
C94   C     C_R   0.499509 0.001836 0.849405 -0.121330
C95   C     C_R   0.000498 0.499992 0.150764 -0.120935
C96   C     C_R   0.001125 0.499637 0.849382 -0.130195
C97   C     C_1   0.776609 0.276621 0.750006 -0.180695
C98   C     C_1   0.223410 0.723398 0.249995 -0.160400
C99   C     C_1   0.723389 0.776627 0.749999 -0.181617
C100  C     C_1   0.276589 0.223389 0.250003 -0.160274
C101  C     C_1   0.223391 0.723378 0.749998 -0.180839
C102  C     C_1   0.776585 0.276607 0.249998 -0.160408
C103  C     C_1   0.276605 0.223369 0.749992 -0.182507
C104  C     C_1   0.723406 0.776605 0.250003 -0.160454
C105  C     C_1   0.776623 0.723387 0.250003 -0.180175
C106  C     C_1   0.223390 0.276589 0.749994 -0.161740
C107  C     C_1   0.723382 0.223388 0.249994 -0.180361
C108  C     C_1   0.276589 0.776602 0.750003 -0.160737
C109  C     C_1   0.223374 0.276612 0.250007 -0.180322
C110  C     C_1   0.776604 0.723404 0.749997 -0.161217
C111  C     C_1   0.276624 0.776605 0.249996 -0.180254
C112  C     C_1   0.723401 0.223409 0.750004 -0.160961
C113  C     C_R   0.516588 0.075350 0.945097 0.506114
C114  C     C_R   0.495978 0.927222 0.054742 0.504018
C115  C     C_R   0.927825 0.495485 0.945232 0.503454
C116  C     C_R   0.072700 0.523709 0.055114 0.501028
C117  C     C_R   0.474664 0.931279 0.945113 0.496509
C118  C     C_R   0.499466 0.077032 0.054938 0.503089
C119  C     C_R   0.077550 0.502420 0.945311 0.501683
C120  C     C_R   0.930698 0.475274 0.055035 0.500984
C121  C     C_R   0.999150 0.574936 0.445243 0.502802
C122  C     C_R   0.022489 0.428433 0.555045 0.501122
C123  C     C_R   0.428394 0.022426 0.444959 0.501111
C124  C     C_R   0.574931 0.999173 0.554749 0.502820
C125  C     C_R   0.000845 0.425082 0.445254 0.502813
C126  C     C_R   0.977550 0.571595 0.555037 0.501112
C127  C     C_R   0.571584 0.977513 0.444958 0.501124
C128  C     C_R   0.425055 0.000858 0.554755 0.502799
C129  C     C_R   0.475670 0.928505 0.972498 -0.109432
C130  C     C_R   0.506681 0.079237 0.027615 -0.105490
C131  C     C_R   0.079139 0.509348 0.972658 -0.107889
C132  C     C_R   0.927456 0.477930 0.027623 -0.110521
C133  C     C_R   0.515701 0.078205 0.972534 -0.115291
C134  C     C_R   0.487386 0.925850 0.027460 -0.108108
C135  C     C_R   0.925922 0.488126 0.972559 -0.107541
C136  C     C_R   0.076592 0.520185 0.027717 -0.110321
C137  C     C_R   0.008213 0.423120 0.472585 -0.107229
C138  C     C_R   0.980954 0.575135 0.527635 -0.110160
C139  C     C_R   0.575124 0.980926 0.472360 -0.110170
C140  C     C_R   0.423089 0.008206 0.527422 -0.107223
C141  C     C_R   0.991795 0.576901 0.472575 -0.107228
C142  C     C_R   0.019078 0.424892 0.527644 -0.110164
C143  C     C_R   0.424855 0.019031 0.472361 -0.110163
C144  C     C_R   0.576894 0.991799 0.527418 -0.107227
N1    N     N_R   0.494613 0.003605 0.932268 -0.333964
N2    N     N_R   0.498001 0.001926 0.067801 -0.338867
N3    N     N_R   0.002754 0.499197 0.932333 -0.338902
N4    N     N_R   0.001549 0.499680 0.067927 -0.337679
N5    N     N_R   0.999995 0.500008 0.432291 -0.338618
N6    N     N_R   0.000020 0.500014 0.567903 -0.337864
N7    N     N_R   0.499990 0.999967 0.432097 -0.337865
N8    N     N_R   0.499994 0.000021 0.567710 -0.338617
O1    O     O_3   1.000000 0.500000 0.750000 -0.467257
O2    O     O_3   1.000000 0.500000 0.250000 -0.467573
O3    O     O_3   0.500000 1.000000 0.750000 -0.467300
O4    O     O_3   0.500000 0.000000 0.250000 -0.467583
O5    O     O_R   1.000000 0.430630 0.807650 -0.648003
O6    O     O_R   1.000000 0.569370 0.192350 -0.649114
O7    O     O_R   0.569370 1.000000 0.807650 -0.648081
O8    O     O_R   0.430630 0.000000 0.192350 -0.648173
O9    O     O_R   1.000000 0.569370 0.807650 -0.647441
O10   O     O_R   0.000000 0.430630 0.192350 -0.649099
O11   O     O_R   0.430630 1.000000 0.807650 -0.647259
O12   O     O_R   0.569370 0.000000 0.192350 -0.648232
O13   O     O_R   0.500000 0.930630 0.307650 -0.649038
O14   O     O_R   0.500000 0.069370 0.692350 -0.648008
O15   O     O_R   0.069370 0.500000 0.307650 -0.648057
O16   O     O_R   0.930630 0.500000 0.692350 -0.648966
O17   O     O_R   0.500000 0.069370 0.307650 -0.648974
O18   O     O_R   0.500000 0.930630 0.692350 -0.647973
O19   O     O_R   0.930630 0.500000 0.307650 -0.648090
O20   O     O_R   0.069370 0.500000 0.692350 -0.648992
O21   O     O_R   0.902350 0.666510 0.764820 -0.639460
O22   O     O_R   0.097650 0.333490 0.235180 -0.639872
O23   O     O_R   0.333490 0.902350 0.764820 -0.639102
O24   O     O_R   0.666510 0.097650 0.235180 -0.640071
O25   O     O_R   0.097650 0.333490 0.764820 -0.639962
O26   O     O_R   0.902350 0.666510 0.235180 -0.639838
O27   O     O_R   0.666510 0.097650 0.764820 -0.639502
O28   O     O_R   0.333490 0.902350 0.235180 -0.639975
O29   O     O_R   0.902350 0.333490 0.235180 -0.638809
O30   O     O_R   0.097650 0.666510 0.764820 -0.640435
O31   O     O_R   0.333490 0.097650 0.235180 -0.639312
O32   O     O_R   0.666510 0.902350 0.764820 -0.640938
O33   O     O_R   0.097650 0.666510 0.235180 -0.638899
O34   O     O_R   0.902350 0.333490 0.764820 -0.640663
O35   O     O_R   0.666510 0.902350 0.235180 -0.639293
O36   O     O_R   0.333490 0.097650 0.764820 -0.640752
O37   O     O_R   0.402350 0.166510 0.264820 -0.638898
O38   O     O_R   0.597650 0.833490 0.735180 -0.640245
O39   O     O_R   0.833490 0.402350 0.264820 -0.639304
O40   O     O_R   0.166510 0.597650 0.735180 -0.639960
O41   O     O_R   0.597650 0.833490 0.264820 -0.638909
O42   O     O_R   0.402350 0.166510 0.735180 -0.640382
O43   O     O_R   0.166510 0.597650 0.264820 -0.639248
O44   O     O_R   0.833490 0.402350 0.735180 -0.639963
O45   O     O_R   0.402350 0.833490 0.735180 -0.639329
O46   O     O_R   0.597650 0.166510 0.264820 -0.639849
O47   O     O_R   0.833490 0.597650 0.735180 -0.638950
O48   O     O_R   0.166510 0.402350 0.264820 -0.640012
O49   O     O_R   0.597650 0.166510 0.735180 -0.639325
O50   O     O_R   0.402350 0.833490 0.264820 -0.639880
O51   O     O_R   0.166510 0.402350 0.735180 -0.638813
O52   O     O_R   0.833490 0.597650 0.264820 -0.640082
O53   O     O_2   0.538518 0.143257 0.931011 -0.605846
O54   O     O_2   0.501311 0.855236 0.068428 -0.592335
O55   O     O_2   0.856121 0.498116 0.931337 -0.591817
O56   O     O_2   0.139201 0.549432 0.069213 -0.595807
O57   O     O_2   0.456147 0.862258 0.931076 -0.590808
O58   O     O_2   0.494845 0.148605 0.068840 -0.592013
O59   O     O_2   0.149383 0.499836 0.931475 -0.593010
O60   O     O_2   0.863839 0.450056 0.069070 -0.596144
O61   O     O_2   0.004472 0.646595 0.431400 -0.592597
O62   O     O_2   0.046579 0.361197 0.569102 -0.595498
O63   O     O_2   0.361143 0.046493 0.430906 -0.595490
O64   O     O_2   0.646603 0.004510 0.568582 -0.592598
O65   O     O_2   0.995516 0.353421 0.431423 -0.592598
O66   O     O_2   0.953463 0.638832 0.569086 -0.595496
O67   O     O_2   0.638836 0.953437 0.430906 -0.595498
O68   O     O_2   0.353384 0.995531 0.568595 -0.592599
Zn1   Zn    Zn3+2 0.900880 0.500000 0.727850 0.962916
Zn2   Zn    Zn3+2 0.099120 0.500000 0.272150 0.961437
Zn3   Zn    Zn3+2 0.500000 0.900880 0.727850 0.961226
Zn4   Zn    Zn3+2 0.500000 0.099120 0.272150 0.962955
Zn5   Zn    Zn3+2 0.099120 0.500000 0.727850 0.962876
Zn6   Zn    Zn3+2 0.900880 0.500000 0.272150 0.961456
Zn7   Zn    Zn3+2 0.500000 0.099120 0.727850 0.960827
Zn8   Zn    Zn3+2 0.500000 0.900880 0.272150 0.963020
Zn9   Zn    Zn3+2 0.400880 1.000000 0.227850 0.961373
Zn10  Zn    Zn3+2 0.599120 1.000000 0.772150 0.960333
Zn11  Zn    Zn3+2 0.000000 0.400880 0.227850 0.963084
Zn12  Zn    Zn3+2 0.000000 0.599120 0.772150 0.960547
Zn13  Zn    Zn3+2 0.599120 1.000000 0.227850 0.961344
Zn14  Zn    Zn3+2 0.400880 1.000000 0.772150 0.961075
Zn15  Zn    Zn3+2 0.000000 0.599120 0.227850 0.963124
Zn16  Zn    Zn3+2 1.000000 0.400880 0.772150 0.959797
N9    N     N_2   0.431389 0.778233 0.974080 -0.275345
H1    H     H_    0.380165 0.781599 0.961883 0.253676
C145  C     C_3   0.493985 0.714186 0.968810 -0.685559
H2    H     H_    0.504770 0.709313 0.947636 0.255119
H3    H     H_    0.470773 0.652639 0.976040 0.231659
H4    H     H_    0.554930 0.728412 0.978466 0.224067
N10   N     N_2   0.543777 0.231727 0.026533 -0.274756
H5    H     H_    0.497153 0.256133 0.038175 0.266499
C146  C     C_3   0.629272 0.241686 0.035684 -0.695705
H6    H     H_    0.643857 0.194429 0.050865 0.241154
H7    H     H_    0.637215 0.305650 0.043969 0.233006
H8    H     H_    0.674319 0.234329 0.019388 0.227997
N11   N     N_2   0.232552 0.542797 0.974156 -0.274129
H9    H     H_    0.255498 0.495416 0.962524 0.266154
C147  C     C_3   0.246178 0.627988 0.965186 -0.699243
H10   H     H_    0.199432 0.645064 0.950092 0.244609
H11   H     H_    0.310350 0.633318 0.956842 0.235509
H12   H     H_    0.240965 0.672873 0.981595 0.227108
N12   N     N_2   0.775635 0.437401 0.025741 -0.276120
H13   H     H_    0.778248 0.386843 0.038195 0.261663
C148  C     C_3   0.720648 0.505873 0.033196 -0.685942
H14   H     H_    0.751132 0.545942 0.048099 0.251560
H15   H     H_    0.661203 0.479989 0.041222 0.227071
H16   H     H_    0.704939 0.545202 0.016083 0.227039
N13   N     N_2   0.561962 0.228405 0.974573 -0.276559
H17   H     H_    0.610811 0.222867 0.961575 0.260381
C149  C     C_3   0.497656 0.289638 0.968294 -0.689094
H18   H     H_    0.527815 0.348224 0.961141 0.227528
H19   H     H_    0.459911 0.305401 0.985731 0.228829
H20   H     H_    0.455216 0.265031 0.953042 0.246294
N14   N     N_2   0.452879 0.772672 0.026029 -0.271066
H21   H     H_    0.500676 0.748950 0.037352 0.268494
C150  C     C_3   0.368143 0.760280 0.035560 -0.699809
H22   H     H_    0.362257 0.695889 0.043702 0.232898
H23   H     H_    0.322112 0.766979 0.019501 0.226105
H24   H     H_    0.353131 0.806707 0.050939 0.243270
N15   N     N_2   0.772953 0.452624 0.973801 -0.273163
H25   H     H_    0.749253 0.499655 0.962174 0.266872
C151  C     C_3   0.761181 0.367263 0.964748 -0.695290
H26   H     H_    0.697211 0.360681 0.956352 0.232627
H27   H     H_    0.767180 0.322327 0.981126 0.226686
H28   H     H_    0.808401 0.351331 0.949675 0.243061
N16   N     N_2   0.228860 0.559075 0.026062 -0.276465
H29   H     H_    0.226648 0.610048 0.038352 0.261933
C152  C     C_3   0.282573 0.490015 0.033877 -0.689988
H30   H     H_    0.342212 0.515254 0.041954 0.227315
H31   H     H_    0.298092 0.449862 0.016933 0.226258
H32   H     H_    0.251090 0.450949 0.048843 0.252075
N17   N     N_2   0.038410 0.268989 0.473967 -0.273348
H33   H     H_    0.990572 0.246952 0.462352 0.267099
C153  C     C_3   0.123326 0.253801 0.464964 -0.695142
H34   H     H_    0.140707 0.299541 0.449618 0.243485
H35   H     H_    0.127819 0.189114 0.456955 0.233242
H36   H     H_    0.168526 0.259293 0.481287 0.225853
N18   N     N_2   0.945917 0.728345 0.525862 -0.276064
H37   H     H_    0.894895 0.727682 0.538162 0.262343
C154  C     C_3   0.016377 0.780269 0.533598 -0.686713
H38   H     H_    0.054684 0.747902 0.548576 0.250991
H39   H     H_    0.992710 0.840622 0.541632 0.227847
H40   H     H_    0.056856 0.794556 0.516621 0.226451
N19   N     N_2   0.728356 0.945889 0.474122 -0.276071
H41   H     H_    0.727687 0.894871 0.461829 0.262336
C155  C     C_3   0.780299 0.016328 0.466372 -0.686672
H42   H     H_    0.747932 0.054631 0.451393 0.250997
H43   H     H_    0.840657 0.992655 0.458334 0.227843
H44   H     H_    0.794593 0.056804 0.483342 0.226455
N20   N     N_2   0.268934 0.038392 0.526053 -0.273352
H45   H     H_    0.246895 0.990569 0.537678 0.267100
C156  C     C_3   0.253744 0.123300 0.535044 -0.695139
H46   H     H_    0.299493 0.140689 0.550382 0.243480
H47   H     H_    0.189048 0.127798 0.543060 0.233247
H48   H     H_    0.259235 0.168484 0.518713 0.225865
N21   N     N_2   0.961604 0.731033 0.473937 -0.273352
H49   H     H_    0.009437 0.753067 0.462314 0.267100
C157  C     C_3   0.876685 0.746224 0.464942 -0.695131
H50   H     H_    0.872191 0.810909 0.456922 0.233240
H51   H     H_    0.831492 0.740740 0.481271 0.225861
H52   H     H_    0.859293 0.700481 0.449605 0.243487
N22   N     N_2   0.054120 0.271684 0.525890 -0.276079
H53   H     H_    0.105147 0.272351 0.538185 0.262341
C158  C     C_3   0.983667 0.219754 0.533640 -0.686699
H54   H     H_    0.007340 0.159404 0.541681 0.227838
H55   H     H_    0.943183 0.205463 0.516669 0.226458
H56   H     H_    0.945361 0.252120 0.548616 0.250997
N23   N     N_2   0.271621 0.054061 0.474127 -0.276067
H57   H     H_    0.272285 0.105070 0.461823 0.262340
C159  C     C_3   0.219685 0.983610 0.466395 -0.686702
H58   H     H_    0.159324 0.007272 0.458357 0.227851
H59   H     H_    0.205396 0.943145 0.483375 0.226448
H60   H     H_    0.252055 0.945301 0.451421 0.250996
N24   N     N_2   0.731048 0.961606 0.526045 -0.273355
H61   H     H_    0.753090 0.009438 0.537657 0.267100
C160  C     C_3   0.746236 0.876704 0.535052 -0.695142
H62   H     H_    0.810932 0.872211 0.543065 0.233240
H63   H     H_    0.740743 0.831508 0.518732 0.225865
H64   H     H_    0.700487 0.859330 0.550397 0.243478
C161  C     C_3   0.140038 0.577285 0.594444 -0.387047
C162  C     C_3   0.220861 0.528450 0.600928 -0.357715
C163  C     C_3   0.296843 0.565493 0.586898 -0.893734
H65   H     H_    0.287200 0.563245 0.565615 0.265848
H66   H     H_    0.306955 0.631802 0.592977 0.265734
H67   H     H_    0.353964 0.528369 0.591745 0.251380
H68   H     H_    0.233551 0.529237 0.622047 0.222528
H69   H     H_    0.213127 0.461669 0.594928 0.243128
H70   H     H_    0.131714 0.572260 0.573240 0.205393
H71   H     H_    0.147200 0.645857 0.597836 0.199455
C164  C     C_3   0.152939 0.451677 0.405140 -0.385560
C165  C     C_3   0.225330 0.507830 0.395552 -0.365067
C166  C     C_3   0.307672 0.486113 0.409249 -0.891571
H72   H     H_    0.301661 0.496866 0.430412 0.265460
H73   H     H_    0.324689 0.419267 0.405687 0.263363
H74   H     H_    0.358997 0.526607 0.401678 0.254563
H75   H     H_    0.235007 0.500773 0.374404 0.224092
H76   H     H_    0.209628 0.574883 0.399427 0.236129
H77   H     H_    0.147068 0.464463 0.426123 0.204544
H78   H     H_    0.169300 0.383896 0.403881 0.202646
C167  C     C_3   0.451630 0.152937 0.594850 -0.385538
C168  C     C_3   0.507791 0.225327 0.604418 -0.365098
C169  C     C_3   0.486041 0.307651 0.590716 -0.891542
H79   H     H_    0.496765 0.301638 0.569551 0.265455
H80   H     H_    0.419187 0.324657 0.594291 0.263360
H81   H     H_    0.526544 0.358975 0.598271 0.254561
H82   H     H_    0.500757 0.235004 0.625566 0.224087
H83   H     H_    0.574852 0.209638 0.600530 0.236135
H84   H     H_    0.464397 0.147063 0.573865 0.204545
H85   H     H_    0.383837 0.169286 0.596120 0.202657
C170  C     C_3   0.577254 0.139981 0.405537 -0.387058
C171  C     C_3   0.528416 0.220787 0.399040 -0.357694
C172  C     C_3   0.565436 0.296763 0.413063 -0.893727
H86   H     H_    0.563156 0.287126 0.434347 0.265849
H87   H     H_    0.631764 0.306879 0.406985 0.265722
H88   H     H_    0.528309 0.353870 0.408207 0.251367
H89   H     H_    0.529238 0.233470 0.377920 0.222537
H90   H     H_    0.461616 0.213050 0.405039 0.243116
H91   H     H_    0.572197 0.131667 0.426742 0.205390
H92   H     H_    0.645841 0.147144 0.402146 0.199453
C173  C     C_3   0.859996 0.422742 0.594460 -0.387058
C174  C     C_3   0.779172 0.471568 0.600948 -0.357698
C175  C     C_3   0.703190 0.434537 0.586925 -0.893732
H93   H     H_    0.712831 0.436803 0.565641 0.265852
H94   H     H_    0.693078 0.368222 0.593009 0.265720
H95   H     H_    0.646069 0.471656 0.591775 0.251369
H96   H     H_    0.766484 0.470760 0.622068 0.222531
H97   H     H_    0.786903 0.538355 0.594944 0.243121
H98   H     H_    0.868316 0.427787 0.573255 0.205388
H99   H     H_    0.852837 0.354166 0.597857 0.199453
C176  C     C_3   0.847046 0.548338 0.405145 -0.385545
C177  C     C_3   0.774654 0.492174 0.395576 -0.365088
C178  C     C_3   0.692315 0.513904 0.409275 -0.891542
H100  H     H_    0.698334 0.503179 0.430441 0.265454
H101  H     H_    0.675294 0.580745 0.405698 0.263354
H102  H     H_    0.640990 0.473398 0.401720 0.254565
H103  H     H_    0.764972 0.499209 0.374428 0.224087
H104  H     H_    0.790358 0.425126 0.399466 0.236137
H105  H     H_    0.852925 0.535571 0.426130 0.204545
H106  H     H_    0.830684 0.616118 0.403873 0.202652
C179  C     C_3   0.548351 0.847105 0.594869 -0.385568
C180  C     C_3   0.492207 0.774718 0.604461 -0.365064
C181  C     C_3   0.513925 0.692393 0.590765 -0.891569
H107  H     H_    0.503151 0.698404 0.569602 0.265460
H108  H     H_    0.580786 0.675385 0.594324 0.263367
H109  H     H_    0.473437 0.641070 0.598339 0.254559
H110  H     H_    0.499286 0.765040 0.625608 0.224091
H111  H     H_    0.425139 0.790409 0.600589 0.236127
H112  H     H_    0.535552 0.852971 0.573885 0.204546
H113  H     H_    0.616146 0.830758 0.596127 0.202645
C182  C     C_3   0.422731 0.859958 0.405558 -0.387035
C183  C     C_3   0.471586 0.779155 0.399078 -0.357724
C184  C     C_3   0.434551 0.703179 0.413110 -0.893732
H114  H     H_    0.436800 0.712822 0.434393 0.265847
H115  H     H_    0.368233 0.693057 0.407029 0.265736
H116  H     H_    0.471689 0.646073 0.408266 0.251379
H117  H     H_    0.470798 0.766466 0.377959 0.222529
H118  H     H_    0.538376 0.786899 0.405080 0.243128
H119  H     H_    0.427756 0.868281 0.426761 0.205394
H120  H     H_    0.354149 0.852786 0.402164 0.199458
C185  C     C_3   0.651912 0.048567 0.094719 -0.386733
C186  C     C_3   0.724103 0.991762 0.104109 -0.364491
C187  C     C_3   0.806303 0.013003 0.090268 -0.891783
H121  H     H_    0.799802 0.002468 0.069109 0.265247
H122  H     H_    0.823812 0.079698 0.093846 0.263321
H123  H     H_    0.857517 0.972086 0.097709 0.254648
H124  H     H_    0.734259 0.998534 0.125243 0.223964
H125  H     H_    0.707870 0.924871 0.100201 0.236168
H126  H     H_    0.645572 0.036071 0.073733 0.204077
H127  H     H_    0.668751 0.116200 0.096045 0.202525
C188  C     C_3   0.643762 0.941695 0.906969 -0.382976
C189  C     C_3   0.719002 0.999949 0.901653 -0.356881
C190  C     C_3   0.796909 0.971251 0.916511 -0.896792
H128  H     H_    0.784829 0.973093 0.937682 0.265664
H129  H     H_    0.814199 0.906125 0.910784 0.264110
H130  H     H_    0.850508 0.013731 0.912062 0.251555
H131  H     H_    0.734344 0.001634 0.880705 0.220418
H132  H     H_    0.702744 0.065085 0.907759 0.247631
H133  H     H_    0.632367 0.944088 0.928086 0.206778
H134  H     H_    0.659270 0.874605 0.903409 0.199023
C191  C     C_3   0.921856 0.638649 0.094268 -0.387006
C192  C     C_3   0.970129 0.720021 0.100420 -0.357214
C193  C     C_3   0.932011 0.795320 0.086307 -0.893948
H135  H     H_    0.933667 0.785109 0.065044 0.265838
H136  H     H_    0.865808 0.805117 0.092567 0.265755
H137  H     H_    0.968832 0.852826 0.090888 0.251289
H138  H     H_    0.969821 0.733223 0.121511 0.222399
H139  H     H_    0.036818 0.712682 0.094253 0.243897
H140  H     H_    0.926341 0.629758 0.073074 0.205521
H141  H     H_    0.853295 0.645314 0.097810 0.199304
C194  C     C_3   0.044358 0.653987 0.905222 -0.385762
C195  C     C_3   0.985060 0.724042 0.895769 -0.365354
C196  C     C_3   0.003171 0.806959 0.909604 -0.890884
H142  H     H_    0.992382 0.800190 0.930746 0.264352
H143  H     H_    0.069322 0.826684 0.906152 0.262853
H144  H     H_    0.960726 0.856728 0.902045 0.253152
H145  H     H_    0.991696 0.734406 0.874639 0.223348
H146  H     H_    0.918755 0.705398 0.899623 0.237248
H147  H     H_    0.032190 0.647413 0.926223 0.204904
H148  H     H_    0.111381 0.673144 0.903884 0.202125
C197  C     C_3   0.345457 0.953786 0.095209 -0.386304
C198  C     C_3   0.273261 0.009283 0.105305 -0.364393
C199  C     C_3   0.190484 0.987968 0.091814 -0.892651
H149  H     H_    0.195502 0.000172 0.070699 0.265682
H150  H     H_    0.174060 0.920797 0.095030 0.263459
H151  H     H_    0.139230 0.027604 0.099853 0.254651
H152  H     H_    0.264394 0.001168 0.126450 0.224338
H153  H     H_    0.288577 0.076562 0.101676 0.235528
H154  H     H_    0.350616 0.967780 0.074277 0.204292
H155  H     H_    0.329258 0.885931 0.096198 0.202838
C200  C     C_3   0.346577 0.057393 0.904730 -0.411871
C201  C     C_3   0.341483 0.150371 0.912969 -0.306864
C202  C     C_3   0.250352 0.179080 0.916169 -0.921383
H156  H     H_    0.216761 0.175689 0.897346 0.260442
H157  H     H_    0.217387 0.138868 0.930549 0.269525
H158  H     H_    0.248952 0.245279 0.923059 0.264116
H159  H     H_    0.373669 0.158457 0.931816 0.237808
H160  H     H_    0.373143 0.191965 0.898682 0.239601
H161  H     H_    0.291760 0.039006 0.892617 0.195388
H162  H     H_    0.339551 0.017458 0.922239 0.198056
C203  C     C_3   0.080652 0.361013 0.094564 -0.387499
C204  C     C_3   0.032126 0.279759 0.100677 -0.357436
C205  C     C_3   0.070058 0.204422 0.086545 -0.893224
H163  H     H_    0.068634 0.214802 0.065287 0.265674
H164  H     H_    0.136163 0.194294 0.092851 0.266436
H165  H     H_    0.032928 0.147054 0.091058 0.251244
H166  H     H_    0.032341 0.266465 0.121765 0.222364
H167  H     H_    0.965480 0.287318 0.094493 0.244002
H168  H     H_    0.076693 0.369734 0.073354 0.205452
H169  H     H_    0.149120 0.354273 0.098252 0.199160
C206  C     C_3   0.963591 0.343915 0.905284 -0.387038
C207  C     C_3   0.024162 0.275433 0.895515 -0.363850
C208  C     C_3   0.010540 0.192578 0.909887 -0.892548
H170  H     H_    0.022786 0.200892 0.930899 0.265650
H171  H     H_    0.944969 0.170057 0.907060 0.261304
H172  H     H_    0.054438 0.144144 0.902268 0.253298
H173  H     H_    0.015479 0.263945 0.874509 0.221942
H174  H     H_    0.090169 0.296497 0.898592 0.239818
H175  H     H_    0.976518 0.350649 0.926238 0.205124
H176  H     H_    0.897017 0.323115 0.904242 0.200239
C209  C     C_3   0.113071 0.616168 0.651088 -0.401669
C210  C     C_3   0.059047 0.688647 0.661710 -0.331400
C211  C     C_3   0.112987 0.753286 0.675951 -0.882375
H177  H     H_    0.145985 0.723213 0.692495 0.267267
H178  H     H_    0.160233 0.781177 0.662617 0.260958
H179  H     H_    0.072236 0.804506 0.683505 0.248034
H180  H     H_    0.026231 0.720366 0.645388 0.231635
H181  H     H_    0.010526 0.664910 0.675308 0.211856
H182  H     H_    0.150931 0.586541 0.666572 0.231689
H183  H     H_    0.161369 0.645242 0.638647 0.201385
C212  C     C_3   0.124818 0.395822 0.349697 -0.391191
C213  C     C_3   0.077723 0.318784 0.338992 -0.327291
C214  C     C_3   0.138143 0.257354 0.325881 -0.878512
H184  H     H_    0.171319 0.288763 0.309610 0.271417
H185  H     H_    0.185265 0.233626 0.339998 0.261367
H186  H     H_    0.102289 0.202949 0.318111 0.246480
H187  H     H_    0.045261 0.285823 0.355145 0.231556
H188  H     H_    0.029392 0.337807 0.324656 0.210345
H189  H     H_    0.161526 0.427877 0.334394 0.229535
H190  H     H_    0.173643 0.370770 0.362788 0.201656
C215  C     C_3   0.395812 0.124829 0.650306 -0.391190
C216  C     C_3   0.318761 0.077741 0.661023 -0.327288
C217  C     C_3   0.257329 0.138151 0.674139 -0.878627
H191  H     H_    0.288748 0.171313 0.690403 0.271421
H192  H     H_    0.233596 0.185273 0.660022 0.261394
H193  H     H_    0.202915 0.102303 0.681918 0.246419
H194  H     H_    0.285789 0.045294 0.644877 0.231558
H195  H     H_    0.337787 0.029410 0.675360 0.210342
H196  H     H_    0.427878 0.161522 0.665603 0.229538
H197  H     H_    0.370758 0.173654 0.637215 0.201660
C218  C     C_3   0.616201 0.113005 0.348896 -0.401660
C219  C     C_3   0.688684 0.058979 0.338271 -0.331442
C220  C     C_3   0.753354 0.112907 0.324027 -0.882271
H198  H     H_    0.723294 0.145926 0.307484 0.267247
H199  H     H_    0.781256 0.160125 0.337358 0.260937
H200  H     H_    0.804575 0.072156 0.316470 0.248095
H201  H     H_    0.720389 0.026144 0.354592 0.231648
H202  H     H_    0.664937 0.010486 0.324674 0.211856
H203  H     H_    0.586585 0.150875 0.333413 0.231708
H204  H     H_    0.645288 0.161279 0.361333 0.201385
C221  C     C_3   0.886969 0.383820 0.651105 -0.401679
C222  C     C_3   0.941005 0.311346 0.661732 -0.331405
C223  C     C_3   0.887071 0.246686 0.675978 -0.882354
H205  H     H_    0.854054 0.276741 0.692520 0.267261
H206  H     H_    0.839841 0.218790 0.662647 0.260953
H207  H     H_    0.927830 0.195471 0.683537 0.248035
H208  H     H_    0.973838 0.279646 0.645412 0.231641
H209  H     H_    0.989511 0.335086 0.675328 0.211868
H210  H     H_    0.849101 0.413432 0.666588 0.231695
H211  H     H_    0.838681 0.354742 0.638669 0.201390
C224  C     C_3   0.875148 0.604158 0.349688 -0.391203
C225  C     C_3   0.922232 0.681204 0.338970 -0.327263
C226  C     C_3   0.861801 0.742627 0.325856 -0.878533
H212  H     H_    0.828624 0.711216 0.309593 0.271415
H213  H     H_    0.814682 0.766351 0.339974 0.261359
H214  H     H_    0.897648 0.797036 0.318075 0.246481
H215  H     H_    0.954691 0.714167 0.355116 0.231554
H216  H     H_    0.970564 0.662189 0.324632 0.210350
H217  H     H_    0.838452 0.572093 0.334391 0.229530
H218  H     H_    0.826314 0.629200 0.362777 0.201659
C227  C     C_3   0.604233 0.875242 0.650310 -0.391191
C228  C     C_3   0.681267 0.922352 0.661017 -0.327267
C229  C     C_3   0.742724 0.861958 0.674133 -0.878646
H219  H     H_    0.711321 0.828777 0.690403 0.271389
H220  H     H_    0.766471 0.814853 0.660017 0.261392
H221  H     H_    0.797127 0.897823 0.681903 0.246434
H222  H     H_    0.714224 0.954822 0.644865 0.231558
H223  H     H_    0.662225 0.970668 0.675352 0.210359
H224  H     H_    0.572185 0.838526 0.665613 0.229535
H225  H     H_    0.629304 0.826437 0.637220 0.201656
C230  C     C_3   0.383836 0.886916 0.348911 -0.401664
C231  C     C_3   0.311336 0.940922 0.338286 -0.331423
C232  C     C_3   0.246695 0.886980 0.324046 -0.882256
H226  H     H_    0.276775 0.853992 0.307503 0.267261
H227  H     H_    0.218808 0.839737 0.337380 0.260937
H228  H     H_    0.195459 0.927717 0.316489 0.248092
H229  H     H_    0.279610 0.973728 0.354606 0.231640
H230  H     H_    0.335069 0.989438 0.324686 0.211860
H231  H     H_    0.413471 0.849066 0.333430 0.231697
H232  H     H_    0.354765 0.838621 0.361353 0.201381
C233  C     C_3   0.625068 0.103826 0.150291 -0.390762
C234  C     C_3   0.578521 0.181003 0.161155 -0.326935
C235  C     C_3   0.639463 0.241989 0.174208 -0.878260
H233  H     H_    0.672874 0.210229 0.190371 0.271780
H234  H     H_    0.686368 0.265667 0.160018 0.261321
H235  H     H_    0.603993 0.296467 0.182116 0.246318
H236  H     H_    0.545899 0.214296 0.145094 0.231433
H237  H     H_    0.530379 0.162091 0.175563 0.210364
H238  H     H_    0.661835 0.071345 0.165501 0.229356
H239  H     H_    0.673821 0.128746 0.137154 0.201668
C236  C     C_3   0.627776 0.901770 0.850131 -0.392805
C237  C     C_3   0.585200 0.822467 0.839214 -0.325871
C238  C     C_3   0.649086 0.764805 0.826038 -0.879368
H240  H     H_    0.680920 0.798497 0.809951 0.274714
H241  H     H_    0.697092 0.743136 0.840186 0.258772
H242  H     H_    0.616359 0.708845 0.818012 0.246035
H243  H     H_    0.554535 0.787370 0.855272 0.228117
H244  H     H_    0.535939 0.839101 0.824895 0.212282
H245  H     H_    0.663215 0.936165 0.835050 0.231153
H246  H     H_    0.678443 0.879523 0.862988 0.198440
C239  C     C_3   0.883802 0.612560 0.150983 -0.402318
C240  C     C_3   0.811316 0.558407 0.161519 -0.331718
C241  C     C_3   0.746579 0.612147 0.175813 -0.882419
H247  H     H_    0.776557 0.644837 0.192423 0.267085
H248  H     H_    0.718758 0.659629 0.162540 0.260899
H249  H     H_    0.695312 0.571312 0.183281 0.248155
H250  H     H_    0.779682 0.525826 0.145147 0.231495
H251  H     H_    0.835053 0.509700 0.175059 0.212080
H252  H     H_    0.913186 0.650374 0.166508 0.231893
H253  H     H_    0.854806 0.660945 0.138553 0.201274
C242  C     C_3   0.100332 0.628556 0.849672 -0.388286
C243  C     C_3   0.178785 0.584541 0.838658 -0.326097
C244  C     C_3   0.237940 0.647545 0.825723 -0.876771
H254  H     H_    0.205057 0.680712 0.809729 0.273326
H255  H     H_    0.260584 0.694522 0.840040 0.261275
H256  H     H_    0.293221 0.613835 0.817612 0.245668
H257  H     H_    0.213096 0.552480 0.854623 0.230617
H258  H     H_    0.161214 0.536249 0.824147 0.210736
H259  H     H_    0.066507 0.664582 0.834572 0.229023
H260  H     H_    0.123987 0.677877 0.862816 0.200942
C245  C     C_3   0.375411 0.895621 0.150361 -0.390904
C246  C     C_3   0.423174 0.818679 0.160887 -0.327721
C247  C     C_3   0.363350 0.756662 0.173983 -0.878571
H261  H     H_    0.330264 0.787562 0.190364 0.270944
H262  H     H_    0.316136 0.732971 0.159898 0.261629
H263  H     H_    0.399668 0.702291 0.181597 0.246595
H264  H     H_    0.455644 0.786200 0.144643 0.231779
H265  H     H_    0.471562 0.837738 0.175194 0.210237
H266  H     H_    0.338649 0.927117 0.165764 0.229527
H267  H     H_    0.326676 0.870495 0.137259 0.201912
C248  C     C_3   0.371319 0.102534 0.848731 -0.391011
C249  C     C_3   0.415388 0.180061 0.837147 -0.330593
C250  C     C_3   0.352055 0.239678 0.824547 -0.881906
H268  H     H_    0.316653 0.206601 0.809064 0.274341
H269  H     H_    0.306990 0.263872 0.839216 0.259170
H270  H     H_    0.385813 0.293929 0.815835 0.246672
H271  H     H_    0.449165 0.214481 0.852739 0.223350
H272  H     H_    0.462249 0.161376 0.822319 0.213531
H273  H     H_    0.335252 0.067489 0.833929 0.231859
H274  H     H_    0.321509 0.127200 0.861515 0.208453
C251  C     C_3   0.117401 0.387609 0.151333 -0.402021
C252  C     C_3   0.189468 0.441974 0.162024 -0.331828
C253  C     C_3   0.254230 0.388374 0.176359 -0.882360
H275  H     H_    0.224118 0.355242 0.192868 0.267006
H276  H     H_    0.282579 0.341265 0.163071 0.260936
H277  H     H_    0.305119 0.429377 0.183975 0.248165
H278  H     H_    0.221219 0.474894 0.145731 0.231545
H279  H     H_    0.165275 0.490404 0.175577 0.211980
H280  H     H_    0.087720 0.349742 0.166799 0.231852
H281  H     H_    0.146846 0.339273 0.138991 0.201247
C254  C     C_3   0.903644 0.369306 0.850109 -0.387447
C255  C     C_3   0.823894 0.412198 0.839569 -0.324593
C256  C     C_3   0.765296 0.348495 0.826730 -0.877955
H282  H     H_    0.797939 0.316601 0.810447 0.273858
H283  H     H_    0.744391 0.300540 0.840999 0.260295
H284  H     H_    0.708911 0.381385 0.819028 0.245842
H285  H     H_    0.789777 0.443140 0.855778 0.230969
H286  H     H_    0.839869 0.461251 0.825118 0.210854
H287  H     H_    0.937140 0.333875 0.834811 0.228883
H288  H     H_    0.881516 0.319498 0.863335 0.199338

loop_
_geom_bond_atom_site_label_1
_geom_bond_atom_site_label_2
_ccdc_geom_bond_type
C233  H239  S    
C29   C133  A    
N12   C148  S    
N19   C155  S    
C190  H128  S    
C197  H154  S    
N18   H37   S    
C21   C137  A    
C42   C58   A    
C235  H234  S    
C72   O16   A    
N20   C156  S    
C161  C162  S    
C24   C140  A    
C152  H32   S    
C218  H203  S    
C118  O58   S    
C185  C186  S    
C9    C233  S    
C72   O20   A    
O1    Zn5   S    
C176  H105  S    
C178  H100  S    
C193  H137  S    
C249  H271  S    
C253  H276  S    
C10   C94   A    
C210  H181  S    
C226  H214  S    
C149  H19   S    
C227  C228  S    
C223  H207  S    
C2    C90   A    
C16   C254  S    
C207  C208  S    
C35   C139  A    
C162  H68   S    
C65   C96   S    
C211  H177  S    
C33   C137  A    
C201  C202  S    
C79   O49   A    
C62   N1    S    
C219  H201  S    
C67   C94   S    
C153  H35   S    
O1    Zn12  S    
C8    C92   A    
C69   C92   S    
C207  H174  S    
O10   Zn11  S    
C26   C130  A    
O4    Zn8   S    
C232  H227  S    
C100  C109  T    
C113  C133  A    
C21   C22   A    
C23   C143  A    
C183  H118  S    
C20   C132  A    
C230  C231  S    
C104  C105  T    
C192  C193  S    
C116  N4    A    
C68   O12   A    
C189  H131  S    
C214  H185  S    
C200  C201  S    
C204  H166  S    
C163  H66   S    
C97   C112  T    
C85   O43   A    
C245  H267  S    
C99   C110  T    
C233  C234  S    
O13   Zn8   S    
C60   N7    S    
C121  O61   S    
O42   Zn7   S    
O2    Zn2   S    
C158  H56   S    
C61   N2    S    
C234  C235  S    
C163  H67   S    
O20   Zn5   S    
N20   H45   S    
C25   N9    S    
C45   C57   A    
C164  H78   S    
C200  H161  S    
C83   O31   A    
C55   C203  S    
C238  H240  S    
C166  H74   S    
C182  H120  S    
C8    C230  S    
C170  H91   S    
C251  C252  S    
O35   Zn13  S    
C125  N5    A    
C239  H253  S    
O30   Zn12  S    
O33   Zn15  S    
C33   N17   S    
C120  N4    A    
C76   C107  S    
C222  H208  S    
C150  H23   S    
C17   C133  A    
C256  H282  S    
C190  H130  S    
C79   O27   A    
C184  H116  S    
C13   C245  S    
C176  C177  S    
C48   C182  S    
C227  H225  S    
O51   Zn5   S    
C213  C214  S    
C221  H211  S    
O49   Zn7   S    
C165  H75   S    
C201  H160  S    
C15   C251  S    
C194  H147  S    
C26   N10   S    
C216  H195  S    
C215  H197  S    
C218  C219  S    
C251  H280  S    
C237  C238  S    
O50   Zn8   S    
C175  H93   S    
C208  H172  S    
C206  H175  S    
C179  C180  S    
C33   C38   A    
C225  C226  S    
C19   C20   A    
C35   C40   A    
C27   N11   S    
N17   C153  S    
O11   Zn14  S    
C172  H86   S    
C204  C205  S    
C168  H83   S    
C121  N5    A    
C174  H96   S    
N16   C152  S    
C70   O18   A    
C196  H142  S    
C248  C249  S    
C180  C181  S    
C47   C59   A    
C163  H65   S    
C241  H249  S    
C240  C241  S    
C146  H8    S    
C65   O9    A    
C198  H152  S    
C199  H150  S    
C222  C223  S    
C248  H274  S    
C67   O7    A    
C30   N14   S    
C159  H59   S    
C3    C215  S    
C19   C135  A    
C5    C89   A    
C126  O66   S    
C113  O53   S    
C66   C95   S    
C250  H269  S    
C212  H189  S    
C120  O60   S    
C244  H254  S    
O2    Zn11  S    
N14   C150  S    
O3    Zn3   S    
C70   C91   S    
O16   Zn1   S    
C217  H193  S    
C202  H158  S    
C73   C110  S    
C232  H226  S    
O3    Zn7   S    
N11   H9    S    
C208  H170  S    
C234  H236  S    
C3    C91   A    
C77   C106  S    
N18   C154  S    
C24   C144  A    
C74   O22   A    
C177  H104  S    
N13   H17   S    
C213  H188  S    
C171  C172  S    
C148  H14   S    
C252  H278  S    
C86   C97   S    
C174  C175  S    
C81   O39   A    
C237  H244  S    
C56   C206  S    
C86   O44   A    
C53   C61   A    
C128  N8    A    
O24   Zn13  S    
O14   Zn7   S    
C156  H47   S    
C55   C63   A    
C256  H284  S    
C119  C131  A    
C23   C24   A    
C187  H122  S    
C246  H265  S    
C198  C199  S    
C225  H216  S    
C117  C129  A    
C128  O68   S    
C43   C59   A    
C167  H84   S    
C10   C236  S    
O23   Zn14  S    
C7    C227  S    
C195  H146  S    
C71   O15   A    
C220  H198  S    
C46   C58   A    
C160  H63   S    
C249  C250  S    
C243  H257  S    
C226  H212  S    
O34   Zn16  S    
N21   C157  S    
C85   O33   A    
O28   Zn9   S    
C16   C96   A    
C216  H194  S    
C179  H113  S    
C84   O32   A    
C151  H28   S    
C9    C49   A    
C183  C184  S    
C87   O41   A    
C247  H262  S    
C231  H229  S    
C172  H88   S    
C50   C188  S    
N24   C160  S    
C162  C163  S    
C147  H12   S    
C87   O35   A    
C6    C90   A    
C34   C138  A    
C77   O25   A    
C191  H141  S    
O18   Zn3   S    
O1    Zn16  S    
C195  C196  S    
C28   C132  A    
C15   C55   A    
C171  H89   S    
C196  H144  S    
C16   C56   A    
O15   Zn2   S    
C154  H38   S    
C229  H220  S    
C224  C225  S    
O19   Zn6   S    
N16   H29   S    
C22   C142  A    
C17   C18   A    
C114  C134  A    
C209  H182  S    
C102  C107  T    
C145  H3    S    
C69   O17   A    
C20   C136  A    
C116  O56   S    
C32   N16   S    
N11   C147  S    
C205  H163  S    
O40   Zn5   S    
C169  H80   S    
C161  H71   S    
N23   H57   S    
C244  H256  S    
C157  H51   S    
C41   C161  S    
C71   O19   A    
C217  H191  S    
C36   N20   S    
C34   N18   S    
C175  H95   S    
C233  H238  S    
C189  C190  S    
C36   C39   A    
O45   Zn3   S    
C185  H127  S    
C212  C213  S    
C52   C194  S    
C152  H31   S    
C82   O30   A    
C119  O59   S    
C226  H213  S    
O4    Zn4   S    
C148  H16   S    
C151  H27   S    
C117  O57   S    
C216  C217  S    
C128  C140  A    
C53   C197  S    
C68   O8    A    
C177  H103  S    
C249  H272  S    
C126  N6    A    
C71   C90   S    
C115  C135  A    
C2    C42   A    
N15   C151  S    
C18   C134  A    
C211  H179  S    
C223  H206  S    
C155  H44   S    
C192  H139  S    
C235  H233  S    
C67   O11   A    
C75   C108  S    
C11   C95   A    
C165  C166  S    
C168  C169  S    
C220  H200  S    
C236  H246  S    
C188  H134  S    
C230  H232  S    
C200  H162  S    
C193  H136  S    
C146  H6    S    
C178  H101  S    
C2    C212  S    
C245  C246  S    
C123  O63   S    
C34   C37   A    
C238  H241  S    
C145  H2    S    
C28   N12   S    
C164  C165  S    
C47   C179  S    
C167  C168  S    
O37   Zn4   S    
C127  O67   S    
C149  H18   S    
C59   N8    S    
C11   C239  S    
C189  H132  S    
C37   C141  A    
C79   C112  S    
O2    Zn6   S    
C122  N6    A    
C221  C222  S    
C154  H40   S    
C180  H110  S    
C15   C95   A    
C181  H109  S    
C232  H228  S    
O17   Zn4   S    
C255  H286  S    
N10   H5    S    
C115  N3    A    
C37   N21   S    
C224  H218  S    
C66   O10   A    
C117  N1    A    
C160  H62   S    
C113  N1    A    
C158  H55   S    
C254  H288  S    
C80   O50   A    
C43   C167  S    
C164  H77   S    
O2    Zn15  S    
C170  C171  S    
C242  H260  S    
C166  H73   S    
C182  H119  S    
C173  H99   S    
O31   Zn9   S    
O44   Zn1   S    
C203  H169  S    
C239  H252  S    
C155  H43   S    
C101  C108  T    
C235  H235  S    
C199  H149  S    
C222  H209  S    
C150  H22   S    
C190  H129  S    
C197  H155  S    
C197  C198  S    
C77   O51   A    
C227  H224  S    
C12   C52   A    
O25   Zn16  S    
C13   C53   A    
C75   O45   A    
C203  C204  S    
C14   C248  S    
C123  N7    A    
C218  H204  S    
C21   C141  A    
C49   C61   A    
C75   O23   A    
C38   N22   S    
C121  C141  A    
C76   O24   A    
C51   C63   A    
C176  H106  S    
C65   O5    A    
C54   C200  S    
C52   C64   A    
C32   C136  A    
C253  H277  S    
C4    C44   A    
O3    Zn14  S    
C125  C137  A    
C228  H223  S    
C221  H210  S    
C210  H180  S    
C159  H58   S    
C13   C93   A    
C7    C47   A    
C103  C106  T    
O46   Zn4   S    
C229  H219  S    
C8    C48   A    
O1    Zn1   S    
N17   H33   S    
C118  C130  A    
O21   Zn12  S    
C153  H34   S    
N14   H21   S    
C7    C91   A    
C147  H10   S    
C153  H36   S    
C215  H196  S    
C174  H97   S    
C207  H173  S    
C231  H230  S    
C31   C135  A    
C241  H248  S    
C86   O34   A    
O39   Zn6   S    
C146  H7    S    
C198  H153  S    
C186  C187  S    
C183  H117  S    
O52   Zn6   S    
C31   N15   S    
O36   Zn14  S    
C188  H133  S    
C250  H268  S    
C245  H266  S    
C23   C139  A    
C25   C30   A    
C82   O40   A    
C27   C32   A    
C78   O26   A    
C84   C99   S    
C83   O37   A    
C28   C31   A    
C217  H192  S    
O43   Zn2   S    
C241  H247  S    
C181  H107  S    
O5    Zn16  S    
C116  C136  A    
C54   C62   A    
C22   C138  A    
O3    Zn10  S    
C234  H237  S    
O48   Zn2   S    
C172  H87   S    
C255  H285  S    
C41   C57   A    
N24   H61   S    
C76   O46   A    
O38   Zn3   S    
C205  H165  S    
C39   N23   S    
C5    C45   A    
C44   C60   A    
C165  H76   S    
C80   C111  S    
C243  C244  S    
C11   C51   A    
C252  H279  S    
C170  H92   S    
O32   Zn10  S    
C87   C104  S    
C122  O62   S    
C194  C195  S    
C208  H171  S    
C156  H46   S    
C150  H24   S    
C247  H261  S    
C256  H283  S    
O8    Zn9   S    
C12   C96   A    
C1    C209  S    
C14   C94   A    
C4    C92   A    
C125  O65   S    
C149  H20   S    
C157  H50   S    
C201  H159  S    
C115  O55   S    
C194  H148  S    
C27   C131  A    
N19   H41   S    
C12   C242  S    
C182  C183  S    
C81   O29   A    
C251  H281  S    
C155  H42   S    
C25   C129  A    
C177  C178  S    
C74   C109  S    
C236  H245  S    
C239  C240  S    
C202  H156  S    
C243  H258  S    
C253  H275  S    
N21   H49   S    
C206  H176  S    
C3    C43   A    
C214  H184  S    
C78   C105  S    
C80   O28   A    
C179  H112  S    
C40   N24   S    
C78   O52   A    
C70   O14   A    
O26   Zn15  S    
C147  H11   S    
C184  H115  S    
C205  H164  S    
C45   C173  S    
C168  H82   S    
N9    C145  S    
C191  H140  S    
C248  H273  S    
C215  C216  S    
C44   C170  S    
C171  H90   S    
C196  H143  S    
O27   Zn10  S    
C85   C98   S    
C202  H157  S    
O4    Zn9   S    
C188  C189  S    
C169  H79   S    
C255  C256  S    
N23   C159  S    
C199  H151  S    
C29   N13   S    
C223  H205  S    
C84   O38   A    
O47   Zn1   S    
C145  H4    S    
O22   Zn11  S    
C192  H138  S    
C58   N5    S    
C250  H270  S    
C127  N7    A    
C212  H190  S    
C6    C224  S    
C124  N8    A    
C161  H70   S    
C244  H255  S    
C38   C142  A    
C158  H54   S    
C127  C139  A    
C229  H221  S    
C48   C60   A    
C69   O13   A    
C81   C102  S    
C175  H94   S    
C19   C131  A    
C35   N19   S    
N22   C158  S    
C17   C129  A    
O7    Zn10  S    
C88   O42   A    
C118  N2    A    
C254  H287  S    
C114  N2    A    
C185  H126  S    
C242  C243  S    
N13   C149  S    
C213  H187  S    
C42   C164  S    
C30   C134  A    
C152  H30   S    
C51   C191  S    
C114  O54   S    
C148  H15   S    
C237  H243  S    
C162  H69   S    
O6    Zn15  S    
O9    Zn12  S    
C187  H121  S    
O4    Zn13  S    
C156  H48   S    
C57   N6    S    
C56   C64   A    
N15   H25   S    
C187  H123  S    
C246  H264  S    
C211  H178  S    
C225  H215  S    
C4    C218  S    
C36   C140  A    
C186  H124  S    
C167  H85   S    
C14   C54   A    
C151  H26   S    
C39   C143  A    
C195  H145  S    
C220  H199  S    
C64   N3    S    
C50   C62   A    
C160  H64   S    
C230  H231  S    
C122  C142  A    
C219  H202  S    
N12   H13   S    
C9    C93   A    
C63   N4    S    
C66   O6    A    
C88   C103  S    
C231  C232  S    
C124  O64   S    
C1    C41   A    
C210  C211  S    
C126  C138  A    
C214  H186  S    
C1    C89   A    
C98   C111  T    
C6    C46   A    
O12   Zn13  S    
C120  C132  A    
O41   Zn8   S    
C74   O48   A    
C240  H250  S    
C204  H167  S    
C186  H125  S    
C68   C93   S    
C40   C144  A    
C83   C100  S    
C159  H60   S    
C209  C210  S    
C178  H102  S    
C252  C253  S    
C119  N3    A    
N22   H53   S    
C236  C237  S    
C154  H39   S    
C180  H111  S    
C173  C174  S    
C72   C89   S    
C181  H108  S    
C49   C185  S    
O29   Zn11  S    
C240  H251  S    
C73   O47   A    
C238  H242  S    
C82   C101  S    
C224  H217  S    
C209  H183  S    
C247  H263  S    
C184  H114  S    
C228  H222  S    
C73   O21   A    
C246  C247  S    
C18   C130  A    
C193  H135  S    
C46   C176  S    
C88   O36   A    
C169  H81   S    
C5    C221  S    
C219  C220  S    
C206  C207  S    
C26   C29   A    
C191  C192  S    
C228  C229  S    
C157  H52   S    
C123  C143  A    
C124  C144  A    
N10   C146  S    
C242  H259  S    
C166  H72   S    
N9    H1    S    
C173  H98   S    
C254  C255  S    
C203  H168  S    
C10   C50   A    
