data_mof_unit_22656.cif
_audit_creation_date              2013-03-05T15:39:57-0500
_audit_creation_method            fapswitch 2.2
_symmetry_space_group_name_H-M    P1
_symmetry_Int_Tables_number       1
_space_group_crystal_system       triclinic
_cell_length_a                    10.873277
_cell_length_b                    8.713731
_cell_length_c                    7.49365
_cell_angle_alpha                 103.204176
_cell_angle_beta                  94.42327
_cell_angle_gamma                 92.843488
_cell_volume                      687.515066131

loop_
_atom_site_label
_atom_site_type_symbol
_atom_site_description
_atom_site_fract_x
_atom_site_fract_y
_atom_site_fract_z
_atom_type_partial_charge
O1    O     O_R   0.508930 0.286130 0.619780 -0.517545
O2    O     O_R   0.485720 0.256780 0.308360 -0.548773
C1    C     C_R   0.499953 0.200221 0.453644 0.920468
O3    O     O_R   0.333540 0.514670 0.655670 -0.523163
O4    O     O_R   0.310330 0.485320 0.344250 -0.572035
C2    C     C_R   0.265147 0.493538 0.500386 0.781287
Cu1   Cu    Cu3+1 0.513740 0.517380 0.684380 1.110746
Cu2   Cu    Cu3+1 0.486260 0.482620 0.315620 1.083739
O5    O     O_R   0.514280 0.743220 0.691640 -0.546163
O6    O     O_R   0.491070 0.713870 0.380220 -0.620125
O7    O     O_R   0.689670 0.514680 0.655750 -0.571358
O8    O     O_R   0.666460 0.485330 0.344330 -0.611260
C3    C     C_R   0.508936 0.800102 0.546852 0.752273
C4    C     C_R   0.734494 0.506482 0.499396 0.833582
C5    C     C_2   0.925260 0.490339 0.350544 -0.105553
C6    C     C_2   0.866821 0.527155 0.502691 -0.220933
H1    H     H_    0.874743 0.453813 0.215246 0.199096
H2    H     H_    0.917924 0.575136 0.635903 0.197387
C7    C     C_2   0.059785 0.509109 0.363777 -0.204740
C8    C     C_2   0.132333 0.468055 0.496953 0.249011
H3    H     H_    0.100049 0.560703 0.260842 0.197055
C9    C     C_2   0.498522 0.032390 0.430939 -0.421735
H4    H     H_    0.460954 0.960329 0.297734 0.185914
C10   C     C_2   0.530290 0.967808 0.572739 0.176966
N1    N     N_2   0.465540 0.456420 0.038510 0.027984
N2    N     N_2   0.534460 0.543580 0.961490 -0.189251
H5    H     H_    0.612111 0.597942 0.043016 0.202549
Cl1   Cl    Cl    0.076290 0.353061 0.644018 -0.493879
N3    N     N_R   0.593671 0.057176 0.743954 0.152784
O9    O     O_R   0.555161 0.043808 0.900220 -0.309384
O10   O     O_R   0.699027 0.134836 0.743614 -0.324186
N4    N     N_R   0.350551 0.403811 0.947053 0.307244
O11   O     O_R   0.257607 0.490251 0.985269 -0.313317
O12   O     O_R   0.328648 0.254435 0.869494 -0.284686

loop_
_geom_bond_atom_site_label_1
_geom_bond_atom_site_label_2
_geom_bond_distance
_ccdc_geom_bond_type
O4    Cu2   1.942001 S    
C5    C7    1.456923 S    
N3    O9    1.301250 A    
C2    C8    1.447520 S    
C7    C8    1.347539 D    
Cu2   O8    1.952952 S    
N4    O11   1.300880 A    
N1    N4    1.382225 S    
O2    C1    1.295693 A    
Cu1   Cu2   2.701565 S    
N3    O10   1.301765 A    
O1    Cu1   1.958955 S    
Cu1   O7    1.942001 S    
Cu2   N1    2.030064 S    
N2    H5    1.029102 S    
Cu1   N2    2.030064 S    
O3    Cu1   1.952950 S    
O3    C2    1.302321 A    
C7    H3    1.086179 S    
O8    C4    1.299047 A    
C4    C6    1.438765 S    
O4    C2    1.292026 A    
O7    C4    1.291797 A    
C9    C10   1.342004 D    
C5    C6    1.330964 D    
Cu1   O5    1.955902 S    
C6    H2    1.086634 S    
C5    H1    1.086412 S    
O5    C3    1.290379 A    
C10   N3    1.442714 S    
C1    C9    1.432327 S    
C8    Cl1   1.771269 S    
N1    N2    1.296926 D    
C9    H4    1.087590 S    
Cu2   O6    1.958955 S    
O2    Cu2   1.955903 S    
C3    C10   1.434210 S    
O1    C1    1.291548 A    
O6    C3    1.296538 A    
N4    O12   1.300393 A    
