data_mof_unit_63918.cif
_audit_creation_date              2012-12-10T19:00:38-0500
_audit_creation_method            fapswitch 2.2
_symmetry_space_group_name_H-M    P1
_symmetry_Int_Tables_number       1
_space_group_crystal_system       triclinic
_cell_length_a                    36.983317
_cell_length_b                    30.2514
_cell_length_c                    21.2979
_cell_angle_alpha                 90.044513
_cell_angle_beta                  54.952174
_cell_angle_gamma                 90.054222
_cell_volume                      19507.3541195

loop_
_atom_site_label
_atom_site_type_symbol
_atom_type_description
_atom_site_fract_x
_atom_site_fract_y
_atom_site_fract_z
_atom_type_partial_charge
C1    C     C_R   0.913684 0.499991 0.086525 0.888350
C2    C     C_R   0.086328 0.500021 0.913474 0.888523
C3    C     C_R   0.413685 0.999991 0.086525 0.888350
C4    C     C_R   0.586328 0.000021 0.913474 0.888522
C5    C     C_3   0.961363 0.485460 0.268209 0.195479
C6    C     C_3   0.038611 0.485412 0.731765 0.195065
C7    C     C_3   0.461364 0.985458 0.268208 0.195478
C8    C     C_3   0.538611 0.985411 0.731765 0.195064
C9    C     C_3   0.993287 0.458584 0.277858 -0.186555
C10   C     C_3   0.006652 0.458545 0.722085 -0.186388
C11   C     C_3   0.493290 0.958584 0.277855 -0.186554
C12   C     C_3   0.506651 0.958544 0.722087 -0.186388
C13   C     C_3   0.032352 0.474010 0.197904 0.187949
C14   C     C_3   0.967608 0.473958 0.802070 0.187802
C15   C     C_3   0.532354 0.974012 0.197902 0.187950
C16   C     C_3   0.467607 0.973959 0.802071 0.187803
C17   C     C_3   0.000297 0.500166 0.188843 -0.095131
C18   C     C_3   0.999700 0.500101 0.811157 -0.095100
C19   C     C_3   0.500297 0.000166 0.188843 -0.095131
C20   C     C_3   0.499700 0.000101 0.811157 -0.095100
C21   C     C_R   0.796556 0.539507 0.193686 0.170613
C22   C     C_R   0.203440 0.540207 0.802912 0.169945
C23   C     C_R   0.296556 0.039507 0.193686 0.170612
C24   C     C_R   0.703440 0.040207 0.802915 0.169946
C25   C     C_R   0.842529 0.539096 0.147401 -0.229927
C26   C     C_R   0.157469 0.539680 0.849361 -0.229834
C27   C     C_R   0.342529 0.039096 0.147401 -0.229928
C28   C     C_R   0.657469 0.039680 0.849364 -0.229833
C29   C     C_R   0.865660 0.499895 0.135257 -0.120271
C30   C     C_R   0.134376 0.500017 0.864729 -0.120788
C31   C     C_R   0.365660 0.999895 0.135257 -0.120270
C32   C     C_R   0.634376 0.000017 0.864729 -0.120789
C33   C     C_R   0.842888 0.460589 0.169916 -0.230908
C34   C     C_R   0.157222 0.460344 0.833231 -0.231299
C35   C     C_R   0.342888 0.960589 0.169916 -0.230909
C36   C     C_R   0.657222 0.960345 0.833228 -0.231298
C37   C     C_R   0.796925 0.459856 0.216583 0.171516
C38   C     C_R   0.203184 0.459708 0.786660 0.171182
C39   C     C_R   0.296924 0.959856 0.216583 0.171516
C40   C     C_R   0.703184 0.959708 0.786656 0.171182
C41   C     C_R   0.773736 0.499562 0.228133 0.005025
C42   C     C_R   0.226305 0.499904 0.771784 0.004877
C43   C     C_R   0.273736 0.999562 0.228133 0.005025
C44   C     C_R   0.726305 0.999904 0.771784 0.004876
C45   C     C_R   0.000273 0.500049 0.121354 0.869794
C46   C     C_R   0.999729 0.500022 0.878642 0.869734
C47   C     C_R   0.500273 0.000049 0.121355 0.869794
C48   C     C_R   0.499729 0.000022 0.878642 0.869735
C49   C     C_R   0.703413 0.495480 0.241024 -0.178498
C50   C     C_R   0.296588 0.497968 0.759187 -0.178264
C51   C     C_R   0.203413 0.995480 0.241024 -0.178497
C52   C     C_R   0.796588 0.997967 0.759187 -0.178263
C53   C     C_R   0.657637 0.495747 0.286233 -0.201653
C54   C     C_R   0.342358 0.498051 0.713980 -0.200769
C55   C     C_R   0.157637 0.995747 0.286233 -0.201653
C56   C     C_R   0.842358 0.998049 0.713979 -0.200770
C57   C     C_R   0.634349 0.499699 0.366137 -0.031015
C58   C     C_R   0.365662 0.499809 0.633860 -0.031028
C59   C     C_R   0.134349 0.999699 0.366137 -0.031015
C60   C     C_R   0.865662 0.999809 0.633860 -0.031028
C61   C     C_R   0.657283 0.503251 0.400338 -0.201011
C62   C     C_R   0.342749 0.501452 0.599457 -0.210932
C63   C     C_R   0.157283 0.003251 0.400338 -0.201010
C64   C     C_R   0.842748 0.001453 0.599457 -0.210933
C65   C     C_R   0.703045 0.503125 0.354988 -0.186316
C66   C     C_R   0.296995 0.501499 0.644789 -0.186133
C67   C     C_R   0.203045 0.003125 0.354988 -0.186317
C68   C     C_R   0.796995 0.001501 0.644789 -0.186133
C69   C     C_R   0.725890 0.499296 0.275576 0.113702
C70   C     C_R   0.274139 0.499764 0.724399 0.116571
C71   C     C_R   0.225890 0.999296 0.275576 0.113702
C72   C     C_R   0.774139 0.999763 0.724399 0.116570
C73   C     C_R   0.999992 0.365648 0.498186 -0.033392
C74   C     C_R   0.499992 0.865648 0.498186 -0.033392
C75   C     C_R   0.000039 0.273797 0.495277 0.151928
C76   C     C_R   0.500039 0.773797 0.495277 0.151928
C77   C     C_R   0.500035 0.273829 0.499927 0.078174
C78   C     C_R   0.000035 0.773828 0.499927 0.078174
C79   C     C_R   0.000012 0.585974 0.499993 0.883225
C80   C     C_R   0.500012 0.085974 0.499993 0.883222
C81   C     C_R   0.960099 0.342427 0.543437 -0.204181
C82   C     C_R   0.039874 0.342689 0.451063 -0.201796
C83   C     C_R   0.460099 0.842427 0.543437 -0.204180
C84   C     C_R   0.539874 0.842689 0.451063 -0.201795
C85   C     C_R   0.999968 0.500274 0.378406 0.886749
C86   C     C_R   0.000030 0.500271 0.621596 0.887378
C87   C     C_R   0.499968 0.000274 0.378406 0.886748
C88   C     C_R   0.500030 0.000271 0.621596 0.887378
C89   C     C_R   0.999992 0.413657 0.499669 0.865428
C90   C     C_R   0.499992 0.913657 0.499669 0.865427
C91   C     C_R   0.499109 0.633938 0.501114 -0.107719
C92   C     C_R   0.999109 0.133938 0.501114 -0.107719
C93   C     C_R   0.499999 0.586117 0.500074 0.931033
C94   C     C_R   0.999999 0.086117 0.500074 0.931033
C95   C     C_R   0.586333 0.500004 0.413757 0.865826
C96   C     C_R   0.413671 0.499931 0.586240 0.858376
C97   C     C_R   0.086333 0.000004 0.413757 0.865826
C98   C     C_R   0.913671 0.999931 0.586240 0.858375
C99   C     C_R   0.529791 0.657474 0.507325 0.158448
C100  C     C_R   0.468482 0.656412 0.493376 0.175818
C101  C     C_R   0.029791 0.157474 0.507326 0.158449
C102  C     C_R   0.968482 0.156412 0.493376 0.175817
C103  C     C_R   0.500004 0.413823 0.499975 0.924646
C104  C     C_R   0.000004 0.913823 0.499975 0.924645
C105  C     C_R   0.999802 0.702758 0.557131 -0.209592
C106  C     C_R   0.000284 0.702685 0.442752 -0.209608
C107  C     C_R   0.499803 0.202758 0.557130 -0.209593
C108  C     C_R   0.500284 0.202685 0.442752 -0.209605
C109  C     C_R   0.999920 0.656713 0.557807 0.128660
C110  C     C_R   0.000171 0.656640 0.442089 0.128604
C111  C     C_R   0.499921 0.156713 0.557807 0.128660
C112  C     C_R   0.500171 0.156640 0.442089 0.128604
C113  C     C_R   0.000039 0.633689 0.499959 -0.075730
C114  C     C_R   0.500039 0.133689 0.499959 -0.075732
C115  C     C_R   0.530301 0.703383 0.503987 -0.241001
C116  C     C_R   0.469547 0.702366 0.490185 -0.251569
C117  C     C_R   0.030301 0.203382 0.503988 -0.241001
C118  C     C_R   0.969547 0.202366 0.490185 -0.251568
C119  C     C_R   0.000037 0.725642 0.499942 0.067480
C120  C     C_R   0.500037 0.225642 0.499941 0.067479
C121  C     C_R   0.529736 0.296825 0.508565 -0.250657
C122  C     C_R   0.470340 0.296735 0.491259 -0.250554
C123  C     C_R   0.029736 0.796825 0.508566 -0.250658
C124  C     C_R   0.970340 0.796735 0.491258 -0.250553
C125  C     C_R   0.530412 0.342852 0.507646 0.168009
C126  C     C_R   0.469660 0.342763 0.492155 0.167742
C127  C     C_R   0.030412 0.842852 0.507647 0.168009
C128  C     C_R   0.969660 0.842763 0.492154 0.167742
C129  C     C_R   0.500029 0.365877 0.499911 -0.101236
C130  C     C_R   0.000029 0.865877 0.499911 -0.101236
C131  C     C_R   0.500179 0.725753 0.495839 0.044916
C132  C     C_R   0.000179 0.225753 0.495839 0.044916
C133  C     C_R   0.960147 0.296645 0.542030 -0.179766
C134  C     C_R   0.039871 0.296911 0.449576 -0.185440
C135  C     C_R   0.460147 0.796645 0.542030 -0.179766
C136  C     C_R   0.539871 0.796911 0.449576 -0.185440
C137  C     C_3   0.006851 0.541788 0.222583 -0.242594
C138  C     C_3   0.993188 0.541734 0.777484 -0.242560
C139  C     C_3   0.506848 0.041788 0.222586 -0.242593
C140  C     C_3   0.493190 0.041735 0.777482 -0.242559
C141  C     C_3   0.039397 0.515400 0.231753 -0.167900
C142  C     C_3   0.960609 0.515357 0.768283 -0.168033
C143  C     C_3   0.539396 0.015403 0.231754 -0.167900
C144  C     C_3   0.460609 0.015359 0.768283 -0.168034
C145  C     C_3   0.999940 0.500408 0.311021 -0.031841
C146  C     C_3   0.000048 0.500379 0.688988 -0.031902
C147  C     C_3   0.499940 0.000408 0.311021 -0.031841
C148  C     C_3   0.500048 0.000379 0.688988 -0.031903
C149  C     C_3   0.967446 0.527044 0.303141 -0.162556
C150  C     C_3   0.032573 0.527006 0.696904 -0.162643
C151  C     C_3   0.467444 0.027042 0.303143 -0.162558
C152  C     C_3   0.532574 0.027004 0.696903 -0.162644
H1    H     H_    0.071439 0.527572 0.218379 0.148238
H2    H     H_    0.928583 0.527538 0.781678 0.148204
H3    H     H_    0.571437 0.027577 0.218381 0.148237
H4    H     H_    0.428584 0.027541 0.781677 0.148204
H5    H     H_    0.721357 0.492343 0.179346 0.133681
H6    H     H_    0.278626 0.496475 0.821041 0.132952
H7    H     H_    0.221357 0.992343 0.179346 0.133681
H8    H     H_    0.778626 0.996472 0.821041 0.132952
H9    H     H_    0.640572 0.492773 0.258759 0.156975
H10   H     H_    0.359400 0.496673 0.741644 0.156552
H11   H     H_    0.140572 0.992773 0.258759 0.156975
H12   H     H_    0.859400 0.996670 0.741644 0.156552
H13   H     H_    0.639951 0.506342 0.461887 0.159314
H14   H     H_    0.360089 0.502862 0.537740 0.161052
H15   H     H_    0.139951 0.006342 0.461887 0.159314
H16   H     H_    0.860089 0.002865 0.537740 0.161052
H17   H     H_    0.720687 0.506191 0.381441 0.134516
H18   H     H_    0.279367 0.503009 0.618155 0.134448
H19   H     H_    0.220687 0.006191 0.381441 0.134516
H20   H     H_    0.779367 0.003012 0.618155 0.134449
H21   H     H_    0.928958 0.359541 0.580341 0.157212
H22   H     H_    0.071008 0.360015 0.415251 0.157214
H23   H     H_    0.428958 0.859541 0.580341 0.157211
H24   H     H_    0.571008 0.860015 0.415251 0.157214
H25   H     H_    0.553804 0.721593 0.508960 0.142023
H26   H     H_    0.446285 0.719864 0.483775 0.137062
H27   H     H_    0.053804 0.221593 0.508960 0.142023
H28   H     H_    0.946285 0.219864 0.483774 0.137061
H29   H     H_    0.998957 0.720884 0.601899 0.140521
H30   H     H_    0.001140 0.720754 0.397967 0.140545
H31   H     H_    0.498958 0.220884 0.601898 0.140522
H32   H     H_    0.501139 0.220754 0.397967 0.140545
H33   H     H_    0.012374 0.575634 0.198556 0.162457
H34   H     H_    0.987703 0.575579 0.801551 0.162396
H35   H     H_    0.512368 0.075635 0.198562 0.162458
H36   H     H_    0.487706 0.075580 0.801547 0.162396
H37   H     H_    0.929207 0.279054 0.578354 0.132084
H38   H     H_    0.070860 0.279527 0.412662 0.129894
H39   H     H_    0.429207 0.779054 0.578354 0.132084
H40   H     H_    0.570860 0.779527 0.412661 0.129894
H41   H     H_    0.553236 0.278952 0.513899 0.137727
H42   H     H_    0.446846 0.278792 0.485922 0.137750
H43   H     H_    0.053235 0.778952 0.513900 0.137727
H44   H     H_    0.946846 0.778792 0.485921 0.137750
H45   H     H_    0.940847 0.548683 0.348164 0.137134
H46   H     H_    0.059193 0.548655 0.651915 0.137094
H47   H     H_    0.440844 0.048679 0.348168 0.137136
H48   H     H_    0.559195 0.048652 0.651913 0.137095
H49   H     H_    0.987754 0.424805 0.302159 0.127989
H50   H     H_    0.012143 0.424770 0.697734 0.127701
H51   H     H_    0.487760 0.924804 0.302154 0.127988
H52   H     H_    0.512140 0.924769 0.697738 0.127700
H53   H     H_    0.860227 0.569580 0.120613 0.167384
H54   H     H_    0.139754 0.570465 0.873600 0.167926
H55   H     H_    0.360227 0.069580 0.120613 0.167384
H56   H     H_    0.639754 0.070465 0.873606 0.167926
H57   H     H_    0.860866 0.430253 0.160870 0.167296
H58   H     H_    0.139318 0.429617 0.844792 0.167844
H59   H     H_    0.360866 0.930253 0.160870 0.167296
H60   H     H_    0.639318 0.929618 0.844786 0.167843
O1    O     O_R   0.934530 0.463050 0.065470 -0.630369
O2    O     O_R   0.065470 0.463050 0.934530 -0.630566
O3    O     O_R   0.434530 0.963050 0.065470 -0.630369
O4    O     O_R   0.565470 0.963050 0.934530 -0.630566
O5    O     O_R   0.565480 0.500000 0.487030 -0.615224
O6    O     O_R   0.434520 0.500000 0.512970 -0.611792
O7    O     O_R   0.065480 0.000000 0.487030 -0.615224
O8    O     O_R   0.934520 0.000000 0.512970 -0.611792
O9    O     O_R   0.565480 0.499990 0.382000 -0.635718
O10   O     O_R   0.434520 0.499990 0.618000 -0.637794
O11   O     O_R   0.065480 0.999990 0.382000 -0.635718
O12   O     O_R   0.934520 0.999990 0.618000 -0.637794
O13   O     O_R   0.500000 0.434520 0.552520 -0.606993
O14   O     O_R   0.500000 0.434520 0.447480 -0.607824
O15   O     O_R   0.000000 0.934520 0.552520 -0.606993
O16   O     O_R   0.000000 0.934520 0.447480 -0.607824
O17   O     O_R   0.934550 0.536970 0.065450 -0.627016
O18   O     O_R   0.065450 0.536970 0.934550 -0.627258
O19   O     O_R   0.434550 0.036970 0.065450 -0.627016
O20   O     O_R   0.565450 0.036970 0.934550 -0.627258
O21   O     O_R   0.000010 0.463050 0.093020 -0.637065
O22   O     O_R   0.999990 0.463050 0.906980 -0.636746
O23   O     O_R   0.500010 0.963050 0.093020 -0.637065
O24   O     O_R   0.499990 0.963050 0.906980 -0.636747
O25   O     O_R   0.000020 0.536970 0.093000 -0.621209
O26   O     O_R   0.999980 0.536970 0.907000 -0.621535
O27   O     O_R   0.500020 0.036970 0.093000 -0.621209
O28   O     O_R   0.499980 0.036970 0.907000 -0.621535
O29   O     O_R   0.036960 0.565440 0.463030 -0.628618
O30   O     O_R   0.963040 0.565440 0.536970 -0.628619
O31   O     O_R   0.536960 0.065440 0.463030 -0.628617
O32   O     O_R   0.463040 0.065440 0.536970 -0.628618
O33   O     O_R   0.036960 0.499960 0.370010 -0.626187
O34   O     O_R   0.963040 0.499960 0.629990 -0.625972
O35   O     O_R   0.536960 0.999960 0.370010 -0.626186
O36   O     O_R   0.463040 0.999960 0.629990 -0.625972
O37   O     O_R   0.963040 0.499940 0.443930 -0.628717
O38   O     O_R   0.036960 0.499940 0.556070 -0.628528
O39   O     O_R   0.463040 0.999940 0.443930 -0.628717
O40   O     O_R   0.536960 0.999940 0.556070 -0.628528
O41   O     O_R   0.036980 0.434490 0.463020 -0.627116
O42   O     O_R   0.963020 0.434490 0.536980 -0.626852
O43   O     O_R   0.536980 0.934490 0.463020 -0.627116
O44   O     O_R   0.463020 0.934490 0.536980 -0.626852
O45   O     O_R   0.500030 0.565470 0.552480 -0.614310
O46   O     O_R   0.499970 0.565470 0.447520 -0.605799
O47   O     O_R   0.000030 0.065470 0.552480 -0.614310
O48   O     O_R   0.999970 0.065470 0.447520 -0.605799
Zn1   Zn    Zn3+2 0.000000 0.450650 0.000000 0.916388
Zn2   Zn    Zn3+2 0.500000 0.950650 0.000000 0.916387
Zn3   Zn    Zn3+2 1.000000 0.549370 0.000000 0.931190
Zn4   Zn    Zn3+2 0.500000 0.049370 0.000000 0.931190
Zn5   Zn    Zn3+2 0.049370 0.499970 0.450630 0.930274
Zn6   Zn    Zn3+2 0.950630 0.499970 0.549370 0.930499
Zn7   Zn    Zn3+2 0.549370 0.999970 0.450630 0.930275
Zn8   Zn    Zn3+2 0.450630 0.999970 0.549370 0.930499
Zn9   Zn    Zn3+2 0.500010 0.500000 0.570110 0.950930
Zn10  Zn    Zn3+2 0.499990 0.500000 0.429890 0.961486
Zn11  Zn    Zn3+2 0.000010 0.000000 0.570110 0.950930
Zn12  Zn    Zn3+2 0.999990 0.000000 0.429890 0.961487
C153  C     C_3   0.774009 0.416231 0.252520 -0.416280
C154  C     C_3   0.776029 0.404902 0.320264 -0.872089
H61   H     H_    0.810861 0.401663 0.301248 0.256810
H62   H     H_    0.759513 0.431036 0.364844 0.258110
H63   H     H_    0.758845 0.373023 0.345854 0.248605
H64   H     H_    0.738916 0.416513 0.272530 0.218733
H65   H     H_    0.790245 0.389520 0.208884 0.199135
C155  C     C_3   0.226185 0.415669 0.754371 -0.416499
C156  C     C_3   0.224531 0.401530 0.687262 -0.870767
H66   H     H_    0.189779 0.397615 0.706127 0.256775
H67   H     H_    0.241202 0.426505 0.640669 0.258188
H68   H     H_    0.241750 0.369383 0.664369 0.248418
H69   H     H_    0.261196 0.416637 0.734769 0.219003
H70   H     H_    0.209827 0.390073 0.800040 0.198912
C157  C     C_3   0.274009 0.916231 0.252520 -0.416281
C158  C     C_3   0.276029 0.904902 0.320264 -0.872090
H71   H     H_    0.310861 0.901663 0.301247 0.256811
H72   H     H_    0.259513 0.931036 0.364844 0.258111
H73   H     H_    0.258846 0.873023 0.345854 0.248605
H74   H     H_    0.238916 0.916513 0.272530 0.218733
H75   H     H_    0.290245 0.889520 0.208884 0.199135
C159  C     C_3   0.726185 0.915670 0.754364 -0.416496
C160  C     C_3   0.724530 0.901533 0.687255 -0.870769
H76   H     H_    0.689778 0.897618 0.706120 0.256775
H77   H     H_    0.741201 0.926509 0.640664 0.258189
H78   H     H_    0.741749 0.869387 0.664359 0.248418
H79   H     H_    0.761197 0.916636 0.734762 0.219003
H80   H     H_    0.709827 0.890073 0.800032 0.198912
N1    N     N_2   0.561508 0.635012 0.513216 -0.301660
H81   H     H_    0.593278 0.646268 0.474332 0.216492
C161  C     C_3   0.550560 0.633463 0.590209 -0.750654
H82   H     H_    0.551471 0.667233 0.609873 0.221308
H83   H     H_    0.574939 0.612447 0.590860 0.228485
H84   H     H_    0.517177 0.619033 0.630524 0.258763
N2    N     N_2   0.436377 0.632991 0.489489 -0.293184
H85   H     H_    0.427613 0.648641 0.457044 0.220886
C162  C     C_3   0.398128 0.619015 0.563210 -0.776147
H86   H     H_    0.379386 0.648294 0.598749 0.229658
H87   H     H_    0.408126 0.598584 0.594121 0.236186
H88   H     H_    0.376220 0.598769 0.554671 0.238093
N3    N     N_2   0.061508 0.135012 0.513216 -0.301660
H89   H     H_    0.093278 0.146268 0.474332 0.216492
C163  C     C_3   0.050560 0.133463 0.590210 -0.750656
H90   H     H_    0.051471 0.167233 0.609873 0.221309
H91   H     H_    0.074938 0.112447 0.590861 0.228485
H92   H     H_    0.017176 0.119033 0.630524 0.258764
N4    N     N_2   0.936377 0.132991 0.489488 -0.293185
H93   H     H_    0.927614 0.148641 0.457044 0.220886
C164  C     C_3   0.898128 0.119015 0.563209 -0.776146
H94   H     H_    0.879386 0.148294 0.598749 0.229657
H95   H     H_    0.908126 0.098584 0.594121 0.236186
H96   H     H_    0.876220 0.098769 0.554670 0.238093
C165  C     C_3   0.999190 0.633323 0.621415 -0.423784
C166  C     C_3   0.951836 0.625178 0.690168 -0.859044
H97   H     H_    0.933347 0.656846 0.710885 0.257959
H98   H     H_    0.934736 0.602282 0.674512 0.274254
H99   H     H_    0.952023 0.610198 0.737477 0.241993
H100  H     H_    0.017303 0.601454 0.601270 0.199866
H101  H     H_    0.016368 0.653733 0.640227 0.200030
C167  C     C_3   0.000963 0.633177 0.378428 -0.423575
C168  C     C_3   0.048342 0.625144 0.309705 -0.858958
H102  H     H_    0.066793 0.656858 0.289096 0.257929
H103  H     H_    0.065447 0.602304 0.325352 0.274199
H104  H     H_    0.048211 0.610149 0.262318 0.242022
H105  H     H_    0.982901 0.601260 0.398507 0.199870
H106  H     H_    0.983769 0.653497 0.359614 0.200001
C169  C     C_3   0.499190 0.133323 0.621414 -0.423782
C170  C     C_3   0.451837 0.125179 0.690168 -0.859043
H107  H     H_    0.433348 0.156848 0.710885 0.257959
H108  H     H_    0.434736 0.102283 0.674513 0.274253
H109  H     H_    0.452024 0.110199 0.737477 0.241993
H110  H     H_    0.517303 0.101454 0.601270 0.199866
H111  H     H_    0.516370 0.153733 0.640224 0.200030
C171  C     C_3   0.500962 0.133177 0.378429 -0.423573
C172  C     C_3   0.548341 0.125147 0.309704 -0.858958
H112  H     H_    0.566791 0.156861 0.289095 0.257929
H113  H     H_    0.565449 0.102308 0.325349 0.274197
H114  H     H_    0.548210 0.110150 0.262317 0.242021
H115  H     H_    0.482902 0.101260 0.398507 0.199871
H116  H     H_    0.483766 0.153497 0.359618 0.200000
N5    N     N_2   0.562079 0.365792 0.513360 -0.292702
H117  H     H_    0.570283 0.349598 0.546171 0.220095
C173  C     C_3   0.600822 0.380154 0.440544 -0.770843
H118  H     H_    0.619882 0.351060 0.404768 0.230244
H119  H     H_    0.622221 0.400216 0.450570 0.240766
H120  H     H_    0.591402 0.400905 0.409104 0.233120
N6    N     N_2   0.438003 0.365610 0.486397 -0.293096
H121  H     H_    0.429826 0.349354 0.453555 0.220064
C174  C     C_3   0.399236 0.379948 0.559194 -0.769999
H122  H     H_    0.380200 0.350842 0.594980 0.230305
H123  H     H_    0.377826 0.399901 0.549136 0.240675
H124  H     H_    0.408623 0.400798 0.590637 0.233648
N7    N     N_2   0.062079 0.865792 0.513362 -0.292702
H125  H     H_    0.070282 0.849598 0.546173 0.220095
C175  C     C_3   0.100821 0.880154 0.440546 -0.770842
H126  H     H_    0.119882 0.851060 0.404770 0.230243
H127  H     H_    0.122220 0.900216 0.450572 0.240765
H128  H     H_    0.091402 0.900905 0.409105 0.233120
N8    N     N_2   0.938003 0.865610 0.486396 -0.293096
H129  H     H_    0.929827 0.849354 0.453553 0.220064
C176  C     C_3   0.899236 0.879948 0.559192 -0.769999
H130  H     H_    0.880200 0.850842 0.594978 0.230305
H131  H     H_    0.877826 0.899901 0.549134 0.240676
H132  H     H_    0.908623 0.900798 0.590636 0.233648
C177  C     C_3   0.917463 0.468829 0.285569 -0.419353
C178  C     C_3   0.885171 0.457204 0.370138 -0.862250
H133  H     H_    0.899074 0.430746 0.386507 0.258841
H134  H     H_    0.878069 0.486796 0.406412 0.259895
H135  H     H_    0.853735 0.445192 0.380706 0.247788
H136  H     H_    0.902787 0.494874 0.269956 0.203062
H137  H     H_    0.923577 0.439052 0.250191 0.211856
C179  C     C_3   0.082502 0.468774 0.714321 -0.418658
C180  C     C_3   0.114751 0.457183 0.629717 -0.862092
H138  H     H_    0.100801 0.430743 0.613319 0.258705
H139  H     H_    0.121871 0.486793 0.593517 0.259744
H140  H     H_    0.146184 0.445160 0.619071 0.247874
H141  H     H_    0.097220 0.494808 0.729960 0.202851
H142  H     H_    0.076367 0.438982 0.749627 0.212138
C181  C     C_3   0.417465 0.968823 0.285567 -0.419351
C182  C     C_3   0.385174 0.957196 0.370135 -0.862250
H143  H     H_    0.399080 0.930739 0.386502 0.258841
H144  H     H_    0.378070 0.986787 0.406411 0.259895
H145  H     H_    0.353739 0.945181 0.380702 0.247787
H146  H     H_    0.402787 0.994867 0.269957 0.203061
H147  H     H_    0.423581 0.939047 0.250187 0.211857
C183  C     C_3   0.582501 0.968771 0.714323 -0.418656
C184  C     C_3   0.614750 0.957178 0.629719 -0.862093
H148  H     H_    0.600798 0.930738 0.613322 0.258705
H149  H     H_    0.621871 0.986788 0.593518 0.259744
H150  H     H_    0.646182 0.945154 0.619074 0.247874
H151  H     H_    0.597220 0.994804 0.729960 0.202851
H152  H     H_    0.576364 0.938978 0.749629 0.212139
C185  C     C_3   0.069179 0.444274 0.136293 -0.406039
C186  C     C_3   0.095787 0.424041 0.163296 -0.872819
H153  H     H_    0.111555 0.450407 0.176155 0.260228
H154  H     H_    0.074064 0.403750 0.215544 0.258769
H155  H     H_    0.122067 0.402487 0.117500 0.248424
H156  H     H_    0.054422 0.417370 0.122348 0.218191
H157  H     H_    0.091469 0.464076 0.083639 0.202138
C187  C     C_3   0.930752 0.444220 0.863658 -0.406048
C188  C     C_3   0.904098 0.424002 0.836667 -0.872331
H158  H     H_    0.888354 0.450376 0.823867 0.260240
H159  H     H_    0.925784 0.403716 0.784387 0.258609
H160  H     H_    0.877797 0.402445 0.882446 0.248545
H161  H     H_    0.945484 0.417311 0.877548 0.218155
H162  H     H_    0.908498 0.464019 0.916342 0.202267
C189  C     C_3   0.569183 0.944279 0.136288 -0.406040
C190  C     C_3   0.595793 0.924048 0.163290 -0.872814
H163  H     H_    0.611559 0.950415 0.176151 0.260228
H164  H     H_    0.574071 0.903755 0.215536 0.258768
H165  H     H_    0.622075 0.902495 0.117492 0.248423
H166  H     H_    0.554428 0.917374 0.122342 0.218189
H167  H     H_    0.591472 0.964083 0.083636 0.202137
C191  C     C_3   0.430750 0.944223 0.863661 -0.406050
C192  C     C_3   0.404095 0.924006 0.836671 -0.872331
H168  H     H_    0.388352 0.950380 0.823869 0.260240
H169  H     H_    0.425780 0.903719 0.784392 0.258609
H170  H     H_    0.377793 0.902450 0.882451 0.248545
H171  H     H_    0.445481 0.917313 0.877552 0.218155
H172  H     H_    0.408497 0.964023 0.916343 0.202267
C193  C     C_3   0.773218 0.583072 0.205218 -0.417962
C194  C     C_3   0.774251 0.595074 0.134625 -0.866853
H173  H     H_    0.808848 0.598808 0.083607 0.255187
H174  H     H_    0.757590 0.569056 0.123050 0.259082
H175  H     H_    0.756710 0.626868 0.144723 0.248428
H176  H     H_    0.738336 0.582389 0.255918 0.218988
H177  H     H_    0.789641 0.609655 0.216354 0.198252
C195  C     C_3   0.226746 0.584254 0.787631 -0.418330
C196  C     C_3   0.226073 0.599070 0.856794 -0.866185
H178  H     H_    0.191558 0.603337 0.907803 0.255358
H179  H     H_    0.242975 0.574311 0.869969 0.259020
H180  H     H_    0.243560 0.631181 0.843981 0.248285
H181  H     H_    0.261541 0.583020 0.736690 0.218856
H182  H     H_    0.210118 0.609625 0.774802 0.198221
C197  C     C_3   0.273218 0.083073 0.205218 -0.417961
C198  C     C_3   0.274251 0.095073 0.134624 -0.866853
H183  H     H_    0.308848 0.098808 0.083607 0.255187
H184  H     H_    0.257590 0.069056 0.123050 0.259083
H185  H     H_    0.256711 0.126868 0.144722 0.248428
H186  H     H_    0.238336 0.082389 0.255918 0.218988
H187  H     H_    0.289641 0.109655 0.216354 0.198251
C199  C     C_3   0.726746 0.084253 0.787638 -0.418330
C200  C     C_3   0.726073 0.099067 0.856802 -0.866184
H188  H     H_    0.691558 0.103334 0.907811 0.255357
H189  H     H_    0.742975 0.074306 0.869976 0.259020
H190  H     H_    0.743560 0.131177 0.843991 0.248285
H191  H     H_    0.761541 0.083019 0.736697 0.218856
H192  H     H_    0.710119 0.109625 0.774810 0.198221

loop_
_geom_bond_atom_site_label_1
_geom_bond_atom_site_label_2
_ccdc_geom_bond_type
O19   Zn4   S    
C116  H26   S    
C142  C146  S    
C74   C83   A    
C192  H168  S    
C133  H37   S    
C161  H83   S    
C168  H102  S    
C156  H68   S    
O24   Zn2   S    
C196  H178  S    
C136  H40   S    
C4    O20   A    
C41   C69   S    
C190  H163  S    
C16   C144  S    
O31   Zn7   S    
C55   C59   A    
C76   C131  S    
C3    O3    A    
C29   C33   A    
C5    C149  S    
C152  H48   S    
C154  H61   S    
C117  C132  A    
C108  C120  A    
C155  H69   S    
C77   C122  A    
C146  C150  S    
C11   C15   S    
O22   Zn1   S    
C82   H22   S    
C166  H97   S    
C91   C100  A    
C140  C152  S    
C99   N1    S    
C92   C102  A    
C88   O40   A    
O44   Zn8   S    
C6    C179  S    
C188  H159  S    
C49   C69   A    
O26   Zn3   S    
C26   H54   S    
C51   C71   A    
C122  H42   S    
C73   C81   A    
N5    C173  S    
N5    H117  S    
C47   O23   A    
C25   C29   A    
C174  H124  S    
C108  H32   S    
C27   C31   A    
C158  H73   S    
C16   C191  S    
C28   C32   A    
C170  H107  S    
C182  H144  S    
C176  H132  S    
C62   C66   A    
C196  H180  S    
C8    C183  S    
C126  C129  A    
C39   C157  S    
N1    H81   S    
C97   O11   A    
C82   C134  A    
C185  H156  S    
C52   C72   A    
O40   Zn7   S    
C173  H118  S    
C16   C20   S    
C166  H99   S    
C92   C94   S    
C88   C148  S    
C50   C54   A    
C155  C156  S    
C3    C31   S    
C10   H50   S    
C115  H25   S    
C36   H60   S    
C93   O45   A    
C2    O2    A    
O23   Zn2   S    
C7    C19   S    
C10   C14   S    
C28   H56   S    
C186  H154  S    
C107  C120  A    
O21   Zn1   S    
C168  H104  S    
C184  H149  S    
C90   O44   A    
O42   Zn6   S    
C43   C71   S    
C190  H165  S    
O33   Zn5   S    
O38   Zn5   S    
C170  H108  S    
C57   C61   A    
C103  O13   A    
C56   H12   S    
C59   C63   A    
C153  H64   S    
C60   C64   A    
C67   H19   S    
C198  H183  S    
C74   C90   S    
C50   C70   A    
C55   H11   S    
C177  H136  S    
C185  C186  S    
O14   Zn10  S    
C66   C70   A    
C49   C53   A    
C95   O5    A    
C165  H101  S    
C175  H128  S    
O7    Zn11  S    
C79   O29   A    
O8    Zn12  S    
C45   O25   A    
C125  C129  A    
C19   C139  S    
C164  H94   S    
C199  H191  S    
C200  H189  S    
C195  H181  S    
C17   C137  S    
O32   Zn8   S    
C178  H133  S    
N7    H125  S    
C117  H27   S    
C158  H72   S    
C180  H139  S    
C118  H28   S    
C52   H8    S    
N4    C164  S    
C85   O37   A    
C4    O4    A    
O2    Zn1   S    
C40   C159  S    
C189  C190  S    
C170  H109  S    
C112  C114  A    
C75   C134  A    
C23   C43   A    
C171  H115  S    
C160  H77   S    
C191  H172  S    
C50   H6    S    
C5    C9    S    
C192  H169  S    
C64   C68   A    
C187  C188  S    
C8    C152  S    
C85   C145  S    
C19   C47   S    
N3    C163  S    
C184  H148  S    
C42   C70   S    
C9    C13   S    
C34   H58   S    
C143  H3    S    
C94   O48   A    
C98   O12   A    
C12   C148  S    
C44   C72   S    
C199  C200  S    
C51   C55   A    
O29   Zn5   S    
O35   Zn7   S    
C63   H15   S    
C169  H110  S    
C187  H162  S    
C85   O33   A    
C100  N2    S    
O3    Zn2   S    
C49   H5    S    
O28   Zn4   S    
C189  H167  S    
C76   C135  A    
C162  H87   S    
C30   C34   A    
C198  H185  S    
C12   C16   S    
C167  C168  S    
O16   Zn12  S    
C3    O19   A    
C157  H75   S    
O1    Zn1   S    
C81   H21   S    
C144  H4    S    
O17   Zn3   S    
C147  C151  S    
C121  C125  A    
C61   C65   A    
C88   O36   A    
C123  C127  A    
C8    C12   S    
C164  H96   S    
C124  H44   S    
C23   C197  S    
C142  H2    S    
C78   C123  A    
C10   C146  S    
C15   C143  S    
C62   H14   S    
C26   C30   A    
C89   O42   A    
C79   C113  S    
C47   O27   A    
O45   Zn9   S    
C98   O8    A    
C5    C177  S    
N6    H121  S    
O47   Zn11  S    
C75   C132  S    
C21   C25   A    
C163  H92   S    
O20   Zn4   S    
C173  H119  S    
C107  C111  A    
C148  C152  S    
C74   C84   A    
C167  H105  S    
C32   C36   A    
C81   C133  A    
C141  C145  S    
C156  H67   S    
C80   O31   A    
C13   C17   S    
C2    C30   S    
C21   C41   A    
C190  H164  S    
C24   C199  S    
C159  H79   S    
C179  H141  S    
C172  H114  S    
C141  H1    S    
O43   Zn7   S    
C139  C151  S    
C61   H13   S    
O30   Zn6   S    
C37   C41   A    
C155  H70   S    
C118  C132  A    
C2    O18   A    
C40   C44   A    
C157  H74   S    
C166  H98   S    
C105  H29   S    
O34   Zn6   S    
O9    Zn10  S    
C154  H62   S    
C58   C62   A    
C7    C181  S    
C188  H158  S    
C106  C119  A    
O25   Zn3   S    
C154  H63   S    
C100  C116  A    
C77   C120  S    
C14   C142  S    
C194  H173  S    
C15   C19   S    
C174  H123  S    
C95   O9    A    
C87   C147  S    
C138  H34   S    
C45   O21   A    
C176  H131  S    
C99   C115  A    
C159  C160  S    
C196  H179  S    
C5    C17   S    
C191  C192  S    
N8    H129  S    
C86   C146  S    
C195  C196  S    
C18   C138  S    
C197  H186  S    
C105  C109  A    
O10   Zn9   S    
C104  O16   A    
C13   C141  S    
C109  C165  S    
C124  C128  A    
C168  H103  S    
C13   C185  S    
C163  H90   S    
C104  C130  S    
C123  H43   S    
C25   H53   S    
C18   C46   S    
C121  H41   S    
C48   O28   A    
C161  H84   S    
C137  H33   S    
N1    C161  S    
C143  C147  S    
C169  H111  S    
C93   O46   A    
C197  C198  S    
C140  H36   S    
C24   C28   A    
C110  C167  S    
C138  C142  S    
C160  H76   S    
C53   C57   A    
C33   C37   A    
C56   C60   A    
C65   H17   S    
C198  H184  S    
O48   Zn12  S    
C35   C39   A    
C183  H152  S    
C91   C93   S    
C169  C170  S    
N8    C176  S    
C112  C171  S    
C165  H100  S    
C175  H127  S    
C11   H51   S    
C103  C129  S    
O13   Zn9   S    
C20   C48   S    
C9    H49   S    
C92   C101  A    
C7    C151  S    
C38   C155  S    
C188  H160  S    
C96   O10   A    
C199  H192  S    
C24   C44   A    
C195  H182  S    
C178  H134  S    
C46   O22   A    
C73   C82   A    
C172  H112  S    
C104  O15   A    
C180  H138  S    
C200  H188  S    
C137  C141  S    
N2    H85   S    
C84   C136  A    
C183  H151  S    
C140  C144  S    
C17   C45   S    
C182  H143  S    
C128  C130  A    
C6    C10   S    
C75   C133  A    
C171  H116  S    
C101  C117  A    
C20   C140  S    
C178  H135  S    
C21   C193  S    
C78   C119  S    
C185  H157  S    
C73   C89   S    
O11   Zn12  S    
C64   H16   S    
O12   Zn11  S    
C68   H20   S    
C11   C147  S    
N3    H89   S    
C65   C69   A    
C9    C145  S    
C111  C114  A    
C67   C71   A    
C165  C166  S    
O46   Zn10  S    
O4    Zn2   S    
N4    H93   S    
C6    C150  S    
C108  C112  A    
C181  H147  S    
C22   C26   A    
C60   C98   S    
C186  H153  S    
C105  C119  A    
C84   H24   S    
O39   Zn8   S    
C150  H46   S    
C145  C149  S    
C193  H176  S    
C86   O38   A    
C184  H150  S    
C8    C20   S    
C90   O43   A    
C83   H23   S    
C14   C18   S    
C175  H126  S    
C144  C148  S    
C179  C180  S    
C126  N6    S    
C76   C136  A    
C111  C169  S    
C181  C182  S    
C115  C131  A    
C162  H86   S    
C138  C150  S    
C103  O14   A    
C7    C11   S    
C153  H65   S    
C177  H137  S    
N7    C175  S    
O5    Zn9   S    
C79   O30   A    
C58   C96   S    
C106  H30   S    
C35   H59   S    
C37   C153  S    
C33   H57   S    
C157  C158  S    
C164  H95   S    
C186  H155  S    
C200  H190  S    
C97   O7    A    
C87   O35   A    
C23   C27   A    
C78   C124  A    
C27   H55   S    
C102  C118  A    
C68   C72   A    
C180  H140  S    
C14   C187  S    
C12   H52   S    
C86   O34   A    
C161  H82   S    
C89   O41   A    
C137  C149  S    
C139  C143  S    
C182  H145  S    
C139  H35   S    
C1    C29   S    
C127  N7    S    
C160  H78   S    
C191  H171  S    
C181  H146  S    
C6    C18   S    
C192  H170  S    
C63   C67   A    
C163  H91   S    
C151  H47   S    
C36   C40   A    
C77   C121  A    
C167  H106  S    
O6    Zn10  S    
C39   C43   A    
O41   Zn5   S    
C156  H66   S    
C193  H177  S    
C80   O32   A    
C107  H31   S    
N2    C162  S    
O37   Zn6   S    
C122  C126  A    
C159  H80   S    
C179  H142  S    
C172  H113  S    
C94   O47   A    
C135  H39   S    
C153  C154  S    
N6    C174  S    
C4    C32   S    
C54   H10   S    
C110  C113  A    
C177  C178  S    
C48   O24   A    
C101  N3    S    
O15   Zn11  S    
C80   C114  S    
C187  H161  S    
C59   C97   S    
C125  N5    S    
O27   Zn4   S    
C54   C58   A    
C162  H88   S    
C15   C189  S    
C128  N8    S    
O18   Zn3   S    
C22   C195  S    
C34   C38   A    
C83   C135  A    
C66   H18   S    
C194  H174  S    
O36   Zn8   S    
C109  C113  A    
C174  H122  S    
C91   C99   A    
C158  H71   S    
C134  H38   S    
C189  H166  S    
C87   O39   A    
C127  C130  A    
C176  H130  S    
C1    O1    A    
C53   H9    S    
C171  C172  S    
C22   C42   A    
C116  C131  A    
C96   O6    A    
C51   H7    S    
C102  N4    S    
C31   C35   A    
C46   O26   A    
C194  H175  S    
C197  H187  S    
C38   C42   A    
C1    O17   A    
C173  H120  S    
C106  C110  A    
C193  C194  S    
C57   C95   S    
C183  C184  S    
C52   C56   A    
C149  H45   S    
