data_mof_unit_27622.cif
_audit_creation_date              2012-12-10T17:22:40-0500
_audit_creation_method            fapswitch 2.2
_symmetry_space_group_name_H-M    P1
_symmetry_Int_Tables_number       1
_space_group_crystal_system       triclinic
_cell_length_a                    10.632425
_cell_length_b                    10.860539
_cell_length_c                    9.64065
_cell_angle_alpha                 89.43276
_cell_angle_beta                  89.800994
_cell_angle_gamma                 92.668804
_cell_volume                      1111.97255604

loop_
_atom_site_label
_atom_site_type_symbol
_atom_type_description
_atom_site_fract_x
_atom_site_fract_y
_atom_site_fract_z
_atom_type_partial_charge
C1    C     C_R   0.511352 0.263108 0.500427 0.807178
C2    C     C_3   0.958121 0.477547 0.370465 -0.114324
C3    C     C_3   0.036224 0.391390 0.459919 0.451297
C4    C     C_3   0.122944 0.500833 0.501040 -0.126081
C5    C     C_R   0.569117 0.110531 0.752705 -0.201924
C6    C     C_R   0.548465 0.045671 0.876437 -0.131898
C7    C     C_R   0.470038 0.939078 0.880225 0.527986
C8    C     C_R   0.437410 0.883694 0.753201 -0.315499
C9    C     C_R   0.480311 0.937279 0.626607 0.036502
C10   C     C_R   0.524009 0.061173 0.626902 0.079788
C11   C     C_R   0.525896 0.128443 0.500672 -0.184613
C12   C     C_R   0.259796 0.501150 0.500298 0.805343
C13   C     C_R   0.523458 0.062769 0.374563 -0.013177
C14   C     C_R   0.508598 0.935369 0.376534 -0.286854
C15   C     C_R   0.486001 0.871353 0.501035 -0.103868
C16   C     C_R   0.660269 0.670032 0.141292 -0.099154
C17   C     C_R   0.735276 0.756541 0.068420 -0.193135
C18   C     C_R   0.735284 0.756814 0.925457 -0.214851
C19   C     C_R   0.660680 0.670294 0.854545 -0.119182
C20   C     C_R   0.577735 0.584558 0.924323 0.114641
C21   C     C_R   0.577710 0.584406 0.073489 0.198702
C22   C     C_R   0.428232 0.417656 0.075379 -0.163610
C23   C     C_R   0.491806 0.736992 0.499998 0.778705
C24   C     C_R   0.427037 0.417183 0.926611 0.538285
C25   C     C_R   0.740174 0.499647 0.499760 0.803889
C26   C     C_3   0.038823 0.521589 0.627393 0.460440
C27   C     C_3   0.952137 0.409515 0.588040 -0.351102
C28   C     C_3   0.876677 0.498978 0.499481 -0.076177
C29   C     C_3   0.961491 0.611113 0.541674 -0.255023
C30   C     C_3   0.045636 0.588897 0.413271 -0.276822
Cu1   Cu    Cu3+1 0.499990 0.499990 0.640660 0.960807
Cu2   Cu    Cu3+1 0.500010 0.500010 0.359340 0.950422
H1    H     H_    0.911230 0.338085 0.660340 0.133928
H2    H     H_    0.379833 0.799284 0.753807 0.167956
H3    H     H_    0.516033 0.886340 0.279741 0.216273
H4    H     H_    0.372616 0.348628 0.132966 0.195904
H5    H     H_    0.672490 0.673026 0.250417 0.188921
H6    H     H_    0.796264 0.821850 0.123525 0.146804
H7    H     H_    0.796101 0.822511 0.868774 0.134111
H8    H     H_    0.673882 0.673374 0.745368 0.193736
H9    H     H_    0.927343 0.701070 0.575750 0.121288
H10   H     H_    0.085785 0.661330 0.342044 0.161825
H11   H     H_    0.921209 0.457121 0.265276 0.158290
H12   H     H_    0.626093 0.195596 0.755760 0.168499
H13   H     H_    0.591404 0.080714 0.969320 0.174609
N1    N     N_R   0.501210 0.501210 0.147910 -0.229033
N2    N     N_R   0.501250 0.501290 0.852040 -0.244856
O1    O     O_R   0.499990 0.319640 0.618810 -0.540079
O2    O     O_R   0.500000 0.319660 0.381240 -0.557000
O3    O     O_R   0.316850 0.499960 0.618770 -0.544917
O4    O     O_R   0.316860 0.499980 0.381190 -0.573247
O5    O     O_R   0.500000 0.680340 0.618760 -0.606228
O6    O     O_R   0.500010 0.680360 0.381190 -0.611211
O7    O     O_R   0.683140 0.500020 0.618810 -0.619484
O8    O     O_R   0.683150 0.500040 0.381230 -0.591656
O9    O     O_3   0.438007 0.886823 0.008677 -0.571751
C31   C     C_3   0.313313 0.834991 0.009832 0.078386
H14   H     H_    0.312651 0.739207 0.970147 0.150258
H15   H     H_    0.248110 0.890473 0.946980 0.137212
C32   C     C_3   0.262851 0.830144 0.157584 -0.799193
H16   H     H_    0.271271 0.923080 0.204468 0.272836
H17   H     H_    0.161964 0.799011 0.156991 0.188566
H18   H     H_    0.315782 0.764417 0.220919 0.260825
O10   O     O_3   0.366826 0.321099 0.855681 -0.549137
C33   C     C_3   0.237290 0.306660 0.889190 0.092979
H19   H     H_    0.182689 0.338313 0.799171 0.196920
H20   H     H_    0.206889 0.359182 0.980931 0.131958
C34   C     C_3   0.202260 0.170619 0.912491 -0.829895
H21   H     H_    0.250513 0.136104 0.005875 0.295581
H22   H     H_    0.098955 0.157511 0.928042 0.202999
H23   H     H_    0.230252 0.116631 0.821005 0.241937
O11   O     O_3   0.088177 0.542595 0.761219 -0.598444
C35   C     C_3   0.994556 0.588366 0.848201 0.065151
H24   H     H_    0.900089 0.542045 0.831155 0.161742
H25   H     H_    0.988976 0.689173 0.829848 0.147293
C36   C     C_3   0.029774 0.566872 0.998954 -0.832175
H26   H     H_    0.128325 0.600301 0.017946 0.249860
H27   H     H_    0.966156 0.616795 0.067928 0.214469
H28   H     H_    0.020063 0.466970 0.024263 0.237942
O12   O     O_3   0.076060 0.278986 0.406307 -0.570139
C37   C     C_3   0.128885 0.208178 0.512844 0.060290
H29   H     H_    0.056477 0.180072 0.592003 0.140531
H30   H     H_    0.208656 0.259591 0.563612 0.146256
C38   C     C_3   0.179572 0.092124 0.450787 -0.770538
H31   H     H_    0.251467 0.117335 0.370376 0.263957
H32   H     H_    0.223568 0.036603 0.533230 0.199565
H33   H     H_    0.101868 0.035767 0.402684 0.245886
C39   C     C_2   0.538963 0.123860 0.238748 0.876251
O13   O     O_2   0.450637 0.121713 0.158166 -0.626662
O14   O     O_R   0.651091 0.191090 0.207417 -0.757227
H34   H     H_    0.646618 0.239443 0.117255 0.314388

loop_
_geom_bond_atom_site_label_1
_geom_bond_atom_site_label_2
_ccdc_geom_bond_type
C8    C9    A    
C16   C21   A    
C6    H13   S    
C26   O11   S    
C35   H24   S    
C19   C20   A    
C1    C11   S    
C36   H28   S    
Cu1   O5    S    
C37   C38   S    
C37   H29   S    
C31   H14   S    
C7    C8    A    
C27   H1    S    
C25   C28   S    
C26   C27   S    
C32   H18   S    
C28   C29   S    
C38   H32   S    
C5    C6    A    
C31   H15   S    
O9    C31   S    
C32   H17   S    
C18   C19   A    
C34   H21   S    
C38   H31   S    
C16   C17   A    
C33   H20   S    
C38   H33   S    
C4    C12   S    
C9    C10   A    
Cu2   O8    S    
C16   H5    S    
C15   C23   S    
C24   O10   S    
Cu1   N2    S    
C13   C14   A    
C35   H25   S    
C7    O9    S    
C3    O12   S    
C37   H30   S    
C23   O6    A    
C36   H26   S    
C19   H8    S    
C14   H3    S    
O12   C37   S    
C31   C32   S    
C32   H16   S    
C23   O5    A    
C18   H7    S    
Cu2   O4    S    
C29   C30   S    
C4    C26   S    
Cu1   Cu2   S    
C2    H11   S    
C33   C34   S    
C20   C21   A    
C17   C18   A    
C8    H2    S    
C25   O7    A    
C22   N1    A    
C5    H12   S    
C39   O14   S    
Cu1   O1    S    
C35   C36   S    
C22   C24   A    
Cu1   O3    S    
C3    C4    S    
Cu2   O6    S    
C12   O4    A    
C21   N1    A    
C29   H9    S    
C24   N2    A    
Cu2   N1    S    
C25   O8    A    
C36   H27   S    
O11   C35   S    
C12   O3    A    
C1    O1    A    
C6    C7    A    
C22   H4    S    
C2    C30   S    
O10   C33   S    
C3    C27   S    
C2    C3    S    
C9    C15   A    
C5    C10   A    
C11   C13   A    
O14   H34   S    
C34   H23   S    
C13   C39   S    
C17   H6    S    
Cu1   O7    S    
Cu2   O2    S    
C20   N2    A    
C10   C11   A    
C39   O13   D    
C26   C29   S    
C34   H22   S    
C33   H19   S    
C27   C28   S    
C14   C15   A    
C30   H10   S    
C2    C28   S    
C1    O2    A    
C4    C30   S    
