data_mof_unit_10028.cif
_audit_creation_date              2013-03-05T15:47:12-0500
_audit_creation_method            fapswitch 2.2
_symmetry_space_group_name_H-M    P1
_symmetry_Int_Tables_number       1
_space_group_crystal_system       triclinic
_cell_length_a                    19.132877
_cell_length_b                    18.785847
_cell_length_c                    18.719503
_cell_angle_alpha                 108.898351
_cell_angle_beta                  110.005811
_cell_angle_gamma                 109.73702
_cell_volume                      5164.46095568

loop_
_atom_site_label
_atom_site_type_symbol
_atom_site_description
_atom_site_fract_x
_atom_site_fract_y
_atom_site_fract_z
_atom_type_partial_charge
O1    O     O_R   0.410140 0.357660 0.448100 -0.560068
O2    O     O_R   0.409530 0.462000 0.551910 -0.606692
C1    C     C_R   0.381897 0.381248 0.500356 0.759463
O3    O     O_R   0.590960 0.447830 0.538760 -0.535073
O4    O     O_R   0.590350 0.552170 0.642570 -0.553068
C2    C     C_R   0.620727 0.501998 0.619997 0.777832
Cu1   Cu    Cu3+1 0.500360 0.438220 0.438540 1.040064
Cu2   Cu    Cu3+1 0.499640 0.561780 0.561460 1.089831
O5    O     O_R   0.590470 0.538000 0.448090 -0.596845
O6    O     O_R   0.589860 0.642340 0.551900 -0.533777
O7    O     O_R   0.409650 0.447830 0.357430 -0.633005
O8    O     O_R   0.409040 0.552170 0.461240 -0.518403
C3    C     C_R   0.617607 0.619278 0.498958 0.803224
C4    C     C_R   0.381019 0.499337 0.379581 0.826240
C5    C     C_3   0.719264 0.439185 0.651271 0.093235
H1    H     H_    0.756310 0.469212 0.624232 0.146138
C6    C     C_3   0.782402 0.433792 0.724893 0.125843
H2    H     H_    0.841805 0.450510 0.719993 0.081450
H3    H     H_    0.895269 0.598984 0.799843 0.193627
C7    C     C_3   0.773537 0.601364 0.754256 0.481574
C8    C     C_3   0.655286 0.478690 0.746960 -0.379584
C9    C     C_3   0.690673 0.505216 0.690959 -0.193650
H4    H     H_    0.626932 0.518027 0.769128 0.176454
H5    H     H_    0.601802 0.410698 0.705666 0.232969
C10   C     C_3   0.808304 0.504477 0.815993 -0.129373
C11   C     C_3   0.845354 0.593826 0.818695 -0.534699
C12   C     C_3   0.727459 0.491336 0.828715 0.105280
H6    H     H_    0.748263 0.553187 0.885029 0.154281
H7    H     H_    0.880581 0.648690 0.886859 0.218591
C13   C     C_R   0.400075 0.384820 0.661730 -0.132459
C14   C     C_R   0.403938 0.395964 0.740520 -0.150940
C15   C     C_R   0.332773 0.342527 0.740076 -0.133385
C16   C     C_R   0.259005 0.275063 0.660890 -0.142882
C17   C     C_R   0.255056 0.259647 0.579830 0.063483
C18   C     C_R   0.323839 0.319814 0.580256 0.078261
C19   C     C_R   0.184259 0.186203 0.498966 -0.181458
C20   C     C_R   0.177340 0.178183 0.418430 0.057876
C21   C     C_R   0.238960 0.246620 0.419371 0.038177
C22   C     C_R   0.314419 0.314388 0.499899 -0.157164
C23   C     C_R   0.110044 0.103815 0.336436 -0.218146
C24   C     C_R   0.098380 0.102148 0.258096 -0.132433
C25   C     C_R   0.153450 0.174137 0.259097 0.302523
C26   C     C_R   0.223102 0.245883 0.339363 -0.216762
H8    H     H_    0.457494 0.427809 0.665897 0.141331
H9    H     H_    0.461811 0.447315 0.802139 0.132851
H10   H     H_    0.334977 0.352707 0.801311 0.145369
H11   H     H_    0.205111 0.236401 0.664432 0.144967
H12   H     H_    0.065552 0.045972 0.331272 0.162561
H13   H     H_    0.044810 0.045406 0.196571 0.160709
H14   H     H_    0.264037 0.300931 0.337972 0.131590
H15   H     H_    0.433130 0.475299 0.133975 0.151042
C27   C     C_R   0.223577 0.468753 0.379903 -0.141133
C28   C     C_R   0.153777 0.466141 0.388985 -0.120434
C29   C     C_R   0.095093 0.478262 0.333544 -0.134366
C30   C     C_R   0.104020 0.489392 0.266530 -0.061835
C31   C     C_R   0.172909 0.489041 0.253412 0.099297
C32   C     C_R   0.236448 0.484066 0.314732 0.045292
C33   C     C_R   0.179591 0.492508 0.180911 -0.125256
C34   C     C_R   0.244824 0.483624 0.166404 0.017476
C35   C     C_R   0.313484 0.489108 0.232860 0.102736
C36   C     C_R   0.310364 0.492632 0.308866 -0.129923
C37   C     C_R   0.241715 0.467055 0.085483 -0.219161
C38   C     C_R   0.309061 0.464498 0.073107 0.321987
C39   C     C_R   0.380173 0.477255 0.141735 -0.149699
C40   C     C_R   0.382711 0.489652 0.220244 -0.126196
H16   H     H_    0.265904 0.456624 0.423495 0.134836
H17   H     H_    0.145593 0.455200 0.439635 0.149487
H18   H     H_    0.041634 0.477906 0.341698 0.154281
H19   H     H_    0.056060 0.498835 0.226557 0.180826
H20   H     H_    0.186251 0.454055 0.030174 0.128873
H21   H     H_    0.440271 0.499731 0.270058 0.191199
C41   C     C_R   0.619207 0.782627 0.504699 0.257997
C42   C     C_R   0.633236 0.868303 0.531793 0.318191
C43   C     C_R   0.712948 0.935388 0.559516 -0.206811
C44   C     C_R   0.774535 0.917022 0.550780 -0.212977
C45   C     C_R   0.761344 0.831409 0.520651 0.034600
C46   C     C_R   0.687920 0.765474 0.508451 -0.042977
C47   C     C_R   0.821194 0.812119 0.503662 -0.088517
C48   C     C_R   0.823850 0.735417 0.499639 -0.018712
C49   C     C_R   0.757792 0.674867 0.502902 -0.015171
C50   C     C_R   0.687350 0.686947 0.501499 -0.088535
C51   C     C_R   0.889331 0.715415 0.494279 0.327915
C52   C     C_R   0.889890 0.642387 0.497229 -0.225935
C53   C     C_R   0.827957 0.585996 0.504230 0.320787
C54   C     C_R   0.763681 0.602705 0.507936 -0.253805
H22   H     H_    0.725138 0.001496 0.581516 0.204936
H23   H     H_    0.833292 0.971640 0.568933 0.154472
H24   H     H_    0.939627 0.629133 0.492763 0.212342
H25   H     H_    0.720999 0.558643 0.518357 0.192160
O9    O     O_R   0.945600 0.357690 0.907660 -0.550447
O10   O     O_R   0.049980 0.462000 0.907580 -0.615069
C55   C     C_R   0.997217 0.381141 0.878708 0.798970
O11   O     O_R   0.854480 0.447890 0.906670 -0.553993
O12   O     O_R   0.958860 0.552200 0.906600 -0.602452
C56   C     C_R   0.878346 0.505410 0.883921 0.786035
Cu3   Cu    Cu3+1 0.935530 0.438290 0.997340 0.994061
Cu4   Cu    Cu3+1 0.059130 0.561800 0.997250 1.014796
O13   O     O_R   0.944670 0.538090 0.087010 -0.596163
O14   O     O_R   0.049050 0.642400 0.086940 -0.571778
O15   O     O_R   0.035800 0.447890 0.088000 -0.637930
O16   O     O_R   0.140170 0.552200 0.087920 -0.518487
C57   C     C_R   0.001068 0.619643 0.119052 0.832995
C58   C     C_R   0.115685 0.499336 0.116949 0.841191
O17   O     O_R   0.948030 0.909890 0.357850 -0.580658
O18   O     O_R   0.052970 0.909860 0.462770 -0.519728
C59   C     C_R   0.995120 0.877435 0.380532 0.863989
O19   O     O_R   0.037700 0.090200 0.447550 -0.592803
O20   O     O_R   0.142640 0.090170 0.552470 -0.592042
C60   C     C_R   0.118159 0.118415 0.499238 0.738623
Cu5   Cu    Cu3+1 0.937870 0.000030 0.437890 1.046275
Cu6   Cu    Cu3+1 0.062130 1.000000 0.562130 1.018763
O21   O     O_R   0.947030 0.090160 0.537260 -0.586341
O22   O     O_R   0.051970 0.090130 0.642170 -0.572935
O23   O     O_R   0.857360 0.909860 0.447560 -0.519971
O24   O     O_R   0.962300 0.909830 0.552480 -0.577019
C61   C     C_R   0.995970 0.113730 0.619177 0.794620
C62   C     C_R   0.882962 0.876727 0.496479 0.866233
C63   C     C_R   0.995177 0.385877 0.724654 -0.161419
C64   C     C_R   0.009820 0.398155 0.660506 -0.122088
C65   C     C_R   0.031457 0.344957 0.611951 0.304810
C66   C     C_R   0.033076 0.276168 0.624990 -0.214117
C67   C     C_R   0.011815 0.258587 0.685407 0.022465
C68   C     C_R   0.001822 0.319616 0.742009 0.080827
C69   C     C_R   0.000364 0.181656 0.689843 -0.123109
C70   C     C_R   0.994244 0.172485 0.761488 -0.001376
C71   C     C_R   0.001738 0.243736 0.827341 -0.002425
C72   C     C_R   0.999744 0.313594 0.814616 -0.109577
C73   C     C_R   0.980920 0.096736 0.771940 0.074911
C74   C     C_R   0.970429 0.093275 0.842398 0.329249
C75   C     C_R   0.992085 0.169477 0.912326 0.171977
C76   C     C_R   0.011727 0.244550 0.906045 -0.289326
H26   H     H_    0.978549 0.429031 0.759970 0.168641
H27   H     H_    0.006867 0.451016 0.650671 0.176611
H28   H     H_    0.051571 0.237129 0.587445 0.136306
H29   H     H_    0.031790 0.302872 0.963170 0.159956
H30   H     H_    0.711756 0.564315 0.999442 0.160088
C77   C     C_R   0.163549 0.783275 0.274416 0.310471
C78   C     C_R   0.233852 0.868660 0.329063 -0.165211
C79   C     C_R   0.224129 0.936869 0.372956 0.238302
C80   C     C_R   0.144356 0.918325 0.365787 -0.220797
C81   C     C_R   0.072125 0.832651 0.311044 -0.001893
C82   C     C_R   0.078919 0.766467 0.256350 -0.028203
C83   C     C_R   0.992839 0.813292 0.308448 -0.068737
C84   C     C_R   0.913682 0.739544 0.232095 -0.050349
C85   C     C_R   0.920615 0.683825 0.166145 0.037949
C86   C     C_R   0.001026 0.689491 0.183863 -0.115124
C87   C     C_R   0.827738 0.719705 0.214800 0.318748
C88   C     C_R   0.755243 0.656140 0.130363 0.249468
C89   C     C_R   0.766625 0.611705 0.064345 -0.197134
C90   C     C_R   0.847251 0.624643 0.081653 -0.204748
H31   H     H_    0.297125 0.881583 0.339424 0.202254
H32   H     H_    0.139092 0.972395 0.401822 0.129350
H33   H     H_    0.851586 0.588712 0.026873 0.132198
N1    N     N_R   0.752754 0.663161 0.803344 0.141280
O25   O     O_R   0.722183 0.703861 0.769268 -0.315275
O26   O     O_R   0.774141 0.686694 0.884631 -0.398738
N2    N     N_2   0.138442 0.175212 0.179615 -0.435270
H34   H     H_    0.168591 0.236621 0.187626 0.238000
C91   C     C_3   0.150219 0.113580 0.121885 -0.573692
H35   H     H_    0.138889 0.120528 0.062888 0.252342
H36   H     H_    0.103814 0.045755 0.100374 0.246504
H37   H     H_    0.217151 0.126447 0.155587 0.211906
N3    N     N_R   0.649468 0.351302 0.577859 0.203983
O27   O     O_R   0.665500 0.307072 0.522416 -0.258117
O28   O     O_R   0.574117 0.314039 0.569878 -0.334180
N4    N     N_2   0.303331 0.445920 0.990479 -0.439045
H38   H     H_    0.243063 0.423427 0.940164 0.250274
C92   C     C_3   0.371614 0.511802 0.992115 -0.667099
H39   H     H_    0.360170 0.491302 0.924570 0.219525
H40   H     H_    0.435005 0.520477 0.032729 0.232895
H41   H     H_    0.373024 0.574808 0.018223 0.244173
N5    N     N_R   0.829398 0.510552 0.506161 0.129828
O29   O     O_R   0.900173 0.507470 0.528039 -0.392519
O30   O     O_R   0.758798 0.442252 0.480827 -0.330597
N6    N     N_R   0.750652 0.345814 0.714568 0.196106
O31   O     O_R   0.794811 0.307101 0.706971 -0.342952
O32   O     O_R   0.677408 0.303865 0.708757 -0.257868
N7    N     N_R   0.533010 0.713556 0.463367 0.129346
O33   O     O_R   0.494244 0.658493 0.380450 -0.393444
O34   O     O_R   0.487671 0.718468 0.501190 -0.274358
N8    N     N_R   0.565412 0.887250 0.526283 0.156589
O35   O     O_R   0.582174 0.958877 0.587882 -0.322128
O36   O     O_R   0.491926 0.842310 0.453261 -0.255603
N9    N     N_R   0.956036 0.764101 0.483152 0.126263
O37   O     O_R   0.949177 0.728028 0.407143 -0.360843
O38   O     O_R   0.033368 0.813625 0.551511 -0.346818
N10   N     N_2   0.993761 0.171051 0.989450 -0.387501
H42   H     H_    0.040754 0.229537 0.046070 0.242021
C93   C     C_3   0.910701 0.141517 0.983579 -0.526466
H43   H     H_    0.916994 0.140557 0.044424 0.220892
H44   H     H_    0.863374 0.074487 0.927259 0.264638
H45   H     H_    0.886627 0.186311 0.975870 0.203223
N11   N     N_2   0.052801 0.361093 0.550819 -0.445806
H46   H     H_    0.086385 0.332620 0.533579 0.248305
C94   C     C_3   0.982421 0.347222 0.475564 -0.597958
H47   H     H_    0.005700 0.363124 0.432921 0.211151
H48   H     H_    0.956792 0.389996 0.496262 0.276212
H49   H     H_    0.929993 0.277945 0.437146 0.233510
N12   N     N_2   0.986066 0.027294 0.718625 -0.413009
H50   H     H_    0.931926 0.967144 0.687083 0.277534
C95   C     C_3   0.064239 0.025971 0.762663 -0.533506
H51   H     H_    0.068090 0.976199 0.714897 0.244946
H52   H     H_    0.065019 0.009218 0.814469 0.222678
H53   H     H_    0.122031 0.090432 0.792532 0.214873
N13   N     N_R   0.942899 0.013168 0.844903 0.117390
O39   O     O_R   0.984426 0.011499 0.915201 -0.357866
O40   O     O_R   0.871926 0.942984 0.779172 -0.369271
N14   N     N_R   0.182006 0.714550 0.249796 0.126798
O41   O     O_R   0.156017 0.655178 0.270614 -0.401222
O42   O     O_R   0.243091 0.724433 0.231226 -0.314885
N15   N     N_2   0.294761 0.024109 0.425436 -0.426478
H54   H     H_    0.277280 0.071088 0.438272 0.257401
C96   C     C_3   0.364717 0.040874 0.503157 -0.526426
H55   H     H_    0.416847 0.109922 0.538514 0.249595
H56   H     H_    0.392081 0.998883 0.485670 0.256630
H57   H     H_    0.341646 0.028995 0.547442 0.220233
N16   N     N_2   0.804005 0.633725 0.702969 -0.472474
H58   H     H_    0.755921 0.631553 0.654305 0.237819
C97   C     C_3   0.881839 0.718289 0.749596 -0.545338
H59   H     H_    0.895836 0.733060 0.701550 0.217084
H60   H     H_    0.938603 0.719421 0.793959 0.212710
H61   H     H_    0.873620 0.770637 0.787945 0.288281
N17   N     N_R   0.810481 0.758705 0.280813 0.099630
O43   O     O_R   0.793237 0.717784 0.322108 -0.390564
O44   O     O_R   0.776747 0.807216 0.272062 -0.347434
N18   N     N_2   0.669482 0.634388 0.111200 -0.426523
H62   H     H_    0.658966 0.644584 0.163120 0.307532
C98   C     C_3   0.628394 0.662831 0.054950 -0.621349
H63   H     H_    0.561420 0.640641 0.041718 0.218528
H64   H     H_    0.625564 0.634554 0.991232 0.226876
H65   H     H_    0.664222 0.735101 0.087269 0.259162
N19   N     N_2   0.696349 0.423436 0.851155 -0.336416
H66   H     H_    0.737936 0.442059 0.914476 0.264755
C99   C     C_3   0.610047 0.390203 0.838599 -0.636174
H67   H     H_    0.603860 0.358086 0.878388 0.225641
H68   H     H_    0.561271 0.339742 0.769320 0.260172
H69   H     H_    0.596198 0.443813 0.859249 0.187073

loop_
_geom_bond_atom_site_label_1
_geom_bond_atom_site_label_2
_geom_bond_distance
_ccdc_geom_bond_type
C77   C82   1.430647 A    
C24   C25   1.395385 A    
C71   C72   1.417926 A    
N14   O42   1.301717 A    
C3    C50   1.473283 S    
C95   H52   1.109373 S    
C42   C43   1.385701 A    
C82   C86   1.429362 A    
N17   O43   1.298278 A    
C41   N7    1.425976 S    
C30   C31   1.422626 A    
C73   C74   1.418445 A    
C98   H64   1.110737 S    
N7    O33   1.297451 A    
C87   N17   1.424392 S    
Cu1   Cu2   2.695576 S    
N6    O32   1.300370 A    
C28   C29   1.384931 A    
O20   C60   1.298038 A    
Cu1   O7    1.983982 S    
C10   C56   1.488903 S    
C49   C54   1.427559 A    
C70   C71   1.418589 A    
C7    N1    1.490285 S    
C13   C18   1.418884 A    
C7    N16   1.467244 S    
N2    C91   1.446188 S    
C5    N3    1.477517 S    
C19   C20   1.419817 A    
N3    O28   1.301560 A    
C20   C21   1.410857 A    
C45   C47   1.413677 A    
C20   C23   1.417500 A    
C76   H29   1.080462 S    
O3    Cu1   1.975127 S    
C91   H35   1.110139 S    
O4    C2    1.297968 A    
O7    C4    1.289103 A    
C29   H18   1.082763 S    
C6    N6    1.473965 S    
C83   C84   1.440483 A    
C2    C9    1.495376 S    
C51   N9    1.423236 S    
C42   N8    1.437135 S    
N9    O37   1.299441 A    
C37   H20   1.080346 S    
C5    C6    1.550117 S    
C17   C18   1.411326 A    
C95   H51   1.108700 S    
C93   H44   1.110762 S    
H3    C11   1.111873 S    
O5    C3    1.300816 A    
Cu5   Cu6   2.698085 S    
C41   C46   1.440391 A    
C63   C64   1.392695 A    
C68   C72   1.412545 A    
C92   H41   1.111398 S    
N3    O27   1.301156 A    
C40   H21   1.077191 S    
N14   O41   1.297193 A    
O24   C62   1.281098 A    
C90   H33   1.077825 S    
Cu3   O13   1.975424 S    
C70   C73   1.448346 A    
C91   H36   1.110330 S    
C66   H28   1.081028 S    
Cu5   O23   1.975349 S    
N1    O26   1.301673 A    
C85   C90   1.412723 A    
O10   C55   1.295281 A    
C63   C68   1.418350 A    
O22   C61   1.287903 A    
N13   O40   1.301118 A    
C52   H24   1.084224 S    
C8    C12   1.549945 S    
C77   C78   1.402504 A    
C1    C22   1.461060 S    
N12   H50   1.028210 S    
O11   C56   1.286608 A    
C8    C9    1.549778 S    
N4    C92   1.447590 S    
O19   C60   1.297869 A    
C13   H8    1.080059 S    
O12   C56   1.312301 A    
C99   H68   1.108789 S    
C84   C87   1.446118 A    
C24   H13   1.082757 S    
C98   H63   1.110090 S    
Cu4   O14   1.980079 S    
N5    O30   1.301056 A    
C85   C86   1.416217 A    
C45   C46   1.407804 A    
C96   H56   1.110169 S    
C80   C81   1.417988 A    
C16   C17   1.419228 A    
C43   C44   1.379919 A    
C87   C88   1.416598 A    
C59   C83   1.464777 S    
C47   C62   1.460659 S    
C88   N18   1.427404 S    
C53   C54   1.385902 A    
O3    C2    1.298458 A    
C78   C79   1.391121 A    
N8    O36   1.301461 A    
C80   H32   1.081047 S    
C97   H59   1.110804 S    
C54   H25   1.071051 S    
C75   N10   1.423463 S    
C49   C50   1.433479 A    
O12   Cu4   1.983213 S    
C79   N15   1.424812 S    
N16   H58   1.027139 S    
C96   H55   1.110754 S    
C4    C36   1.465682 S    
O15   C58   1.288456 A    
C43   H22   1.083359 S    
C94   H47   1.110274 S    
N2    H34   1.032177 S    
C35   C36   1.425479 A    
O1    C1    1.299178 A    
C99   H69   1.109976 S    
N8    O35   1.301361 A    
C93   H45   1.111771 S    
C18   C22   1.417184 A    
C44   C45   1.417497 A    
N15   H54   1.032208 S    
C37   C38   1.398235 A    
C97   H60   1.107002 S    
C99   H67   1.111755 S    
C74   N13   1.439288 S    
C31   C32   1.412684 A    
O9    C55   1.300059 A    
C52   C53   1.375452 A    
C46   C50   1.434244 A    
C13   C14   1.392692 A    
Cu2   O8    1.975125 S    
Cu3   Cu4   2.697264 S    
N11   C94   1.446701 S    
C6    H2    1.116994 S    
C66   C67   1.421138 A    
C91   H37   1.111626 S    
Cu6   O22   1.981863 S    
C10   C11   1.561798 S    
C64   H27   1.082791 S    
C27   C28   1.389718 A    
O10   Cu4   1.975324 S    
C64   C65   1.394547 A    
O9    Cu3   1.979836 S    
N1    O25   1.302435 A    
C30   H19   1.076804 S    
C38   N4    1.426455 S    
Cu6   O24   1.982596 S    
C44   H23   1.079696 S    
C23   C24   1.393912 A    
N15   C96   1.446868 S    
C7    C9    1.604415 S    
C35   C40   1.420100 A    
C51   C52   1.394217 A    
O11   Cu3   1.975940 S    
N18   C98   1.447080 S    
C8    H4    1.112992 S    
N4    H38   1.032135 S    
C16   H11   1.080422 S    
O19   Cu5   1.982502 S    
C48   C49   1.421924 A    
C25   N2    1.423943 S    
C10   C12   1.594517 S    
C25   C26   1.398253 A    
C67   C69   1.421222 A    
C55   C72   1.465229 S    
C19   C60   1.463562 S    
O21   C61   1.312243 A    
C27   H16   1.080055 S    
N5    O29   1.301375 A    
C74   C75   1.396027 A    
O16   C58   1.307876 A    
C96   H57   1.111558 S    
C23   H12   1.079651 S    
N13   O39   1.300823 A    
C29   C30   1.392466 A    
C92   H39   1.110489 S    
C34   C37   1.419657 A    
C61   C69   1.463984 S    
N19   C99   1.454178 S    
O1    Cu1   1.981017 S    
C15   H10   1.082504 S    
C14   C15   1.387603 A    
O2    Cu2   1.976680 S    
H15   C39   1.082351 S    
N18   H62   1.030067 S    
O8    C4    1.306227 A    
C41   C42   1.416359 A    
C53   N5    1.438633 S    
O6    C3    1.299567 A    
C48   C51   1.449280 A    
N7    O34   1.301649 A    
C79   C80   1.392599 A    
N17   O44   1.302126 A    
C26   H14   1.080668 S    
C32   C36   1.414914 A    
O17   C59   1.280906 A    
C78   H31   1.082799 S    
N16   C97   1.455261 S    
O18   C59   1.318095 A    
C65   N11   1.424451 S    
N9    O38   1.302235 A    
O20   Cu6   1.975229 S    
C84   C85   1.416371 A    
C6    C10   1.558031 S    
C15   C16   1.392454 A    
C94   H49   1.111532 S    
C81   C83   1.414677 A    
O2    C1    1.293440 A    
C33   C34   1.415125 A    
C73   N12   1.420620 S    
C21   C26   1.417106 A    
N6    O31   1.301233 A    
O13   C57   1.310190 A    
C89   C90   1.377468 A    
C57   C86   1.470995 S    
C97   H61   1.109755 S    
O17   Cu5   1.981981 S    
C47   C48   1.437436 A    
C21   C22   1.415570 A    
C7    C11   1.571988 S    
C71   C76   1.413564 A    
Cu3   O15   1.983301 S    
C39   C40   1.392210 A    
C92   H40   1.109467 S    
N19   H66   1.028862 S    
C95   H53   1.111619 S    
C31   C33   1.425807 A    
C75   C76   1.386974 A    
H30   C89   1.079898 S    
C17   C19   1.418334 A    
C88   C89   1.382091 A    
O18   Cu6   1.973303 S    
C93   H43   1.110432 S    
C28   H17   1.082517 S    
Cu5   O21   1.973324 S    
N10   C93   1.445986 S    
O23   C62   1.316880 A    
C63   H26   1.080019 S    
C27   C32   1.420140 A    
C5    C9    1.590392 S    
C38   C39   1.394057 A    
Cu1   O5    1.976682 S    
C12   N19   1.470775 S    
C34   C35   1.411147 A    
O14   C57   1.290692 A    
C11   H7    1.111383 S    
Cu2   O6    1.981018 S    
N11   H46   1.032159 S    
C14   H9    1.082134 S    
C8    H5    1.101146 S    
C12   H6    1.107638 S    
N12   C95   1.453255 S    
O4    Cu2   1.983984 S    
C65   C66   1.398808 A    
N10   H42   1.032155 S    
C33   C58   1.465878 S    
C67   C68   1.404791 A    
C81   C82   1.409480 A    
C98   H65   1.111186 S    
Cu4   O16   1.975835 S    
C5    H1    1.112278 S    
C69   C70   1.444147 A    
C94   H48   1.109358 S    
C77   N14   1.427506 S    
