data_mof_unit_9858.cif
_audit_creation_date              2012-12-11T15:39:26-0500
_audit_creation_method            fapswitch 2.2
_symmetry_space_group_name_H-M    P1
_symmetry_Int_Tables_number       1
_space_group_crystal_system       triclinic
_cell_length_a                    17.338297
_cell_length_b                    24.175866
_cell_length_c                    15.071717
_cell_angle_alpha                 90.006427
_cell_angle_beta                  125.844559
_cell_angle_gamma                 89.929581
_cell_volume                      5121.085105

loop_
_atom_site_label
_atom_site_type_symbol
_atom_type_description
_atom_site_fract_x
_atom_site_fract_y
_atom_site_fract_z
_atom_type_partial_charge
C1    C     C_R   0.351478 0.347607 0.909474 -0.136594
C2    C     C_R   0.436233 0.498017 0.636157 -0.009307
C3    C     C_R   0.188591 0.862628 0.001044 0.037297
C4    C     C_3   0.880881 0.657179 0.583255 0.239082
C5    C     C_3   0.781183 0.639632 0.546033 -0.307968
C6    C     C_3   0.770190 0.644175 0.639137 -1.016064
C7    C     C_3   0.061361 0.555346 0.450478 0.221210
C8    C     C_3   0.145146 0.530725 0.456174 -0.281180
C9    C     C_3   0.113200 0.483290 0.374740 -1.027360
C10   C     C_3   0.380887 0.157186 0.583238 0.239077
C11   C     C_3   0.281189 0.139640 0.546021 -0.307968
C12   C     C_3   0.270197 0.144193 0.639124 -1.016068
C13   C     C_R   0.967531 0.998120 0.291813 -0.016978
C14   C     C_3   0.561380 0.055328 0.450499 0.221220
C15   C     C_3   0.645171 0.030725 0.456184 -0.281220
C16   C     C_3   0.613269 0.983233 0.374877 -1.027437
C17   C     C_3   0.526620 0.598569 0.330051 -0.380785
C18   C     C_3   0.442066 0.634424 0.301001 -0.912722
C19   C     C_3   0.409704 0.601528 0.647357 -0.383743
C20   C     C_3   0.461847 0.629176 0.605052 -0.918916
C21   C     C_3   0.026626 0.098568 0.330056 -0.380784
C22   C     C_3   0.942075 0.134426 0.301009 -0.912718
C23   C     C_3   0.909694 0.101527 0.647355 -0.383749
C24   C     C_R   0.936232 0.998017 0.636157 -0.009300
C25   C     C_3   0.961832 0.129180 0.605048 -0.918908
C26   C     C_R   0.173327 0.500858 0.719224 0.057590
C27   C     C_R   0.798562 0.501206 0.370261 0.050235
C28   C     C_R   0.673328 0.000858 0.719228 0.057617
C29   C     C_R   0.298564 0.001207 0.370260 0.050236
C30   C     C_R   0.020527 0.552621 0.617185 -0.118282
C31   C     C_R   0.923524 0.553402 0.535620 -0.084059
C32   C     C_R   0.520529 0.052622 0.617185 -0.118304
C33   C     C_R   0.690625 0.375742 0.092434 -0.126945
C34   C     C_R   0.423528 0.053403 0.535616 -0.084055
C35   C     C_R   0.070212 0.502834 0.661290 0.103407
C36   C     C_R   0.876521 0.503353 0.487017 0.047486
C37   C     C_R   0.570213 0.002835 0.661296 0.103381
C38   C     C_R   0.376524 0.003353 0.487016 0.047480
C39   C     C_R   0.016501 0.454080 0.634231 -0.188563
C40   C     C_R   0.919774 0.454196 0.546302 -0.168037
C41   C     C_R   0.516501 0.954082 0.634238 -0.188571
C42   C     C_R   0.419775 0.954198 0.546304 -0.168035
C43   C     C_3   0.930991 0.606373 0.487094 0.274486
C44   C     C_R   0.851479 0.847607 0.909474 -0.136599
C45   C     C_3   0.038145 0.603563 0.573606 0.283911
C46   C     C_3   0.430997 0.106371 0.487085 0.274499
C47   C     C_3   0.538150 0.103561 0.573599 0.283908
C48   C     C_R   0.292607 0.770221 0.900603 -0.170182
C49   C     C_R   0.843950 0.686018 0.103326 -0.166560
C50   C     C_R   0.792608 0.270221 0.900603 -0.170181
C51   C     C_R   0.343950 0.186018 0.103325 -0.166555
C52   C     C_R   0.743997 0.315473 0.901525 -0.172007
C53   C     C_R   0.390368 0.232332 0.102526 -0.162838
C54   C     C_R   0.243996 0.815473 0.901524 -0.172006
C55   C     C_R   0.190624 0.875743 0.092433 -0.126947
C56   C     C_R   0.890368 0.732332 0.102527 -0.162839
C57   C     C_R   0.762440 0.333405 0.000865 0.141656
C58   C     C_R   0.358268 0.257785 0.002680 0.135324
C59   C     C_R   0.262440 0.833405 0.000865 0.141652
C60   C     C_R   0.858268 0.757785 0.002681 0.135327
C61   C     C_R   0.446288 0.653621 0.088881 -0.123513
C62   C     C_R   0.600802 0.623000 0.911090 -0.151971
C63   C     C_R   0.946289 0.153621 0.088881 -0.123522
C64   C     C_R   0.100801 0.123000 0.911089 -0.151964
C65   C     C_R   0.843615 0.314055 0.099601 -0.164153
C66   C     C_R   0.384442 0.685486 0.998224 0.042468
C67   C     C_R   0.293082 0.229958 0.904455 -0.168101
C68   C     C_R   0.343614 0.814055 0.099600 -0.164156
C69   C     C_R   0.793083 0.729958 0.904457 -0.168105
C70   C     C_R   0.392547 0.769037 0.098788 -0.169382
C71   C     C_R   0.746934 0.683470 0.905377 -0.160421
C72   C     C_R   0.892547 0.269037 0.098788 -0.169386
C73   C     C_R   0.246932 0.183470 0.905376 -0.160418
C74   C     C_R   0.360604 0.743445 0.999115 0.141654
C75   C     C_R   0.764756 0.665427 0.004353 0.134065
C76   C     C_R   0.860605 0.243446 0.999115 0.141655
C77   C     C_R   0.690763 0.635795 0.003478 0.041664
C78   C     C_R   0.264755 0.165427 0.004352 0.134062
C79   C     C_R   0.361654 0.514514 0.441833 -0.212977
C80   C     C_R   0.369550 0.514013 0.355962 -0.175408
C81   C     C_R   0.861657 0.014518 0.441835 -0.212969
C82   C     C_R   0.869554 0.014016 0.355965 -0.175419
C83   C     C_R   0.453440 0.494266 0.374679 0.176140
C84   C     C_R   0.437441 0.494793 0.543399 0.195623
C85   C     C_R   0.953442 0.994266 0.374680 0.176144
C86   C     C_R   0.937440 0.994793 0.543399 0.195633
C87   C     C_R   0.527519 0.472636 0.475119 -0.206308
C88   C     C_R   0.884442 0.185486 0.998225 0.042469
C89   C     C_R   0.519372 0.472807 0.559978 -0.177616
C90   C     C_R   0.027516 0.972631 0.475118 -0.206303
C91   C     C_R   0.019368 0.972802 0.559976 -0.177624
C92   C     C_R   0.488544 0.452598 0.255651 -0.193461
C93   C     C_R   0.452557 0.453069 0.699149 -0.217872
C94   C     C_R   0.988545 0.952598 0.255653 -0.193461
C95   C     C_R   0.952556 0.953069 0.699149 -0.217857
C96   C     C_R   0.231953 0.546549 0.751273 -0.072373
C97   C     C_R   0.750111 0.546223 0.305129 -0.198962
C98   C     C_R   0.731954 0.046549 0.751275 -0.072405
C99   C     C_R   0.190763 0.135795 0.003477 0.041662
C100  C     C_R   0.250112 0.046223 0.305129 -0.198964
C101  C     C_R   0.496244 0.545353 0.266265 0.231393
C102  C     C_R   0.448897 0.544977 0.695131 0.212927
C103  C     C_R   0.996246 0.045353 0.266267 0.231393
C104  C     C_R   0.948895 0.044977 0.695131 0.212910
C105  C     C_R   0.230095 0.454120 0.746286 -0.151001
C106  C     C_R   0.753851 0.454815 0.305882 -0.125032
C107  C     C_R   0.730095 0.954120 0.746288 -0.150952
C108  C     C_R   0.253852 0.954815 0.305882 -0.125028
C109  C     C_R   0.352563 0.652687 0.908044 -0.156794
C110  C     C_R   0.467528 0.498120 0.291810 -0.016976
C111  C     C_R   0.691226 0.623557 0.093783 -0.115854
C112  C     C_R   0.852563 0.152687 0.908045 -0.156790
C113  C     C_R   0.191226 0.123557 0.093782 -0.115858
C114  C     C_R   0.442872 0.348064 0.091468 -0.125907
C115  C     C_R   0.598240 0.375391 0.909045 -0.123355
C116  C     C_R   0.942872 0.848064 0.091469 -0.125906
C117  C     C_R   0.098240 0.875391 0.909045 -0.123356
C118  C     C_R   0.381494 0.315762 0.000929 0.044606
C119  C     C_R   0.688591 0.362628 0.001044 0.037297
C120  C     C_R   0.881494 0.815762 0.000930 0.044606
H1    H     H_    0.313526 0.333407 0.825920 0.085705
H2    H     H_    0.864011 0.670641 0.181547 0.113659
H3    H     H_    0.884381 0.133526 0.211941 0.264853
H4    H     H_    0.912702 0.119839 0.345216 0.259230
H5    H     H_    0.069714 0.088889 0.418924 0.197684
H6    H     H_    0.074952 0.121422 0.317721 0.169256
H7    H     H_    0.039085 0.119602 0.657553 0.250642
H8    H     H_    0.932081 0.115253 0.520812 0.267270
H9    H     H_    0.952360 0.174713 0.602639 0.252916
H10   H     H_    0.833042 0.097999 0.579278 0.188088
H11   H     H_    0.913950 0.128321 0.709922 0.188492
H12   H     H_    0.769897 0.253466 0.822287 0.111815
H13   H     H_    0.364011 0.170641 0.181545 0.113667
H14   H     H_    0.686037 0.332154 0.823685 0.108478
H15   H     H_    0.444611 0.250626 0.180421 0.112301
H16   H     H_    0.186036 0.832153 0.823684 0.108478
H17   H     H_    0.944610 0.750627 0.180422 0.112299
H18   H     H_    0.863833 0.329374 0.177889 0.108292
H19   H     H_    0.270782 0.246459 0.826110 0.107774
H20   H     H_    0.363833 0.829374 0.177888 0.108297
H21   H     H_    0.749133 0.371063 0.177558 0.093791
H22   H     H_    0.770783 0.746458 0.826112 0.107771
H23   H     H_    0.448411 0.751485 0.176811 0.111154
H24   H     H_    0.690892 0.665880 0.827555 0.112449
H25   H     H_    0.948411 0.251484 0.176812 0.111155
H26   H     H_    0.190890 0.165881 0.827554 0.112446
H27   H     H_    0.299048 0.531735 0.430414 0.133338
H28   H     H_    0.312568 0.530419 0.276866 0.131987
H29   H     H_    0.799054 0.031742 0.430416 0.133321
H30   H     H_    0.812575 0.030425 0.276870 0.131988
H31   H     H_    0.592405 0.457482 0.488341 0.126670
H32   H     H_    0.813526 0.833407 0.825921 0.085707
H33   H     H_    0.578023 0.457619 0.639456 0.124186
H34   H     H_    0.092400 0.957475 0.488339 0.126669
H35   H     H_    0.078015 0.957611 0.639452 0.124185
H36   H     H_    0.497694 0.669605 0.169422 0.111059
H37   H     H_    0.576580 0.627229 0.828062 0.129618
H38   H     H_    0.997694 0.169605 0.169423 0.111061
H39   H     H_    0.076578 0.127229 0.828060 0.129614
H40   H     H_    0.483410 0.409609 0.271182 0.124235
H41   H     H_    0.440015 0.410276 0.673375 0.120007
H42   H     H_    0.983411 0.909609 0.271183 0.124234
H43   H     H_    0.249134 0.871063 0.177558 0.093793
H44   H     H_    0.940014 0.910276 0.673375 0.120008
H45   H     H_    0.213128 0.589331 0.747348 0.119221
H46   H     H_    0.752256 0.587871 0.332259 0.132945
H47   H     H_    0.713129 0.089331 0.747351 0.119218
H48   H     H_    0.252258 0.087871 0.332258 0.132951
H49   H     H_    0.208360 0.411340 0.733864 0.101811
H50   H     H_    0.763959 0.412567 0.334149 0.083642
H51   H     H_    0.708360 0.911340 0.733867 0.101797
H52   H     H_    0.263960 0.912568 0.334149 0.083642
H53   H     H_    0.314643 0.666334 0.824101 0.095820
H54   H     H_    0.909584 0.601643 0.402507 0.062584
H55   H     H_    0.749027 0.628319 0.179194 0.100490
H56   H     H_    0.814644 0.166334 0.824101 0.095817
H57   H     H_    0.249027 0.128319 0.179193 0.100495
H58   H     H_    0.489938 0.334482 0.175433 0.084421
H59   H     H_    0.570904 0.369827 0.824523 0.092173
H60   H     H_    0.989938 0.834482 0.175434 0.084421
H61   H     H_    0.070904 0.869827 0.824523 0.092172
H62   H     H_    0.050568 0.414854 0.670884 0.119368
H63   H     H_    0.883550 0.414879 0.517181 0.115331
H64   H     H_    0.550567 0.914856 0.670894 0.119369
H65   H     H_    0.065570 0.638402 0.632794 0.074332
H66   H     H_    0.383551 0.914881 0.517184 0.115332
H67   H     H_    0.891871 0.700910 0.610790 0.115571
H68   H     H_    0.936755 0.633141 0.656107 0.077548
H69   H     H_    0.727403 0.666628 0.477354 0.200930
H70   H     H_    0.767151 0.596255 0.516292 0.197834
H71   H     H_    0.822056 0.616636 0.707945 0.273467
H72   H     H_    0.697194 0.631535 0.609466 0.270114
H73   H     H_    0.781886 0.687498 0.668995 0.262826
H74   H     H_    0.013662 0.575782 0.369451 0.093595
H75   H     H_    0.022280 0.520856 0.456029 0.104487
H76   H     H_    0.409592 0.101636 0.402500 0.062600
H77   H     H_    0.177604 0.563761 0.436947 0.186789
H78   H     H_    0.199435 0.515023 0.540075 0.214185
H79   H     H_    0.079662 0.450022 0.392196 0.269404
H80   H     H_    0.175538 0.465448 0.381726 0.274388
H81   H     H_    0.061420 0.498486 0.289757 0.271465
H82   H     H_    0.391876 0.200918 0.610765 0.115574
H83   H     H_    0.436761 0.133150 0.656094 0.077547
H84   H     H_    0.227408 0.166632 0.477335 0.200931
H85   H     H_    0.267160 0.096260 0.516293 0.197833
H86   H     H_    0.322067 0.116659 0.707942 0.273468
H87   H     H_    0.565574 0.138403 0.632782 0.074335
H88   H     H_    0.197204 0.131551 0.609459 0.270116
H89   H     H_    0.281887 0.187519 0.668966 0.262826
H90   H     H_    0.513653 0.075744 0.369456 0.093539
H91   H     H_    0.522334 0.020831 0.456089 0.104552
H92   H     H_    0.677540 0.063755 0.436825 0.186776
H93   H     H_    0.699522 0.015085 0.540115 0.214224
H94   H     H_    0.579903 0.949952 0.392536 0.269425
H95   H     H_    0.675597 0.965438 0.381785 0.274404
H96   H     H_    0.561362 0.998351 0.289871 0.271481
H97   H     H_    0.465949 0.677805 0.326258 0.248668
H98   H     H_    0.269896 0.753466 0.822286 0.111816
H99   H     H_    0.384372 0.633521 0.211933 0.264855
H100  H     H_    0.412696 0.619840 0.345211 0.259231
H101  H     H_    0.569706 0.588890 0.418920 0.197685
H102  H     H_    0.574947 0.621423 0.317718 0.169255
H103  H     H_    0.539099 0.619594 0.657559 0.250642
H104  H     H_    0.432095 0.615249 0.520817 0.267273
H105  H     H_    0.452383 0.674711 0.602646 0.252917
H106  H     H_    0.333052 0.598003 0.579279 0.188079
H107  H     H_    0.413961 0.628323 0.709923 0.188488
H108  H     H_    0.965963 0.177806 0.326276 0.248667
N1    N     N_R   0.394180 0.396910 0.943210 -0.035990
N2    N     N_R   0.474350 0.471570 0.793850 -0.045519
N3    N     N_R   0.025650 0.971570 0.206150 -0.050581
N4    N     N_R   0.974350 0.971570 0.793850 -0.045520
N5    N     N_R   0.319480 0.528420 0.793810 -0.056571
N6    N     N_R   0.680520 0.528420 0.206190 -0.037060
N7    N     N_R   0.819480 0.028420 0.793810 -0.056576
N8    N     N_R   0.180520 0.028420 0.206190 -0.037061
N9    N     N_R   0.525640 0.528390 0.206120 -0.069720
N10   N     N_R   0.474360 0.528390 0.793880 -0.068504
N11   N     N_R   0.025640 0.028390 0.206120 -0.069720
N12   N     N_R   0.605820 0.396910 0.056790 -0.039921
N13   N     N_R   0.974360 0.028390 0.793880 -0.068505
N14   N     N_R   0.319490 0.471590 0.793840 -0.041668
N15   N     N_R   0.680510 0.471590 0.206160 -0.035704
N16   N     N_R   0.819490 0.971590 0.793840 -0.041668
N17   N     N_R   0.180510 0.971590 0.206160 -0.035705
N18   N     N_R   0.394130 0.603080 0.943110 -0.041655
N19   N     N_R   0.605870 0.603080 0.056890 -0.038651
N20   N     N_R   0.894130 0.103080 0.943110 -0.041653
N21   N     N_R   0.105870 0.103080 0.056890 -0.038651
N22   N     N_R   0.450990 0.396900 0.056840 -0.035585
N23   N     N_R   0.894180 0.896910 0.943210 -0.035992
N24   N     N_R   0.549010 0.396900 0.943160 -0.037362
N25   N     N_R   0.950990 0.896900 0.056840 -0.035585
N26   N     N_R   0.049010 0.896900 0.943160 -0.037362
N27   N     N_R   0.105820 0.896910 0.056790 -0.039921
N28   N     N_R   0.450950 0.603070 0.056740 -0.039164
N29   N     N_R   0.549050 0.603070 0.943260 -0.041770
N30   N     N_R   0.950950 0.103070 0.056740 -0.039163
N31   N     N_R   0.049050 0.103070 0.943260 -0.041769
N32   N     N_R   0.525650 0.471570 0.206150 -0.050581
Ni1   Ni    Ni4+2 0.434860 0.434850 0.869700 0.208240
Ni2   Ni    Ni4+2 0.565140 0.434850 0.130300 0.207477
Ni3   Ni    Ni4+2 0.934860 0.934850 0.869700 0.208244
Ni4   Ni    Ni4+2 0.065140 0.934850 0.130300 0.207477
Ni5   Ni    Ni4+2 0.565130 0.565140 0.130240 0.204060
Ni6   Ni    Ni4+2 0.434870 0.565140 0.869760 0.203311
Ni7   Ni    Ni4+2 0.065130 0.065140 0.130240 0.204060
Ni8   Ni    Ni4+2 0.934870 0.065140 0.869760 0.203306
O1    O     O_3   0.887796 0.655030 0.493995 -0.665919
O2    O     O_3   0.095454 0.595446 0.534637 -0.662758
O3    O     O_3   0.387800 0.155029 0.493977 -0.665922
O4    O     O_3   0.595457 0.095442 0.534629 -0.662755

loop_
_geom_bond_atom_site_label_1
_geom_bond_atom_site_label_2
_ccdc_geom_bond_type
C93   N2    A    
N11   Ni7   S    
C83   C87   A    
N28   Ni5   S    
C46   O3    S    
N4    Ni3   S    
C63   C88   A    
C52   H14   S    
C41   C42   A    
C31   C43   S    
C30   C45   S    
C8    H78   S    
C19   C20   S    
C53   H15   S    
C106  N15   A    
C15   H93   S    
C25   H9    S    
C81   C82   A    
C7    C8    S    
C48   H98   S    
C48   C54   A    
C70   H23   S    
N26   N27   A    
C105  H49   S    
C14   H91   S    
C82   C85   A    
C111  H55   S    
C12   H88   S    
C4    H67   S    
N9    Ni5   S    
N27   Ni4   S    
N3    Ni4   S    
C5    H70   S    
C38   C42   A    
C86   C91   A    
C31   C36   A    
C5    C6    S    
C19   C102  S    
C109  H53   S    
N23   N25   A    
C22   H108  S    
C44   C120  A    
C28   C107  A    
C21   C103  S    
C104  N13   A    
C114  N22   A    
C58   C118  S    
C113  N21   A    
N3    N11   A    
C17   H102  S    
C16   H96   S    
C19   H107  S    
N22   Ni2   S    
C17   C101  S    
N31   Ni8   S    
C62   C77   A    
N19   N29   A    
N5    Ni6   S    
N2    N10   A    
C2    C84   S    
C61   C66   A    
C20   H103  S    
C64   C99   A    
C27   C97   A    
C98   N7    A    
C28   C37   S    
C8    C9    S    
C114  H58   S    
C87   C89   A    
C77   C111  A    
C6    H71   S    
C70   C74   A    
N8    Ni7   S    
C50   C52   A    
C73   C78   A    
C49   C75   A    
C29   C108  A    
C34   C46   S    
N15   Ni2   S    
C93   H41   S    
C13   C103  A    
C3    C117  A    
C10   H83   S    
C94   H42   S    
C81   C86   A    
C9    H80   S    
C72   C76   A    
N6    N15   A    
C57   C119  S    
C40   H63   S    
C42   H66   S    
C113  H57   S    
N2    Ni1   S    
C18   H100  S    
C116  N25   A    
C87   H31   S    
C21   C22   S    
C37   C41   A    
C106  H50   S    
C8    H77   S    
N7    Ni8   S    
C3    C55   A    
N21   N31   A    
C80   C83   A    
C18   H99   S    
C47   O4    S    
C26   C105  A    
C92   N32   A    
C94   N3    A    
C54   C59   A    
C2    C93   A    
C26   C96   A    
C45   O2    S    
C83   C110  S    
C102  N10   A    
C15   C16   S    
C14   H90   S    
C96   N5    A    
C101  N9    A    
N4    N13   A    
C48   C74   A    
N10   Ni6   S    
C17   H101  S    
C95   N4    A    
N32   Ni2   S    
C52   C57   A    
C63   N30   A    
C57   C65   A    
C39   C40   A    
N6    Ni5   S    
C107  H51   S    
C115  N24   A    
C27   C106  A    
C33   H21   S    
C69   H22   S    
C1    C118  A    
C108  N17   A    
C20   H105  S    
C116  C120  A    
C23   H10   S    
C24   C104  A    
C32   C34   A    
C109  N18   A    
C29   C38   S    
C16   H95   S    
C35   C39   A    
C91   H35   S    
C15   H92   S    
C50   C76   A    
C59   C68   A    
C66   C74   S    
C75   C77   S    
C117  N26   A    
C58   C67   A    
C44   N23   A    
C89   H33   S    
C23   C104  S    
C36   C40   A    
C30   C31   A    
C53   C58   A    
C54   H16   S    
N9    N32   A    
C17   C18   S    
C20   H104  S    
C62   H37   S    
C23   H11   S    
C41   H64   S    
N16   Ni3   S    
C82   H30   S    
C32   C37   A    
C50   H12   S    
C7    H74   S    
C16   H94   S    
C10   H82   S    
C62   N29   A    
C114  C118  A    
C9    H81   S    
N24   Ni1   S    
C18   H97   S    
C67   C73   A    
C65   H18   S    
C30   C35   A    
N25   Ni4   S    
C111  N19   A    
C112  H56   S    
N30   Ni7   S    
N26   Ni3   S    
N12   N24   A    
C61   N28   A    
C115  C119  A    
C10   O3    S    
C116  H60   S    
C27   C36   S    
C32   C47   S    
N20   N30   A    
C107  N16   A    
C100  N8    A    
C90   H34   S    
C84   C89   A    
C21   H5    S    
C49   C56   A    
C61   H36   S    
C105  N14   A    
C78   C99   S    
C67   H19   S    
C22   H3    S    
C28   C98   A    
C4    O1    S    
C112  N20   A    
C76   C88   S    
C46   C47   S    
N13   Ni8   S    
C29   C100  A    
C34   C38   A    
C14   O4    S    
C97   N6    A    
N8    N17   A    
C19   H106  S    
C7    O2    S    
N29   Ni6   S    
N1    N22   A    
N12   Ni2   S    
C4    C5    S    
C92   H40   S    
C99   C113  A    
C79   H27   S    
C85   C90   A    
C64   N31   A    
C22   H4    S    
N20   Ni8   S    
C1    N1    A    
N1    Ni1   S    
C25   H8    S    
C24   C86   S    
C65   C72   A    
C13   C94   A    
C45   H65   S    
C69   C71   A    
C44   H32   S    
C47   H87   S    
C73   H26   S    
C100  H48   S    
C12   H89   S    
N21   Ni7   S    
C108  H52   S    
C101  C110  A    
C51   C78   A    
C55   H43   S    
C43   C45   S    
C33   N12   A    
C95   H44   S    
C24   C95   A    
C88   C112  A    
C71   C75   A    
C56   H17   S    
C51   H13   S    
C92   C110  A    
C90   C91   A    
C79   C84   A    
N18   N28   A    
C60   C69   A    
N5    N14   A    
C81   H29   S    
C49   H2    S    
C64   H39   S    
C43   H54   S    
N14   Ni1   S    
C55   N27   A    
C60   C120  S    
C117  H61   S    
C11   H84   S    
C23   C25   S    
C66   C109  A    
C25   H7    S    
C1    H1    S    
N7    N16   A    
C43   O1    S    
C39   H62   S    
C12   H86   S    
C10   C11   S    
C5    H69   S    
C79   C80   A    
N19   Ni5   S    
C9    H79   S    
C26   C35   S    
C80   H28   S    
C56   C60   A    
C68   H20   S    
C33   C119  A    
C103  N11   A    
C98   H47   S    
C6    H72   S    
C46   H76   S    
C72   H25   S    
C68   C70   A    
C2    C102  A    
C14   C15   S    
C13   C85   S    
C96   H45   S    
C11   H85   S    
C63   H38   S    
C51   C53   A    
C21   H6    S    
N18   Ni6   S    
N17   Ni4   S    
C7    H75   S    
C6    H73   S    
C115  H59   S    
C4    H68   S    
C97   H46   S    
C11   C12   S    
N23   Ni3   S    
C71   H24   S    
C3    C59   S    
