data_mof_unit_44236.cif
_audit_creation_date              2012-12-10T17:39:09-0500
_audit_creation_method            fapswitch 2.2
_symmetry_space_group_name_H-M    P1
_symmetry_Int_Tables_number       1
_space_group_crystal_system       triclinic
_cell_length_a                    11.951811
_cell_length_b                    12.884394
_cell_length_c                    23.422145
_cell_angle_alpha                 89.86761
_cell_angle_beta                  86.449131
_cell_angle_gamma                 93.278331
_cell_volume                      3593.94173272

loop_
_atom_site_label
_atom_site_type_symbol
_atom_type_description
_atom_site_fract_x
_atom_site_fract_y
_atom_site_fract_z
_atom_type_partial_charge
C1    C     C_R   0.522021 0.700534 0.498680 0.893639
C2    C     C_R   0.397012 0.492143 0.300356 -0.216113
C3    C     C_R   0.404907 0.509152 0.765949 -0.189921
C4    C     C_R   0.397284 0.488660 0.241131 -0.167376
C5    C     C_R   0.506604 0.500542 0.791463 0.248509
C6    C     C_R   0.499097 0.488248 0.208424 0.205040
C7    C     C_R   0.465121 0.188146 0.499857 -0.055706
C8    C     C_R   0.535262 0.811839 0.497317 -0.046783
C9    C     C_R   0.649725 0.970211 0.504517 -0.224931
C10   C     C_R   0.351398 0.030008 0.490080 -0.224386
C11   C     C_R   0.640647 0.862778 0.502865 -0.196062
C12   C     C_R   0.478011 0.299453 0.500733 0.893240
C13   C     C_R   0.360058 0.137360 0.493223 -0.185562
C14   C     C_R   0.439596 0.867555 0.491870 -0.284419
C15   C     C_R   0.561170 0.132391 0.503831 -0.269220
C16   C     C_R   0.500550 0.500271 0.610731 0.909684
C17   C     C_R   0.499571 0.499444 0.389276 0.907996
C18   C     C_R   0.447677 0.974265 0.493912 0.184393
C19   C     C_R   0.553415 0.025846 0.500683 0.191802
C20   C     C_R   0.953246 0.388827 0.453923 0.419187
C21   C     C_R   0.047087 0.612004 0.544426 0.412414
C22   C     C_R   0.835672 0.401680 0.458583 -0.144410
C23   C     C_R   0.607650 0.494851 0.758247 0.542196
C24   C     C_R   0.163516 0.596664 0.542459 -0.126859
C25   C     C_R   0.859207 0.549617 0.517510 -0.032941
C26   C     C_R   0.141175 0.451588 0.481386 -0.031698
C27   C     C_R   0.976471 0.541073 0.515428 -0.079657
C28   C     C_R   0.023592 0.459722 0.483347 -0.072563
C29   C     C_R   0.464539 0.401948 0.119787 0.477827
C30   C     C_R   0.540922 0.586499 0.880048 0.530958
C31   C     C_R   0.533566 0.580016 0.119170 0.566962
C32   C     C_R   0.471841 0.408442 0.880568 0.538193
C33   C     C_R   0.536402 0.583447 0.059540 -0.035735
C34   C     C_R   0.601422 0.489197 0.234860 0.544920
C35   C     C_R   0.469568 0.404772 0.940211 -0.025976
C36   C     C_R   0.502104 0.493279 0.029896 -0.021270
C37   C     C_R   0.504116 0.494868 0.969873 -0.019328
C38   C     C_R   0.465579 0.401610 0.060134 -0.011967
C39   C     C_R   0.540420 0.586634 0.939662 -0.019691
C40   C     C_R   0.572557 0.674422 0.029064 -0.154910
C41   C     C_R   0.433537 0.313771 0.970696 -0.158654
C42   C     C_R   0.574593 0.675990 0.969595 -0.159637
C43   C     C_R   0.431543 0.312208 0.030183 -0.158973
C44   C     C_3   0.939063 0.258717 0.382774 0.086292
C45   C     C_R   0.604488 0.492812 0.698684 -0.331602
C46   C     C_3   0.871706 0.161648 0.406932 -0.371689
C47   C     C_3   0.788213 0.118763 0.364999 -0.926704
C48   C     C_3   0.058626 0.787180 0.570574 0.059152
C49   C     C_3   0.110787 0.818595 0.626542 -0.351842
C50   C     C_3   0.185848 0.918103 0.619164 -0.925554
C51   C     C_3   0.790331 0.559600 0.768257 0.102850
C52   C     C_3   0.891860 0.509355 0.739203 -0.350557
C53   C     C_3   0.985409 0.590697 0.721382 -0.935666
C54   C     C_3   0.731284 0.389674 0.188942 0.075167
C55   C     C_3   0.810053 0.350012 0.232278 -0.383670
C56   C     C_R   0.600937 0.495486 0.294097 -0.298419
C57   C     C_3   0.854004 0.245344 0.214362 -0.920194
C58   C     C_R   0.502448 0.501179 0.672898 -0.097227
C59   C     C_R   0.498941 0.496103 0.327114 -0.112396
C60   C     C_R   0.402712 0.509991 0.706847 -0.211601
H1    H     H_    0.599352 0.744570 0.051015 0.192667
H2    H     H_    0.680445 0.499819 0.314043 0.174852
H3    H     H_    0.323063 0.516722 0.687848 0.170844
H4    H     H_    0.317357 0.492282 0.325063 0.175323
H5    H     H_    0.327591 0.514834 0.792130 0.158494
H6    H     H_    0.318613 0.487513 0.220488 0.163903
H7    H     H_    0.642454 0.171656 0.509424 0.157736
H8    H     H_    0.358129 0.828116 0.486867 0.156562
H9    H     H_    0.285462 0.180392 0.489833 0.169383
H10   H     H_    0.715103 0.819818 0.506912 0.162439
H11   H     H_    0.731175 0.009552 0.509399 0.139983
H12   H     H_    0.406682 0.243647 0.948740 0.193177
H13   H     H_    0.270037 0.990738 0.484843 0.139721
H14   H     H_    0.998940 0.233042 0.348201 0.167607
H15   H     H_    0.886062 0.313650 0.361469 0.119290
H16   H     H_    0.930539 0.100831 0.416108 0.224927
H17   H     H_    0.825249 0.179743 0.447844 0.213408
H18   H     H_    0.727632 0.177996 0.355832 0.265417
H19   H     H_    0.740733 0.049078 0.383901 0.275405
H20   H     H_    0.833142 0.095985 0.324450 0.270268
H21   H     H_    0.997141 0.845231 0.560817 0.160825
H22   H     H_    0.123141 0.791492 0.533956 0.118794
H23   H     H_    0.180545 0.391493 0.456475 0.180756
H24   H     H_    0.042676 0.830933 0.659916 0.229864
H25   H     H_    0.161448 0.755460 0.641566 0.224071
H26   H     H_    0.258747 0.904868 0.588899 0.266101
H27   H     H_    0.217758 0.941419 0.661047 0.276397
H28   H     H_    0.138008 0.982132 0.602796 0.263190
H29   H     H_    0.817117 0.599408 0.807603 0.183675
H30   H     H_    0.761846 0.621551 0.739959 0.136217
H31   H     H_    0.924414 0.452962 0.769165 0.241311
H32   H     H_    0.866281 0.466359 0.700648 0.224728
H33   H     H_    0.954316 0.647998 0.691570 0.294151
H34   H     H_    0.820371 0.610707 0.541864 0.177279
H35   H     H_    0.056742 0.552249 0.699351 0.268294
H36   H     H_    0.015834 0.631984 0.759526 0.260548
H37   H     H_    0.776204 0.392548 0.145946 0.179546
H38   H     H_    0.657213 0.333545 0.185696 0.151784
H39   H     H_    0.882355 0.407323 0.235899 0.241789
H40   H     H_    0.764458 0.340949 0.274928 0.206410
H41   H     H_    0.783323 0.185786 0.212709 0.274706
H42   H     H_    0.912598 0.220013 0.245904 0.257038
H43   H     H_    0.900017 0.251852 0.171709 0.271841
H44   H     H_    0.219573 0.646827 0.565936 0.146995
H45   H     H_    0.777023 0.348720 0.438635 0.149162
H46   H     H_    0.602813 0.747314 0.947224 0.191740
H47   H     H_    0.403297 0.240897 0.052559 0.192975
H48   H     H_    0.681418 0.484037 0.672754 0.172910
N1    N     N_R   0.498745 0.490091 0.147697 -0.346517
N2    N     N_R   0.506898 0.498340 0.852131 -0.337743
N3    N     N_R   0.207800 0.519350 0.510590 -0.130327
N4    N     N_R   0.792200 0.480650 0.489410 -0.126293
O1    O     O_R   0.421690 0.658830 0.502820 -0.629492
O2    O     O_2   0.574344 0.673597 0.850071 -0.578892
O3    O     O_2   0.564921 0.665684 0.148612 -0.536908
O4    O     O_2   0.439592 0.323156 0.851049 -0.550200
O5    O     O_3   0.003050 0.306082 0.425517 -0.665701
O6    O     O_3   0.999077 0.689186 0.577676 -0.668890
O7    O     O_3   0.706204 0.481533 0.785056 -0.643556
O8    O     O_3   0.702471 0.492124 0.202644 -0.630845
O9    O     O_R   0.578310 0.341170 0.497180 -0.629531
O10   O     O_R   0.609320 0.646410 0.496030 -0.627708
O11   O     O_R   0.390680 0.353590 0.503970 -0.625505
O12   O     O_R   0.406170 0.506240 0.587240 -0.620368
O13   O     O_R   0.593830 0.493760 0.412760 -0.622752
O14   O     O_R   0.593790 0.493820 0.580450 -0.619917
O15   O     O_R   0.406210 0.506180 0.419550 -0.621438
O16   O     O_2   0.430592 0.315008 0.149780 -0.572759
Zn1   Zn    Zn3+2 0.374720 0.508290 0.504530 0.947102
Zn2   Zn    Zn3+2 0.625280 0.491710 0.495470 0.945186

loop_
_geom_bond_atom_site_label_1
_geom_bond_atom_site_label_2
_ccdc_geom_bond_type
C34   C56   A    
C26   H23   S    
C23   C45   A    
C54   O8    S    
C53   H35   S    
C1    C8    S    
C14   C18   A    
C47   H19   S    
O9    Zn2   S    
C46   H16   S    
C11   H10   S    
C15   C19   A    
C57   H42   S    
O1    Zn1   S    
C30   N2    A    
C60   H3    S    
C49   H24   S    
C29   N1    A    
C36   C37   A    
C35   C37   A    
C51   H30   S    
C23   O7    S    
C10   H13   S    
C5    N2    S    
O14   Zn2   S    
C58   C60   A    
C33   C36   A    
C48   H21   S    
C18   C19   A    
C1    O10   A    
C25   N4    A    
C46   C47   S    
O13   Zn2   S    
C9    C19   A    
C12   O9    A    
C29   O16   S    
C44   C46   S    
C55   H40   S    
C30   C39   A    
C51   O7    S    
C31   C33   A    
C54   H37   S    
C45   H48   S    
C50   H28   S    
C3    C60   A    
C40   C42   A    
C21   C27   A    
C25   H34   S    
O11   Zn1   S    
C53   H36   S    
C41   C43   A    
C3    H5    S    
C24   N3    A    
C1    O1    A    
C47   H20   S    
C31   O3    S    
C20   O5    S    
C2    H4    S    
C39   C42   A    
C34   O8    S    
C7    C12   S    
C57   H43   S    
C45   C58   A    
C33   C40   A    
C53   H33   S    
C51   C52   S    
C32   C35   A    
C49   H25   S    
C4    C6    A    
C2    C59   A    
C17   O15   A    
C43   H47   S    
C20   C28   A    
C40   H1    S    
C6    C34   A    
C24   H44   S    
C29   C38   A    
C44   H15   S    
C2    C4    A    
O15   Zn1   S    
C21   O6    S    
C9    C11   A    
C5    C23   A    
C15   H7    S    
C31   N1    A    
C16   C58   S    
C32   O4    S    
C44   H14   S    
C42   H46   S    
C32   N2    A    
C50   H27   S    
C17   C59   S    
C41   H12   S    
C48   C49   S    
C20   C22   A    
C22   N4    A    
C55   C57   S    
C6    N1    S    
C56   H2    S    
C52   H32   S    
C52   C53   S    
N3    Zn1   S    
C30   O2    S    
C54   C55   S    
C8    C14   A    
C9    H11   S    
C3    C5    A    
C10   C13   A    
C46   H17   S    
C48   O6    S    
C25   C27   A    
C22   H45   S    
C57   H41   S    
C26   C28   A    
C56   C59   A    
C36   C38   A    
C16   O12   A    
C38   C43   A    
C37   C39   A    
C51   H29   S    
C4    H6    S    
C17   O13   A    
C12   O11   A    
C13   H9    S    
C44   O5    S    
C10   C18   A    
C8    C11   A    
C7    C15   A    
C48   H22   S    
O12   Zn1   S    
C35   C41   A    
C50   H26   S    
C7    C13   A    
C49   C50   S    
C21   C24   A    
C55   H39   S    
C27   C28   A    
C14   H8    S    
C54   H38   S    
C52   H31   S    
C47   H18   S    
N4    Zn2   S    
C16   O14   A    
C26   N3    A    
O10   Zn2   S    
