data_mof_unit_18014.cif
_audit_creation_date              2012-12-11T16:24:02-0500
_audit_creation_method            fapswitch 2.2
_symmetry_space_group_name_H-M    P1
_symmetry_Int_Tables_number       1
_space_group_crystal_system       triclinic
_cell_length_a                    14.758564
_cell_length_b                    14.758042
_cell_length_c                    33.30138
_cell_angle_alpha                 96.034588
_cell_angle_beta                  96.380576
_cell_angle_gamma                 61.18162
_cell_volume                      6304.53867785

loop_
_atom_site_label
_atom_site_type_symbol
_atom_type_description
_atom_site_fract_x
_atom_site_fract_y
_atom_site_fract_z
_atom_type_partial_charge
C1    C     C_R   0.390896 0.699544 0.446080 0.546852
C2    C     C_R   0.333922 0.344251 0.308401 0.050941
C3    C     C_R   0.413002 0.259169 0.329132 0.024827
C4    C     C_R   0.430373 0.271569 0.371104 -0.149504
C5    C     C_R   0.395680 0.253724 0.165579 -0.093861
C6    C     C_R   0.386006 0.234875 0.123831 -0.127663
C7    C     C_R   0.210757 0.378380 0.121555 -0.123216
C8    C     C_R   0.220632 0.396919 0.163349 -0.114912
C9    C     C_R   0.311903 0.332552 0.185458 0.038982
C10   C     C_1   0.316821 0.340671 0.228726 0.021532
C11   C     C_1   0.322897 0.343287 0.265039 0.048986
C12   C     C_R   0.405888 0.386423 0.433956 0.545471
C13   C     C_R   0.292005 0.294579 0.101636 0.019422
C14   C     C_R   0.748947 0.375005 0.408488 -0.008053
C15   C     C_R   0.776940 0.437715 0.389865 -0.134760
C16   C     C_R   0.797478 0.418333 0.349200 -0.123416
C17   C     C_R   0.789703 0.336567 0.326279 0.004159
C18   C     C_R   0.766727 0.269219 0.345279 0.013270
C19   C     C_R   0.749376 0.288032 0.386582 -0.093210
C20   C     C_R   0.820826 0.312472 0.201965 0.341381
C21   C     C_R   0.801274 0.327386 0.282592 0.317281
C22   C     C_R   0.825094 0.391174 0.140055 -0.118614
C23   C     C_R   0.699823 0.410247 0.447263 0.545001
C24   C     C_R   0.859426 0.379567 0.101602 -0.130478
C25   C     C_R   0.910640 0.196414 0.098625 -0.129423
C26   C     C_R   0.877342 0.207823 0.137208 -0.118101
C27   C     C_R   0.838167 0.304434 0.158852 0.035092
C28   C     C_R   0.906275 0.281281 0.081295 0.022135
C29   C     C_R   0.370645 0.754452 0.409012 0.021164
C30   C     C_R   0.276806 0.783407 0.385556 -0.126832
C31   C     C_R   0.266622 0.811499 0.346048 -0.115295
C32   C     C_R   0.349964 0.811424 0.329357 0.034460
C33   C     C_R   0.440231 0.791970 0.354051 -0.116966
C34   C     C_R   0.393836 0.700919 0.561415 0.566370
C35   C     C_R   0.450533 0.763620 0.393600 -0.129704
C36   C     C_R   0.343463 0.829077 0.204469 0.349097
C37   C     C_R   0.345912 0.822051 0.285647 0.349542
C38   C     C_R   0.258974 0.831717 0.135246 -0.118394
C39   C     C_R   0.239309 0.862145 0.095678 -0.129964
C40   C     C_R   0.381465 0.902469 0.105144 -0.129894
C41   C     C_R   0.401183 0.871941 0.144779 -0.114796
C42   C     C_R   0.336833 0.841105 0.160744 0.035246
C43   C     C_R   0.297106 0.902584 0.080953 0.021179
C44   C     C_R   0.377277 0.369094 0.586871 0.027195
C45   C     C_R   0.407622 0.388535 0.549113 0.537047
C46   C     C_R   0.276810 0.430165 0.601174 0.133183
C47   C     C_R   0.263999 0.426989 0.642427 -0.090135
C48   C     C_R   0.347523 0.361621 0.668150 0.002810
C49   C     C_R   0.442404 0.293833 0.652038 -0.132747
C50   C     C_R   0.457037 0.297453 0.612089 -0.153295
C51   C     C_R   0.324134 0.365777 0.792583 0.345776
C52   C     C_R   0.338212 0.364468 0.711959 0.346495
C53   C     C_R   0.218830 0.410496 0.852388 -0.121336
C54   C     C_R   0.206213 0.386102 0.889976 -0.130531
C55   C     C_R   0.387699 0.257602 0.895478 -0.130097
C56   C     C_R   0.701102 0.413686 0.562763 0.545957
C57   C     C_R   0.400499 0.282522 0.858069 -0.117229
C58   C     C_R   0.315075 0.355741 0.835325 0.033612
C59   C     C_R   0.289506 0.306109 0.910941 0.021789
C60   C     C_R   0.752658 0.380857 0.603208 0.012338
C61   C     C_R   0.770967 0.449954 0.630745 -0.138545
C62   C     C_R   0.797616 0.428666 0.671424 -0.144116
C63   C     C_R   0.806945 0.337999 0.685280 0.053726
C64   C     C_R   0.795367 0.264149 0.657508 0.026796
C65   C     C_R   0.768347 0.286800 0.616650 -0.159364
C66   C     C_R   0.881040 0.214916 0.823367 -0.099177
C67   C     C_R   0.370781 0.366249 0.392408 0.008697
C68   C     C_R   0.910391 0.202881 0.864613 -0.131464
C69   C     C_R   0.869664 0.383512 0.873837 -0.123502
C70   C     C_R   0.840217 0.395329 0.832641 -0.116069
C71   C     C_R   0.848849 0.310335 0.807210 0.036667
C72   C     C_1   0.832851 0.319155 0.764254 0.021859
C73   C     C_1   0.821489 0.326929 0.728236 0.055138
C74   C     C_R   0.908495 0.286216 0.889989 0.019429
C75   C     C_R   0.379735 0.751659 0.602791 0.036283
C76   C     C_R   0.282089 0.803453 0.619471 0.125318
C77   C     C_R   0.276413 0.833156 0.660868 -0.130766
C78   C     C_R   0.287691 0.446806 0.371760 -0.130491
C79   C     C_R   0.366272 0.809725 0.686111 0.025976
C80   C     C_R   0.463833 0.763138 0.669478 0.019742
C81   C     C_R   0.468909 0.735645 0.627915 -0.191827
C82   C     C_R   0.399867 0.879297 0.833833 -0.099435
C83   C     C_R   0.379186 0.907618 0.874461 -0.129494
C84   C     C_R   0.226692 0.883649 0.862631 -0.123058
C85   C     C_R   0.247606 0.855342 0.822034 -0.115822
C86   C     C_R   0.332517 0.855928 0.807411 0.035864
C87   C     C_1   0.346329 0.839328 0.764867 0.020066
C88   C     C_1   0.356027 0.826664 0.729033 0.053531
C89   C     C_R   0.269800 0.435865 0.330048 -0.138702
C90   C     C_R   0.290437 0.913337 0.888976 0.019507
C91   C     C_R   0.963453 0.264156 0.045435 0.546725
C92   C     C_R   0.272875 0.259451 0.060006 0.544862
C93   C     C_R   0.259315 0.959628 0.043797 0.545967
C94   C     C_R   0.962294 0.267807 0.930781 0.543037
C95   C     C_R   0.270668 0.264373 0.945459 0.545617
C96   C     C_R   0.256053 0.964968 0.929013 0.543766
Cr1   Cr    Cr6+3 0.576280 0.580550 0.506370 1.012557
Cr2   Cr    Cr6+3 0.346780 0.572400 0.496520 1.028628
Cr3   Cr    Cr6+3 0.576960 0.347070 0.497150 1.018280
Cr4   Cr    Cr6+3 0.087320 0.083240 0.984860 1.015465
Cr5   Cr    Cr6+3 0.087720 0.316210 0.996740 1.014900
Cr6   Cr    Cr6+3 0.317350 0.090340 0.995890 1.015972
H1    H     H_    0.449953 0.169913 0.109386 0.131333
H2    H     H_    0.727047 0.239675 0.400791 0.175687
H3    H     H_    0.854292 0.446435 0.088725 0.130748
H4    H     H_    0.815975 0.469842 0.335156 0.139296
H5    H     H_    0.794283 0.466802 0.155950 0.138818
H6    H     H_    0.945939 0.119749 0.083573 0.133649
H7    H     H_    0.886646 0.140017 0.150772 0.137885
H8    H     H_    0.213432 0.778195 0.396767 0.137115
H9    H     H_    0.523570 0.742467 0.411096 0.131878
H10   H     H_    0.174641 0.860051 0.077536 0.130869
H11   H     H_    0.466711 0.203704 0.182589 0.149239
H12   H     H_    0.195216 0.828221 0.327991 0.145187
H13   H     H_    0.505299 0.792580 0.342164 0.141143
H14   H     H_    0.209431 0.806130 0.146445 0.136647
H15   H     H_    0.427859 0.932607 0.094494 0.132276
H16   H     H_    0.462666 0.878693 0.163565 0.145689
H17   H     H_    0.534066 0.248200 0.601874 0.138134
H18   H     H_    0.129614 0.425330 0.901299 0.132619
H19   H     H_    0.190090 0.476152 0.655009 0.131843
H20   H     H_    0.507595 0.240455 0.670730 0.152501
H21   H     H_    0.151893 0.468271 0.835833 0.135012
H22   H     H_    0.453491 0.196535 0.911245 0.131313
H23   H     H_    0.476142 0.239893 0.846023 0.140880
H24   H     H_    0.940410 0.126874 0.876056 0.130014
H25   H     H_    0.887827 0.148731 0.803822 0.149066
H26   H     H_    0.754996 0.232616 0.595545 0.108402
H27   H     H_    0.758974 0.523266 0.621388 0.124549
H28   H     H_    0.815094 0.469561 0.820341 0.120473
H29   H     H_    0.867221 0.449149 0.892565 0.130367
H30   H     H_    0.493982 0.208528 0.386917 0.129276
H31   H     H_    0.806775 0.485366 0.692491 0.118866
H32   H     H_    0.429678 0.930187 0.893923 0.130785
H33   H     H_    0.465997 0.879582 0.822713 0.145819
H34   H     H_    0.544350 0.696172 0.615528 0.120973
H35   H     H_    0.195269 0.836991 0.801728 0.118090
H36   H     H_    0.157697 0.887436 0.872811 0.131076
H37   H     H_    0.201543 0.870405 0.673718 0.120290
H38   H     H_    0.240503 0.520718 0.387344 0.136023
H39   H     H_    0.155499 0.458216 0.178608 0.116491
H40   H     H_    0.137356 0.425683 0.105331 0.131517
H41   H     H_    0.208809 0.501046 0.314355 0.119537
H42   H     H_    0.777395 0.505128 0.406045 0.135552
N1    N     N_R   0.767593 0.406360 0.221635 -0.226211
N2    N     N_R   0.245990 0.423131 0.728671 -0.236927
N3    N     N_R   0.423294 0.308340 0.736472 -0.219327
N4    N     N_R   0.416383 0.308668 0.775896 -0.225156
N5    N     N_R   0.757770 0.413644 0.261214 -0.217663
N6    N     N_R   0.855792 0.233657 0.263089 -0.230140
N7    N     N_R   0.865156 0.226343 0.223480 -0.223085
N8    N     N_R   0.267447 0.821551 0.220895 -0.227137
N9    N     N_R   0.268839 0.817746 0.260643 -0.226068
N10   N     N_R   0.422274 0.829259 0.269265 -0.213218
N11   N     N_R   0.420693 0.833415 0.229448 -0.211720
N12   N     N_R   0.239034 0.423380 0.768221 -0.232858
O1    O     O_R   0.679450 0.499830 0.463150 -0.515069
O2    O     O_R   0.356040 0.477400 0.534170 -0.489246
O3    O     O_R   0.495910 0.323070 0.537100 -0.523942
O4    O     O_R   0.663920 0.359620 0.542290 -0.500652
O5    O     O_3   0.500010 0.500010 0.500010 -0.242845
O6    O     O_R   0.170070 0.978950 0.027680 -0.519285
O7    O     O_R   0.001760 0.175230 0.026640 -0.502022
O8    O     O_R   0.984760 0.333570 0.037150 -0.518686
O9    O     O_R   0.183410 0.309240 0.041890 -0.501482
O10   O     O_R   0.340240 0.172500 0.045430 -0.518916
O11   O     O_R   0.309670 0.000990 0.032050 -0.501648
O12   O     O_R   0.480650 0.664000 0.464630 -0.501451
O13   O     O_R   0.168330 0.982130 0.939200 -0.520041
O14   O     O_R   0.000140 0.178170 0.944610 -0.501414
O15   O     O_R   0.983010 0.336750 0.948660 -0.520096
O16   O     O_R   0.181800 0.312190 0.959860 -0.502940
O17   O     O_R   0.338500 0.175680 0.956950 -0.518045
O18   O     O_R   0.308050 0.003930 0.950020 -0.501060
O19   O     O_3   0.164130 0.163270 0.992500 -0.237219
O20   O     O_R   0.323930 0.675950 0.455370 -0.517810
O21   O     O_R   0.354700 0.475360 0.451930 -0.504763
O22   O     O_R   0.494470 0.320860 0.448390 -0.513763
O23   O     O_R   0.662580 0.357570 0.460050 -0.503583
O24   O     O_R   0.680900 0.502040 0.551870 -0.521849
O25   O     O_R   0.481990 0.666040 0.546870 -0.513629
O26   O     O_R   0.325370 0.678160 0.544080 -0.476497
C97   C     C_2   0.749577 0.186155 0.322255 0.233986
H43   H     H_    0.735360 0.185643 0.289650 0.146544
O27   O     O_2   0.749087 0.117622 0.339698 -0.524740
N13   N     N_2   0.191843 0.493868 0.574103 -0.516684
H44   H     H_    0.197078 0.464945 0.544392 0.259408
C98   C     C_3   0.086998 0.543393 0.586825 -0.327952
H45   H     H_    0.031944 0.587173 0.561711 0.140414
H46   H     H_    0.066878 0.484307 0.594789 0.153734
H47   H     H_    0.078197 0.599781 0.612893 0.143590
C99   C     C_2   0.482023 0.157790 0.308616 0.242976
H48   H     H_    0.547324 0.099442 0.325803 0.137547
O28   O     O_2   0.466721 0.136938 0.272915 -0.497775
C100  C     C_2   0.806750 0.164639 0.669436 0.217162
H49   H     H_    0.788903 0.115346 0.647107 0.093456
O29   O     O_2   0.837006 0.135432 0.703670 -0.510207
C101  C     C_2   0.562862 0.738001 0.693958 0.232522
H50   H     H_    0.635893 0.694239 0.679790 0.090860
O30   O     O_2   0.564949 0.766260 0.729675 -0.507236
N14   N     N_2   0.189524 0.824480 0.595065 -0.496397
H51   H     H_    0.134330 0.901480 0.597418 0.247923
C102  C     C_3   0.146947 0.756916 0.600710 -0.273458
H52   H     H_    0.081843 0.770887 0.577680 0.145516
H53   H     H_    0.206905 0.674438 0.597109 0.208612
H54   H     H_    0.117366 0.772343 0.631311 0.122026

loop_
_geom_bond_atom_site_label_1
_geom_bond_atom_site_label_2
_ccdc_geom_bond_type
C66   C68   A    
C102  H52   S    
C1    O20   A    
Cr6   O11   S    
C54   H18   S    
C41   C42   A    
C74   C94   S    
C55   C59   A    
C36   C42   S    
N3    N4    A    
C45   O3    A    
C87   C88   T    
C7    C8    A    
C4    H30   S    
C85   C86   A    
C25   C28   A    
C5    C9    A    
C102  H53   S    
C26   C27   A    
C62   C63   A    
C68   H24   S    
C96   O18   A    
C34   O25   A    
C98   H47   S    
C18   C97   S    
C62   H31   S    
C38   C42   A    
Cr3   O3    S    
C97   O27   D    
C57   H23   S    
C5    C6    A    
C47   H19   S    
C68   C74   A    
C15   C16   A    
C64   C100  S    
C70   H28   S    
C38   H14   S    
C66   H25   S    
Cr5   O16   S    
C98   H46   S    
C18   C19   A    
N14   H51   S    
C82   H33   S    
C83   H32   S    
C43   C93   S    
Cr3   O5    S    
C77   H37   S    
C92   O9    A    
C40   C43   A    
Cr2   O2    S    
C53   C54   A    
C16   C17   A    
Cr5   O15   S    
C70   C71   A    
C21   N5    A    
C41   H16   S    
Cr4   O7    S    
C9    C10   S    
C31   H12   S    
C23   O23   A    
C61   H27   S    
C34   C75   S    
C72   C73   T    
C12   O21   A    
C84   H36   S    
Cr6   O10   S    
Cr3   O4    S    
N14   C102  S    
C91   O7    A    
C61   C62   A    
C67   C78   A    
C59   C95   S    
C2    C11   S    
C14   C19   A    
C56   O24   A    
C79   C88   S    
C102  H54   S    
C44   C46   A    
C54   C59   A    
C77   C79   A    
C78   C89   A    
C38   C39   A    
C12   C67   S    
C40   H15   S    
C51   N12   A    
C33   H13   S    
C32   C37   S    
Cr4   O14   S    
C50   H17   S    
C47   C48   A    
C37   N9    A    
C76   C77   A    
Cr3   O22   S    
C53   H21   S    
C76   N14   S    
C8    C9    A    
Cr1   O24   S    
C39   C43   A    
C100  H49   S    
C63   C73   S    
C1    O12   A    
C25   C26   A    
C82   C86   A    
C17   C21   S    
C63   C64   A    
C98   H45   S    
Cr6   O17   S    
Cr1   O1    S    
C14   C23   S    
Cr2   O26   S    
C2    C89   A    
Cr5   O9    S    
C75   C76   A    
C65   H26   S    
C97   H43   S    
Cr3   O23   S    
C29   C30   A    
C92   O10   A    
C94   O15   A    
Cr2   O20   S    
C19   H2    S    
C31   C32   A    
C14   C15   A    
C7    C13   A    
C69   H29   S    
C80   C101  S    
Cr4   O19   S    
C1    C29   S    
C17   C18   A    
C69   C74   A    
C51   C58   S    
C6    H1    S    
C84   C85   A    
Cr2   O21   S    
C90   C96   S    
C26   H7    S    
C93   O11   A    
N10   N11   A    
C101  H50   S    
C66   C71   A    
N13   H44   S    
C15   H42   S    
C39   H10   S    
C30   H8    S    
C60   C65   A    
C49   C50   A    
C52   N3    A    
Cr1   O5    S    
C22   C27   A    
C55   C57   A    
C13   C92   S    
C36   N11   A    
C8    H39   S    
C22   C24   A    
C91   O8    A    
Cr5   O19   S    
N13   C98   S    
C3    C4    A    
C85   H35   S    
Cr2   O5    S    
C35   H9    S    
C44   C45   S    
C81   H34   S    
C95   O16   A    
C84   C90   A    
C44   C50   A    
C83   C90   A    
C46   C47   A    
C40   C41   A    
C52   N2    A    
C5    H11   S    
Cr4   O13   S    
C86   C87   S    
C37   N10   A    
Cr5   O8    S    
C75   C81   A    
C45   O2    A    
C24   C28   A    
C80   C81   A    
C78   H38   S    
C4    C67   A    
Cr4   O6    S    
C53   C58   A    
Cr1   O25   S    
C20   C27   S    
C16   H4    S    
Cr6   O18   S    
Cr1   O12   S    
C29   C35   A    
N6    N7    A    
C20   N7    A    
C96   O13   A    
C32   C33   A    
C2    C3    A    
Cr6   O19   S    
C71   C72   S    
C56   O4    A    
C89   H41   S    
C3    C99   S    
C99   H48   S    
C6    C13   A    
C21   N6    A    
C57   C58   A    
C30   C31   A    
C93   O6    A    
C48   C49   A    
C49   H20   S    
C23   O1    A    
C64   C65   A    
C51   N4    A    
C33   C35   A    
C34   O26   A    
C28   C91   S    
C95   O17   A    
C69   C70   A    
N1    N5    A    
C10   C11   T    
C79   C80   A    
C56   C60   S    
C48   C52   S    
N2    N12   A    
N8    N9    A    
C46   N13   S    
C82   C83   A    
C55   H22   S    
C20   N1    A    
C60   C61   A    
C101  O30   D    
C24   H3    S    
C12   O22   A    
C7    H40   S    
C94   O14   A    
C36   N8    A    
C22   H5    S    
C25   H6    S    
C99   O28   D    
C100  O29   D    
