data_mof_unit_62131.cif
_audit_creation_date              2012-10-26T20:52:41-0400
_audit_creation_method            fapswitch 2.2
_symmetry_space_group_name_H-M    P1
_symmetry_Int_Tables_number       1
_space_group_crystal_system       triclinic
_cell_length_a                    13.409917
_cell_length_b                    14.771137
_cell_length_c                    16.005038
_cell_angle_alpha                 90.069519
_cell_angle_beta                  90.572629
_cell_angle_gamma                 72.204332
_cell_volume                      3018.42741591

loop_
_atom_site_label
_atom_site_type_symbol
_atom_type_description
_atom_site_fract_x
_atom_site_fract_y
_atom_site_fract_z
_atom_type_partial_charge
Br1   Br    Br    0.392923 0.354318 0.103631 -0.278357
Br2   Br    Br    0.601588 0.645119 0.900304 -0.225267
Br3   Br    Br    0.274653 0.953774 0.471673 -0.163987
Br4   Br    Br    0.725478 0.046173 0.529212 -0.199914
Br5   Br    Br    0.795810 0.255898 0.392998 -0.246370
Br6   Br    Br    0.736900 0.531610 0.675616 -0.392474
Br7   Br    Br    0.391557 0.355541 0.894058 -0.286842
C1    C     C_R   0.497918 0.500581 0.659055 0.578003
C2    C     C_R   0.817157 0.415501 0.496844 -0.060662
C3    C     C_R   0.452735 0.437896 0.043416 0.146953
C4    C     C_R   0.701331 0.448938 0.499944 0.594888
C5    C     C_R   0.497297 0.498758 0.087307 -0.018246
C6    C     C_R   0.540925 0.559651 0.044220 0.407587
C7    C     C_R   0.540643 0.560460 0.957035 0.187502
C8    C     C_R   0.496304 0.499902 0.912646 -0.049637
C9    C     C_R   0.452217 0.438473 0.955571 0.167974
C10   C     C_1   0.498665 0.499445 0.176895 0.097712
C11   C     C_1   0.496492 0.500551 0.823019 0.083535
C12   C     C_R   0.982850 0.453245 0.505961 -0.038129
C13   C     C_1   0.496926 0.500771 0.748048 0.101872
C14   C     C_1   0.499526 0.499822 0.251884 0.078387
C15   C     C_R   0.406957 0.074281 0.488270 0.404618
C16   C     C_R   0.500078 0.499901 0.340898 0.544885
C17   C     C_R   0.500876 0.096891 0.500236 -0.078639
C18   C     C_R   0.594363 0.021202 0.512309 0.145939
C19   C     C_R   0.593287 0.925596 0.512235 0.394570
C20   C     C_R   0.499361 0.903015 0.500165 -0.076390
C21   C     C_R   0.405867 0.978703 0.488221 0.141957
C22   C     C_1   0.500360 0.197247 0.500075 0.303865
C23   C     C_R   0.877812 0.470222 0.532478 -0.057235
C24   C     C_1   0.499792 0.802703 0.500107 0.292289
C25   C     C_R   0.299231 0.550595 0.501440 0.559936
C26   C     C_R   0.037239 0.667541 0.597356 0.452182
C27   C     C_R   0.186271 0.579595 0.515875 -0.062778
C28   C     C_R   0.867962 0.333735 0.449054 0.111603
C29   C     C_R   0.975820 0.307239 0.438482 0.492300
C30   C     C_R   0.033113 0.365591 0.465992 0.408497
C31   C     C_R   0.034210 0.522557 0.523918 -0.017919
C32   C     C_R   0.986241 0.599815 0.577534 -0.036285
C33   C     C_R   0.891070 0.605302 0.614612 0.002290
C34   C     C_R   0.839146 0.539541 0.595375 0.183364
C35   C     C_R   0.131297 0.518391 0.489288 -0.136152
C36   C     C_R   0.137763 0.656445 0.567894 0.434369
Cu1   Cu    Cu3+1 0.499970 0.410790 0.500000 1.155060
Cu2   Cu    Cu3+1 0.500030 0.589210 0.500000 1.166502
F1    F     F_    0.189666 0.717221 0.594270 -0.524265
F2    F     F_    0.583807 0.618251 0.087142 -0.541053
F3    F     F_    0.315802 0.145420 0.476579 -0.483714
F4    F     F_    0.684419 0.854410 0.524046 -0.547263
F5    F     F_    0.992143 0.741552 0.648936 -0.514898
F6    F     F_    0.138681 0.330315 0.459480 -0.527831
F7    F     F_    0.025948 0.225011 0.398498 -0.460392
H1    H     H_    0.858782 0.658459 0.661928 0.232247
H2    H     H_    0.167460 0.467465 0.441926 0.231892
N1    N     N_1   0.499970 0.723300 0.500020 -0.145640
N2    N     N_1   0.500030 0.276700 0.499980 -0.141746
O1    O     O_R   0.499950 0.424690 0.619690 -0.491972
O2    O     O_R   0.500000 0.575360 0.619690 -0.456754
O3    O     O_R   0.650940 0.387890 0.499980 -0.460794
O4    O     O_R   0.650990 0.538570 0.499980 -0.475713
O5    O     O_R   0.500000 0.424640 0.380310 -0.480273
O6    O     O_R   0.500050 0.575310 0.380310 -0.495485
O7    O     O_R   0.349010 0.461430 0.500020 -0.489624
O8    O     O_R   0.349060 0.612110 0.500020 -0.440076

loop_
_geom_bond_atom_site_label_1
_geom_bond_atom_site_label_2
_ccdc_geom_bond_type
C5    C10   S    
C8    C11   S    
C15   F3    S    
C17   C18   A    
Cu2   O4    S    
C33   C34   A    
C12   C31   A    
Cu1   O5    S    
Cu1   N2    S    
Cu2   O8    S    
C28   C29   A    
C29   F7    S    
Cu1   O1    S    
C24   N1    T    
Br4   C18   S    
C26   F5    S    
C23   C34   A    
C3    C9    A    
C6    C7    A    
C35   H2    S    
C2    C4    S    
C25   O8    A    
C19   C20   A    
C1    C13   S    
C3    C5    A    
C2    C23   A    
Br2   C7    S    
Br5   C28   S    
C15   C17   A    
C29   C30   A    
C22   N2    T    
C31   C35   A    
C11   C13   T    
C14   C16   S    
Cu1   O7    S    
Br7   C9    S    
C31   C32   A    
C1    O1    A    
C36   F1    S    
C4    O3    A    
Cu2   O2    S    
C27   C36   A    
Cu1   O3    S    
C20   C24   S    
C4    O4    A    
C26   C36   A    
Cu2   O6    S    
C16   O5    A    
C5    C6    A    
Cu2   N1    S    
C30   F6    S    
C2    C28   A    
C33   H1    S    
Br1   C3    S    
C19   F4    S    
C32   C33   A    
C6    F2    S    
C17   C22   S    
Br3   C21   S    
C15   C21   A    
C12   C30   A    
C1    O2    A    
C18   C19   A    
C7    C8    A    
C12   C23   A    
C26   C32   A    
C16   O6    A    
C10   C14   T    
Cu1   Cu2   S    
C8    C9    A    
C25   O7    A    
C25   C27   S    
C20   C21   A    
Br6   C34   S    
C27   C35   A    
