data_mof_unit_22066.cif
_audit_creation_date              2012-12-11T14:07:44-0500
_audit_creation_method            fapswitch 2.2
_symmetry_space_group_name_H-M    P1
_symmetry_Int_Tables_number       1
_space_group_crystal_system       triclinic
_cell_length_a                    19.873871
_cell_length_b                    17.015621
_cell_length_c                    15.364435
_cell_angle_alpha                 90.157352
_cell_angle_beta                  53.016276
_cell_angle_gamma                 90.290425
_cell_volume                      4150.33171509

loop_
_atom_site_label
_atom_site_type_symbol
_atom_type_description
_atom_site_fract_x
_atom_site_fract_y
_atom_site_fract_z
_atom_type_partial_charge
Br1   Br    Br    0.562173 0.297668 0.023733 -0.635745
Br2   Br    Br    0.632448 0.702359 0.962171 -0.644990
Br3   Br    Br    0.062181 0.797668 0.023717 -0.635748
Br4   Br    Br    0.132455 0.202358 0.962156 -0.644988
C1    C     C_R   0.376579 0.197665 0.995657 -0.132044
C2    C     C_R   0.696746 0.842541 0.007067 0.065569
C3    C     C_R   0.144198 0.685993 0.080050 0.080319
C4    C     C_R   0.196740 0.342538 0.007076 0.065569
C5    C     C_R   0.609017 0.815749 0.696120 -0.027160
C6    C     C_R   0.693559 0.136028 0.678319 -0.027395
C7    C     C_R   0.109009 0.315747 0.696125 -0.027159
C8    C     C_R   0.193560 0.636016 0.678311 -0.027401
C9    C     C_3   0.195269 0.127119 0.523946 -0.394844
C10   C     C_3   0.368732 0.781581 0.477721 -0.397103
C11   C     C_3   0.695270 0.627124 0.523938 -0.394871
C12   C     C_R   0.341663 0.822896 0.046593 -0.112107
C13   C     C_3   0.868598 0.281737 0.477851 -0.397126
C14   C     C_3   0.140607 0.176736 0.628169 -0.400095
C15   C     C_3   0.315002 0.731173 0.581488 -0.408203
C16   C     C_3   0.640547 0.676737 0.628157 -0.400062
C17   C     C_3   0.814840 0.231365 0.581640 -0.408254
C18   C     C_3   0.303965 0.236771 0.436876 -0.380606
C19   C     C_3   0.359572 0.675334 0.371218 -0.378699
C20   C     C_3   0.803966 0.736771 0.436871 -0.380606
C21   C     C_3   0.859719 0.175346 0.371258 -0.378613
C22   C     C_3   0.686204 0.732203 0.417207 -0.402295
C23   C     C_R   0.876576 0.697662 0.995661 -0.132040
C24   C     C_3   0.749978 0.282684 0.460016 -0.402422
C25   C     C_3   0.186199 0.232195 0.417212 -0.402305
C26   C     C_3   0.249990 0.782796 0.460132 -0.402452
C27   C     C_3   0.248493 0.181894 0.422956 0.385982
C28   C     C_3   0.344206 0.764031 0.400529 0.379018
C29   C     C_3   0.748494 0.681899 0.422951 0.385961
C30   C     C_3   0.844206 0.264048 0.400545 0.379011
C31   C     C_3   0.655362 0.765599 0.598873 0.391523
C32   C     C_3   0.752124 0.180330 0.576926 0.393688
C33   C     C_3   0.155357 0.265597 0.598877 0.391501
C34   C     C_R   0.841665 0.322893 0.046589 -0.112111
C35   C     C_3   0.252124 0.680311 0.576910 0.393693
C36   C     C_3   0.749450 0.785729 0.539706 -0.395631
C37   C     C_3   0.804865 0.125655 0.475657 -0.403361
C38   C     C_3   0.249440 0.285785 0.539654 -0.395625
C39   C     C_3   0.304683 0.625644 0.475603 -0.403407
C40   C     C_R   0.398100 0.800609 0.208961 -0.117480
C41   C     C_R   0.349701 0.170927 0.219089 -0.074462
C42   C     C_R   0.898096 0.300612 0.208973 -0.117468
C43   C     C_R   0.849703 0.670930 0.219087 -0.074439
C44   C     C_3   0.631155 0.781937 0.521357 -0.399796
C45   C     C_R   0.661835 0.912281 0.064231 -0.194219
C46   C     C_3   0.696152 0.234485 0.563821 -0.381169
C47   C     C_3   0.131094 0.281876 0.521407 -0.399770
C48   C     C_3   0.196169 0.734629 0.563970 -0.381167
C49   C     C_2   0.187932 0.742770 0.100531 -0.175358
C50   C     C_2   0.265455 0.303077 0.994034 -0.165116
C51   C     C_2   0.687936 0.242767 0.100524 -0.175359
C52   C     C_2   0.765455 0.803078 0.994033 -0.165103
C53   C     C_2   0.722531 0.305686 0.035058 -0.140947
C54   C     C_2   0.807872 0.748255 0.916972 -0.158733
C55   C     C_2   0.222526 0.805691 0.035069 -0.140944
C56   C     C_R   0.631553 0.106273 0.107072 -0.202919
C57   C     C_2   0.307879 0.248265 0.916965 -0.158744
C58   C     C_R   0.332193 0.910925 0.947744 -0.138927
C59   C     C_R   0.366251 0.111956 0.896578 -0.116319
C60   C     C_R   0.832195 0.410922 0.947739 -0.138923
C61   C     C_R   0.866247 0.611951 0.896585 -0.116332
C62   C     C_R   0.357767 0.078126 0.315094 -0.137465
C63   C     C_R   0.407153 0.892464 0.304117 -0.147773
C64   C     C_R   0.857762 0.578125 0.315093 -0.137494
C65   C     C_R   0.907161 0.392471 0.304111 -0.147762
C66   C     C_R   0.348408 0.188006 0.934739 0.149005
C67   C     C_R   0.161832 0.412280 0.064235 -0.194225
C68   C     C_R   0.291463 0.848468 0.018779 0.118185
C69   C     C_R   0.848403 0.687998 0.934748 0.149012
C70   C     C_R   0.791466 0.348463 0.018771 0.118190
C71   C     C_R   0.390031 0.814346 0.303410 0.000621
C72   C     C_R   0.307391 0.137627 0.321992 -0.034138
C73   C     C_R   0.890033 0.314355 0.303417 0.000605
C74   C     C_R   0.807389 0.637630 0.321988 -0.034129
C75   C     C_R   0.614524 0.201825 0.020916 0.267652
C76   C     C_R   0.648104 0.811556 0.977839 0.302655
C77   C     C_R   0.114526 0.701825 0.020912 0.267668
C78   C     C_R   0.131551 0.606275 0.107073 -0.202918
C79   C     C_R   0.148100 0.311555 0.977843 0.302666
C80   C     C_R   0.600766 0.801279 0.790301 -0.120857
C81   C     C_R   0.651477 0.169683 0.781268 -0.120184
C82   C     C_R   0.100760 0.301278 0.790304 -0.120864
C83   C     C_R   0.151481 0.669679 0.781257 -0.120197
C84   C     C_R   0.642662 0.076494 0.685164 -0.138908
C85   C     C_R   0.592568 0.893986 0.695739 -0.142705
C86   C     C_R   0.142658 0.576484 0.685168 -0.138909
C87   C     C_R   0.092564 0.393984 0.695742 -0.142697
C88   C     C_R   0.644198 0.185991 0.080050 0.080330
H1    H     H_    0.386451 0.252695 0.021894 0.123740
H2    H     H_    0.781251 0.271571 0.652861 0.156592
H3    H     H_    0.072921 0.161574 0.671730 0.160580
H4    H     H_    0.281554 0.771335 0.652760 0.156506
H5    H     H_    0.158079 0.161455 0.682451 0.169944
H6    H     H_    0.356359 0.692800 0.589164 0.156714
H7    H     H_    0.657916 0.661415 0.682536 0.169897
H8    H     H_    0.856185 0.193119 0.589491 0.156677
H9    H     H_    0.348742 0.201705 0.441843 0.159634
H10   H     H_    0.427273 0.661166 0.328339 0.176583
H11   H     H_    0.848787 0.701712 0.441753 0.159627
H12   H     H_    0.333000 0.771887 0.093940 0.090774
H13   H     H_    0.927439 0.161279 0.328433 0.176523
H14   H     H_    0.768048 0.774140 0.593933 0.165352
H15   H     H_    0.845413 0.086557 0.483979 0.161469
H16   H     H_    0.268068 0.274299 0.593869 0.165334
H17   H     H_    0.345183 0.586390 0.483822 0.161469
H18   H     H_    0.720214 0.772896 0.346509 0.150345
H19   H     H_    0.731092 0.269237 0.406400 0.155879
H20   H     H_    0.220217 0.272926 0.346549 0.150375
H21   H     H_    0.231008 0.769415 0.406609 0.155933
H22   H     H_    0.645704 0.693463 0.407755 0.159617
H23   H     H_    0.886449 0.752692 0.021895 0.123736
H24   H     H_    0.737802 0.346338 0.480922 0.161033
H25   H     H_    0.145737 0.193457 0.407684 0.159584
H26   H     H_    0.237918 0.846454 0.481021 0.161009
H27   H     H_    0.563405 0.768053 0.563154 0.155028
H28   H     H_    0.659017 0.275015 0.634749 0.167703
H29   H     H_    0.063362 0.267896 0.563221 0.155053
H30   H     H_    0.159200 0.775185 0.634895 0.167717
H31   H     H_    0.641253 0.844754 0.496815 0.147562
H32   H     H_    0.650317 0.199000 0.560837 0.154216
H33   H     H_    0.141084 0.344698 0.496916 0.147524
H34   H     H_    0.833003 0.271884 0.093935 0.090774
H35   H     H_    0.150187 0.699274 0.561143 0.154254
H36   H     H_    0.342249 0.276763 0.365413 0.176815
H37   H     H_    0.342930 0.659368 0.316116 0.150942
H38   H     H_    0.842198 0.776799 0.365444 0.176822
H39   H     H_    0.843146 0.159281 0.316108 0.151005
H40   H     H_    0.395662 0.744535 0.177886 0.108128
H41   H     H_    0.332326 0.222412 0.196356 0.095526
H42   H     H_    0.895634 0.244534 0.177924 0.108102
H43   H     H_    0.832334 0.722418 0.196349 0.095516
H44   H     H_    0.761304 0.849255 0.517683 0.160386
H45   H     H_    0.154576 0.087989 0.515304 0.159242
H46   H     H_    0.763794 0.087555 0.466880 0.148401
H47   H     H_    0.261253 0.349298 0.517552 0.160397
H48   H     H_    0.263483 0.587709 0.466880 0.148407
H49   H     H_    0.202787 0.727038 0.155607 0.121371
H50   H     H_    0.273005 0.312555 0.057610 0.124985
H51   H     H_    0.702792 0.227034 0.155598 0.121371
H52   H     H_    0.773013 0.812567 0.057603 0.124976
H53   H     H_    0.711878 0.319187 0.975643 0.171739
H54   H     H_    0.800958 0.740427 0.852573 0.162160
H55   H     H_    0.211874 0.819192 0.975653 0.171744
H56   H     H_    0.357519 0.844240 0.503068 0.149898
H57   H     H_    0.300968 0.240444 0.852563 0.162163
H58   H     H_    0.312942 0.943494 0.905783 0.117490
H59   H     H_    0.361083 0.086440 0.836248 0.104103
H60   H     H_    0.812945 0.443489 0.905774 0.117486
H61   H     H_    0.861077 0.586433 0.836258 0.104102
H62   H     H_    0.348077 0.042888 0.379969 0.092889
H63   H     H_    0.413378 0.922701 0.360813 0.087101
H64   H     H_    0.848063 0.542884 0.379972 0.092900
H65   H     H_    0.913412 0.422715 0.360780 0.087108
H66   H     H_    0.600923 0.744671 0.820779 0.157686
H67   H     H_    0.654623 0.587955 0.515262 0.159220
H68   H     H_    0.670280 0.219900 0.805070 0.130428
H69   H     H_    0.100909 0.244670 0.820787 0.157699
H70   H     H_    0.170288 0.719908 0.805036 0.130428
H71   H     H_    0.652331 0.041525 0.620008 0.091827
H72   H     H_    0.586157 0.923952 0.639259 0.085342
H73   H     H_    0.152324 0.541494 0.620032 0.091851
H74   H     H_    0.086153 0.423949 0.639261 0.085327
H75   H     H_    0.680696 0.945986 0.106046 0.118496
H76   H     H_    0.638278 0.078453 0.164621 0.110724
H77   H     H_    0.180693 0.445987 0.106048 0.118499
H78   H     H_    0.857298 0.344408 0.503164 0.149892
H79   H     H_    0.138275 0.578456 0.164625 0.110723
H80   H     H_    0.235945 0.089023 0.532873 0.150961
H81   H     H_    0.436786 0.769407 0.435307 0.157406
H82   H     H_    0.735957 0.589075 0.532895 0.151001
H83   H     H_    0.936654 0.269632 0.435548 0.157386
H84   H     H_    0.572866 0.661609 0.671607 0.160591
N1    N     N_R   0.408680 0.130160 0.995800 -0.042064
N2    N     N_R   0.403730 0.078230 0.935950 -0.050489
N3    N     N_R   0.903730 0.421770 0.935950 -0.046600
N4    N     N_R   0.903730 0.578230 0.935950 -0.050489
N5    N     N_R   0.426630 0.075970 0.212960 -0.037612
N6    N     N_R   0.426630 0.924030 0.212960 -0.035179
N7    N     N_R   0.926630 0.575970 0.212960 -0.037612
N8    N     N_R   0.926630 0.424030 0.212960 -0.035183
N9    N     N_R   0.591320 0.134600 0.004200 -0.069233
N10   N     N_R   0.591320 0.865400 0.004200 -0.069486
N11   N     N_R   0.091320 0.634600 0.004200 -0.069228
N12   N     N_R   0.408680 0.869840 0.995800 -0.042678
N13   N     N_R   0.091320 0.365400 0.004200 -0.069490
N14   N     N_R   0.578320 0.867660 0.846880 -0.037428
N15   N     N_R   0.578320 0.132340 0.846880 -0.028363
N16   N     N_R   0.078320 0.367660 0.846880 -0.037427
N17   N     N_R   0.078320 0.632340 0.846880 -0.028355
N18   N     N_R   0.573370 0.074390 0.787040 -0.041928
N19   N     N_R   0.573370 0.925610 0.787040 -0.036742
N20   N     N_R   0.073370 0.574390 0.787040 -0.041931
N21   N     N_R   0.073370 0.425610 0.787040 -0.036745
N22   N     N_R   0.596270 0.927870 0.064040 -0.052789
N23   N     N_R   0.908680 0.630160 0.995800 -0.042066
N24   N     N_R   0.596270 0.072130 0.064040 -0.052396
N25   N     N_R   0.096270 0.427870 0.064040 -0.052792
N26   N     N_R   0.096270 0.572130 0.064040 -0.052396
N27   N     N_R   0.908680 0.369840 0.995800 -0.042677
N28   N     N_R   0.421680 0.867580 0.153120 -0.036612
N29   N     N_R   0.421680 0.132420 0.153120 -0.024764
N30   N     N_R   0.921680 0.367580 0.153120 -0.036610
N31   N     N_R   0.921680 0.632420 0.153120 -0.024767
N32   N     N_R   0.403730 0.921770 0.935950 -0.046601
Ni1   Ni    Ni4+2 0.500000 0.131190 0.000000 0.260980
Ni2   Ni    Ni4+2 0.500000 0.868810 0.000000 0.242563
Ni3   Ni    Ni4+2 0.000000 0.631190 0.000000 0.260984
Ni4   Ni    Ni4+2 0.000000 0.368810 0.000000 0.242565
Ni5   Ni    Ni4+2 0.488650 0.000000 0.862740 0.202674
Ni6   Ni    Ni4+2 0.988650 0.500000 0.862740 0.202673
Ni7   Ni    Ni4+2 0.511350 0.000000 0.137260 0.207370
Ni8   Ni    Ni4+2 0.011350 0.500000 0.137260 0.207363

loop_
_geom_bond_atom_site_label_1
_geom_bond_atom_site_label_2
_ccdc_geom_bond_type
C57   C66   S    
C64   N7    A    
N32   Ni5   S    
C53   H53   S    
C4    C79   A    
N7    N31   A    
C25   H20   S    
C65   C73   A    
C12   C68   A    
N18   Ni5   S    
C49   C55   D    
C19   C39   S    
C6    C81   A    
C17   C32   S    
C18   C38   S    
C36   H44   S    
N11   N26   A    
C6    C84   A    
C1    C66   A    
C59   N2    A    
C9    C14   S    
C60   H60   S    
C41   C72   A    
C46   H28   S    
C24   C46   S    
C8    C86   A    
C63   N6    A    
C14   C33   S    
C45   H75   S    
C10   H81   S    
C30   C73   S    
C34   C70   A    
C33   C47   S    
C5    C31   S    
C29   C74   S    
N17   Ni3   S    
C19   H10   S    
C17   H2    S    
N22   Ni7   S    
C7    C82   A    
C85   N19   A    
C10   H56   S    
C81   N15   A    
N24   Ni7   S    
C61   C69   A    
C19   H37   S    
C63   H63   S    
C87   H74   S    
N1    Ni1   S    
C33   C38   S    
C7    C33   S    
N16   Ni4   S    
C61   H61   S    
C76   N10   A    
C24   H24   S    
C16   C31   S    
N12   Ni2   S    
C12   H12   S    
C9    H80   S    
C42   N30   A    
Br3   C77   S    
C65   H65   S    
C67   H77   S    
C80   N14   A    
C14   H5    S    
C58   H58   S    
C22   H18   S    
C85   H72   S    
N23   Ni3   S    
C8    C83   A    
C22   C44   S    
C55   C68   S    
C26   H21   S    
C43   H43   S    
C7    C87   A    
C35   C48   S    
C24   C30   S    
N9    N24   A    
Br2   C76   S    
N31   Ni3   S    
C14   H3    S    
C32   C37   S    
C59   H59   S    
C48   H30   S    
C44   H31   S    
C31   C44   S    
C58   N32   A    
C34   H34   S    
C48   H35   S    
C79   N13   A    
C50   C57   D    
C44   H27   S    
C45   N22   A    
C56   C88   A    
C24   H19   S    
C64   C74   A    
C11   C16   S    
C51   H51   S    
C18   C27   S    
N8    N30   A    
C21   H13   S    
N21   Ni6   S    
C47   H33   S    
C16   H7    S    
C84   N18   A    
C23   N23   A    
C83   N17   A    
C12   N12   A    
C5    C85   A    
C62   H62   S    
C17   H8    S    
C80   H66   S    
C13   H78   S    
C52   H52   S    
C35   C39   S    
C26   H26   S    
N13   N25   A    
N11   Ni3   S    
C25   H25   S    
C13   C17   S    
C9    H45   S    
C53   C70   S    
C40   C71   A    
N5    N29   A    
C22   H22   S    
N25   Ni8   S    
C11   H67   S    
C51   C88   S    
C28   C71   S    
C20   H38   S    
C42   H42   S    
N20   Ni6   S    
C22   C29   S    
C18   H36   S    
C59   C66   A    
N29   Ni1   S    
N17   N20   A    
C62   C72   A    
C83   H70   S    
C65   N8    A    
C75   C88   A    
C58   C68   A    
C39   H48   S    
N5    Ni7   S    
C82   H69   S    
C56   H76   S    
N16   N21   A    
C18   H9    S    
C1    N1    A    
C37   H46   S    
C15   C35   S    
N14   N19   A    
N15   Ni1   S    
C4    C50   S    
C3    C77   A    
C62   N5    A    
N3    N27   A    
C34   N27   A    
N10   Ni2   S    
C86   H73   S    
N6    Ni7   S    
Br1   C75   S    
N9    Ni1   S    
N27   Ni4   S    
C63   C71   A    
C13   C30   S    
C3    C49   S    
C21   C37   S    
C21   H39   S    
N6    N28   A    
C32   C46   S    
C36   H14   S    
C25   C47   S    
N7    Ni8   S    
C67   N25   A    
C26   C48   S    
C78   H79   S    
N12   N32   A    
C4    C67   A    
C41   N29   A    
C75   N9    A    
C11   H82   S    
C50   H50   S    
C38   H47   S    
C41   H41   S    
C10   C15   S    
C9    C27   S    
C46   H32   S    
C2    C52   S    
C64   H64   S    
N13   Ni4   S    
C42   C73   A    
C1    H1    S    
C54   H54   S    
C81   H68   S    
C61   N4    A    
C37   H15   S    
C40   H40   S    
C84   H71   S    
C21   C30   S    
C82   N16   A    
C20   C29   S    
C43   N31   A    
C23   H23   S    
C20   H11   S    
C19   C28   S    
C8    C35   S    
N4    Ni6   S    
C31   C36   S    
N14   Ni2   S    
N15   N18   A    
C25   C27   S    
N4    N23   A    
C23   C69   A    
C86   N20   A    
C26   C28   S    
C78   N26   A    
C15   H6    S    
C27   C72   S    
C16   H84   S    
Br4   C79   S    
C38   H16   S    
C47   H29   S    
N3    Ni6   S    
C20   C36   S    
C52   C54   D    
C49   H49   S    
C2    C45   A    
N19   Ni5   S    
N8    Ni8   S    
C56   N24   A    
C5    C80   A    
C87   N21   A    
N30   Ni4   S    
C3    C78   A    
C10   C28   S    
N1    N2    A    
C2    C76   A    
N28   Ni2   S    
C40   N28   A    
C60   C70   A    
C60   N3    A    
N10   N22   A    
C6    C32   S    
C39   H17   S    
C43   C74   A    
N26   Ni8   S    
C51   C53   D    
C57   H57   S    
C11   C29   S    
C15   H4    S    
C13   H83   S    
C54   C69   S    
C77   N11   A    
N2    Ni5   S    
C55   H55   S    
