data_mof_unit_57909.cif
_audit_creation_date              2013-03-05T15:44:47-0500
_audit_creation_method            fapswitch 2.2
_symmetry_space_group_name_H-M    P1
_symmetry_Int_Tables_number       1
_space_group_crystal_system       triclinic
_cell_length_a                    12.907708
_cell_length_b                    13.046826
_cell_length_c                    15.242769
_cell_angle_alpha                 117.341518
_cell_angle_beta                  63.409573
_cell_angle_gamma                 97.36364
_cell_volume                      2029.29992983

loop_
_atom_site_label
_atom_site_type_symbol
_atom_site_description
_atom_site_fract_x
_atom_site_fract_y
_atom_site_fract_z
_atom_type_partial_charge
C1    C     C_R   0.028282 0.834479 0.026058 -0.167920
H1    H     H_    0.076836 0.897434 0.063827 0.143854
N1    N     N_R   0.037310 0.720000 0.995790 -0.066126
C2    C     C_R   0.700071 0.405032 0.210326 -0.131554
H2    H     H_    0.645168 0.346024 0.177645 0.096655
N2    N     N_R   0.790790 0.446160 0.152010 -0.045789
C3    C     C_R   0.738477 0.584733 0.955910 -0.092016
H3    H     H_    0.745403 0.639200 0.918484 0.152654
N3    N     N_R   0.824890 0.517960 0.936420 -0.039346
C4    C     C_R   0.947641 0.720980 0.318150 -0.062011
H4    H     H_    0.904695 0.693758 0.381741 0.152468
N4    N     N_R   0.003210 0.648190 0.211380 -0.058212
C5    C     C_R   0.660365 0.485723 0.052926 -0.097274
H5    H     H_    0.601237 0.448511 0.104810 0.102643
N5    N     N_R   0.774330 0.457010 0.995840 -0.053640
C6    C     C_R   0.030882 0.821940 0.223670 -0.134758
H6    H     H_    0.066656 0.890805 0.202697 0.107859
N6    N     N_R   0.053760 0.709140 0.151960 -0.046983
C7    C     C_R   0.802141 0.490709 0.305324 -0.033138
H7    H     H_    0.843131 0.508938 0.358428 0.124996
N7    N     N_R   0.853860 0.498840 0.211410 -0.049823
C8    C     C_R   0.935091 0.746961 0.922928 0.267503
N8    N     N_R   0.974240 0.667310 0.936390 -0.085492
C9    C     C_R   0.955994 0.855534 0.989067 0.040605
C10   C     C_R   0.705095 0.431626 0.307231 0.068308
C11   C     C_R   0.635686 0.568600 0.031145 0.106633
C12   C     C_R   0.957441 0.832709 0.328657 0.124715
C13   C     C_R   0.322423 0.581578 0.013027 -0.120220
H8    H     H_    0.368034 0.645942 0.987807 0.100917
N9    N     N_R   0.225670 0.542990 0.004160 -0.053290
C14   C     C_R   0.897762 0.203814 0.792946 -0.122799
H9    H     H_    0.842408 0.149466 0.827028 0.120807
N10   N     N_R   0.946240 0.290860 0.848040 -0.049367
C15   C     C_R   0.220415 0.435389 0.683642 -0.080467
H10   H     H_    0.194435 0.388918 0.618524 0.128979
N11   N     N_R   0.146140 0.501160 0.788590 -0.039141
C16   C     C_R   0.087421 0.248101 0.052224 0.313540
N12   N     N_R   0.025760 0.332690 0.063610 -0.092936
C17   C     C_R   0.995451 0.165695 0.948331 -0.239767
H11   H     H_    0.964541 0.103295 0.890787 0.151773
N13   N     N_R   0.962690 0.280000 0.004210 -0.064451
C18   C     C_R   0.321514 0.517433 0.781320 -0.108941
H12   H     H_    0.389361 0.543230 0.807681 0.104894
N14   N     N_R   0.209210 0.553840 0.847990 -0.046677
C19   C     C_R   0.243460 0.483517 0.109444 -0.108362
H13   H     H_    0.219811 0.459759 0.174429 0.174653
N15   N     N_R   0.175110 0.482040 0.063580 -0.058984
C20   C     C_R   0.980153 0.302799 0.698273 -0.095795
H14   H     H_    0.001801 0.342742 0.645042 0.175240
N16   N     N_R   0.996790 0.351810 0.788620 -0.054429
Ni1   Ni    Ni4+2 0.130310 0.630310 0.999970 0.221272
Ni2   Ni    Ni4+2 0.869690 0.369690 0.000030 0.207563
Ni3   Ni    Ni4+2 0.985640 0.509470 0.863740 0.304704
Ni4   Ni    Ni4+2 0.014360 0.490530 0.136260 0.266131
C21   C     C_R   0.335465 0.545728 0.079330 0.118424
C22   C     C_R   0.911686 0.212648 0.700819 0.089793
C23   C     C_R   0.332398 0.440479 0.676694 0.039150
C24   C     C_R   0.073870 0.140977 0.977446 0.052330
C25   C     C_R   0.933773 0.047370 0.426349 -0.316392
H15   H     H_    0.980152 0.050965 0.349082 0.190401
C26   C     C_R   0.905034 0.150164 0.522689 0.303685
C27   C     C_R   0.861532 0.143755 0.622612 -0.059915
C28   C     C_R   0.799386 0.048546 0.630023 0.081681
C29   C     C_R   0.821306 0.945447 0.532275 0.339628
C30   C     C_R   0.903473 0.942075 0.430427 -0.101553
C31   C     C_R   0.635707 0.446021 0.492231 -0.073486
H16   H     H_    0.705392 0.497102 0.504109 0.164172
C32   C     C_R   0.544607 0.442677 0.583460 -0.169073
H17   H     H_    0.549593 0.491633 0.660656 0.147733
C33   C     C_R   0.443884 0.392257 0.576658 0.076673
C34   C     C_R   0.449762 0.317871 0.471297 0.298457
C35   C     C_R   0.540831 0.324526 0.379711 -0.189328
H18   H     H_    0.540521 0.275998 0.300116 0.135728
C36   C     C_R   0.628473 0.397133 0.392370 0.047234
C37   C     C_2   0.427607 0.569971 0.113376 -0.167824
H19   H     H_    0.429374 0.526280 0.158476 0.140154
C38   C     C_2   0.521266 0.614419 0.063389 -0.170783
H20   H     H_    0.518121 0.662300 0.022230 0.135475
C39   C     C_2   0.897309 0.967683 0.024792 -0.187091
H21   H     H_    0.870008 0.975387 0.970485 0.162589
C40   C     C_2   0.860666 0.057704 0.126044 0.221940
N17   N     N_R   0.132759 0.262057 0.126540 0.217197
O1    O     O_R   0.210942 0.184439 0.097624 -0.401342
O2    O     O_R   0.076986 0.335146 0.229995 -0.390624
N18   N     N_R   0.915506 0.259170 0.518781 0.228522
O3    O     O_R   0.839601 0.347255 0.598209 -0.380442
O4    O     O_R   0.989801 0.266734 0.430111 -0.350980
C41   C     C_3   0.701054 0.061091 0.737865 -0.809244
H22   H     H_    0.724172 0.007954 0.767373 0.266417
H23   H     H_    0.679159 0.153011 0.801659 0.223221
H24   H     H_    0.621078 0.031964 0.726922 0.265008
N19   N     N_R   0.754468 0.849523 0.536327 0.221136
O5    O     O_R   0.695906 0.807331 0.478543 -0.406397
O6    O     O_R   0.748327 0.806789 0.600478 -0.387591
C42   C     C_3   0.363972 0.230645 0.452575 -0.996559
H25   H     H_    0.310832 0.216473 0.526134 0.249450
H26   H     H_    0.306954 0.259092 0.429194 0.268049
H27   H     H_    0.411646 0.145486 0.384565 0.262102
C43   C     C_3   0.879902 0.066150 0.218781 -0.854788
H28   H     H_    0.829820 0.146078 0.294009 0.264260
H29   H     H_    0.849305 0.990211 0.234803 0.238850
H30   H     H_    0.973344 0.072872 0.199586 0.259987
N20   N     N_R   0.914182 0.718426 0.829635 0.224804
O7    O     O_R   0.873346 0.796913 0.820162 -0.405254
O8    O     O_R   0.941651 0.613052 0.750175 -0.375238

loop_
_geom_bond_atom_site_label_1
_geom_bond_atom_site_label_2
_geom_bond_distance
_ccdc_geom_bond_type
C4    C12   1.386715 A    
C31   C32   1.377345 A    
N9    Ni1   1.820355 S    
C28   C41   1.509374 S    
N1    N8    1.378316 A    
C7    H7    1.079820 S    
C2    C10   1.384070 A    
C42   H27   1.110827 S    
C3    H3    1.071861 S    
C17   N13   1.341910 A    
C38   H20   1.083873 S    
N10   Ni2   1.850370 S    
C27   C28   1.411231 A    
C3    C11   1.381252 A    
C13   H8    1.080159 S    
C7    N7    1.331157 A    
C10   C36   1.462259 S    
N7    Ni4   1.853334 S    
C34   C42   1.504766 S    
C31   C36   1.397367 A    
C3    N3    1.343873 A    
C15   H10   1.076255 S    
N11   Ni3   1.853332 S    
C42   H25   1.109638 S    
C6    H6    1.071452 S    
C15   C23   1.396334 A    
C14   N10   1.341166 A    
C33   C34   1.415947 A    
C14   C22   1.391041 A    
N13   Ni2   1.819723 S    
C15   N11   1.338462 A    
C16   C24   1.391268 A    
C35   H18   1.082092 S    
C21   C37   1.445413 S    
C6    C12   1.396013 A    
N18   O4    1.301562 A    
C31   H16   1.080400 S    
C25   H15   1.077054 S    
C5    H5    1.077510 S    
C18   N14   1.331914 A    
C7    C10   1.380092 A    
C4    N4    1.332241 A    
C18   C23   1.391361 A    
C13   C21   1.369378 A    
N6    Ni1   1.850369 S    
N8    Ni3   1.823658 S    
C19   N15   1.342709 A    
C25   C26   1.386895 A    
N16   Ni3   1.824205 S    
C11   C38   1.444562 S    
N9    N15   1.370407 A    
N12   N13   1.378316 A    
C35   C36   1.402546 A    
C17   H11   1.079527 S    
C39   C40   1.344964 D    
N1    Ni1   1.819721 S    
C32   H17   1.078682 S    
C40   C43   1.495347 S    
N10   N16   1.370392 A    
N18   O3    1.301945 A    
C17   C24   1.393845 A    
C8    N20   1.437075 S    
C28   C29   1.410149 A    
C1    N1    1.349350 A    
C37   H19   1.084141 S    
C16   N12   1.344290 A    
C12   C30   1.477088 S    
C9    C39   1.481274 S    
C43   H28   1.109504 S    
N12   Ni4   1.823657 S    
C41   H24   1.110526 S    
N19   O6    1.301309 A    
N20   O8    1.301419 A    
N5    Ni2   1.820354 S    
C37   C38   1.334138 D    
C26   N18   1.437281 S    
N15   Ni4   1.852896 S    
N14   Ni1   1.850539 S    
C2    N2    1.339597 A    
C20   H14   1.075230 S    
C43   H29   1.110337 S    
C41   H23   1.110546 S    
N17   O2    1.301038 A    
C5    N5    1.325649 A    
C23   C33   1.475868 S    
C22   C27   1.485105 S    
C16   N17   1.426690 S    
N11   N14   1.378300 A    
N3    Ni3   1.852897 S    
C18   H12   1.075580 S    
C29   N19   1.435586 S    
C20   C22   1.382280 A    
C14   H9    1.076741 S    
C2    H2    1.080251 S    
C42   H26   1.110299 S    
C29   C30   1.418493 A    
C13   N9    1.326204 A    
N3    N5    1.370406 A    
C34   C35   1.397982 A    
C25   C30   1.401069 A    
N2    N7    1.378300 A    
C1    H1    1.074961 S    
C20   N16   1.331217 A    
N19   O5    1.301604 A    
C8    C9    1.389047 A    
C26   C27   1.407643 A    
C5    C11   1.376077 A    
C4    H4    1.075975 S    
C39   H21   1.079884 S    
C19   H13   1.075893 S    
C43   H30   1.108412 S    
C41   H22   1.109767 S    
C19   C21   1.373677 A    
C1    C9    1.393903 A    
C6    N6    1.338878 A    
N17   O1    1.300752 A    
N4    N6    1.370394 A    
N20   O7    1.299833 A    
C32   C33   1.404475 A    
C8    N8    1.341895 A    
N2    Ni2   1.850539 S    
N4    Ni4   1.824206 S    
