data_mof_unit_10851.cif
_audit_creation_date              2012-12-10T18:45:07-0500
_audit_creation_method            fapswitch 2.2
_symmetry_space_group_name_H-M    P1
_symmetry_Int_Tables_number       1
_space_group_crystal_system       triclinic
_cell_length_a                    10.638484
_cell_length_b                    9.887979
_cell_length_c                    10.730752
_cell_angle_alpha                 89.805762
_cell_angle_beta                  90.248151
_cell_angle_gamma                 90.131396
_cell_volume                      1128.78113282

loop_
_atom_site_label
_atom_site_type_symbol
_atom_type_description
_atom_site_fract_x
_atom_site_fract_y
_atom_site_fract_z
_atom_type_partial_charge
C1    C     C_R   0.260417 0.499894 0.497796 0.876664
C2    C     C_R   0.739517 0.500073 0.497961 0.871788
C3    C     C_R   0.936165 0.576848 0.580089 -0.203206
C4    C     C_R   0.064784 0.576421 0.580284 -0.188490
C5    C     C_R   0.597965 0.071813 0.550563 -0.046250
C6    C     C_R   0.402171 0.071705 0.449157 -0.046415
C7    C     C_R   0.597804 0.928307 0.550924 -0.063060
C8    C     C_R   0.402323 0.928203 0.448826 -0.069964
C9    C     C_R   0.491576 0.500778 0.259894 0.881789
C10   C     C_R   0.511474 0.500473 0.739571 0.876587
C11   C     C_R   0.439486 0.750097 0.108452 -0.206179
C12   C     C_R   0.573863 0.749009 0.887287 -0.207749
C13   C     C_R   0.469150 0.872454 0.050273 0.016252
C14   C     C_R   0.547115 0.871949 0.944972 0.020115
C15   C     C_R   0.528841 0.626377 0.938117 0.084410
C16   C     C_R   0.483354 0.626784 0.059481 0.078657
C17   C     C_R   0.485406 0.503285 0.126097 -0.117696
C18   C     C_R   0.525077 0.502729 0.872809 -0.126285
C19   C     C_R   0.503213 0.381295 0.063834 -0.164255
C20   C     C_R   0.512585 0.380714 0.936816 -0.190982
C21   C     C_R   0.064519 0.426870 0.398456 -0.051042
C22   C     C_R   0.933916 0.426208 0.398915 -0.049213
C23   C     C_R   0.871879 0.500362 0.491691 -0.062525
C24   C     C_R   0.127891 0.500110 0.491668 -0.069995
H1    H     H_    0.509444 0.286297 0.112877 0.201205
H2    H     H_    0.509306 0.285030 0.889072 0.197385
H3    H     H_    0.379484 0.751990 0.189659 0.160899
H4    H     H_    0.632348 0.749467 0.804918 0.153439
H5    H     H_    0.886570 0.634261 0.650340 0.141622
H6    H     H_    0.115296 0.633508 0.650698 0.155266
H7    H     H_    0.676581 0.125785 0.591035 0.146354
H8    H     H_    0.323718 0.125561 0.408366 0.151408
H9    H     H_    0.676165 0.874487 0.591993 0.124683
H10   H     H_    0.324103 0.874302 0.407491 0.130579
N1    N     N_R   0.500000 0.857200 0.500000 -0.085390
N2    N     N_R   0.500000 0.142810 0.500000 -0.089934
O1    O     O_R   0.316770 0.614620 0.499990 -0.628654
O2    O     O_R   0.683230 0.614620 0.500010 -0.627014
O3    O     O_R   0.316800 0.385290 0.500000 -0.616780
O4    O     O_R   0.683200 0.385290 0.500000 -0.620629
O5    O     O_R   0.500010 0.614690 0.316770 -0.624853
O6    O     O_R   0.499990 0.614690 0.683230 -0.623621
O7    O     O_R   0.500040 0.385360 0.316770 -0.606330
O8    O     O_R   0.499960 0.385360 0.683230 -0.612171
Zn1   Zn    Zn3+2 0.500000 0.653120 0.500000 0.949028
Zn2   Zn    Zn3+2 0.500000 0.346880 0.500000 0.975270
C25   C     C_1   0.415488 0.994452 0.099314 0.139259
N3    N     N_1   0.369250 0.090362 0.139539 -0.208388
C26   C     C_1   0.603298 0.993474 0.895772 0.137290
N4    N     N_1   0.651325 0.089182 0.855872 -0.229041
C27   C     C_1   0.132744 0.359081 0.300016 0.149496
N5    N     N_1   0.186950 0.305618 0.221098 -0.182412
C28   C     C_1   0.864140 0.354432 0.302906 0.184277
N6    N     N_1   0.808442 0.297360 0.226466 -0.185196

loop_
_geom_bond_atom_site_label_1
_geom_bond_atom_site_label_2
_ccdc_geom_bond_type
C15   C18   A    
C6    H8    S    
N2    Zn2   S    
C11   H3    S    
C10   O6    A    
C11   C13   A    
C11   C16   A    
C2    O2    A    
C9    O5    A    
C19   C20   A    
C12   C15   A    
C1    O1    A    
C21   C22   A    
C8    H10   S    
C13   C14   A    
O4    Zn2   S    
C7    H9    S    
C20   H2    S    
C10   C18   S    
O3    Zn2   S    
C4    C24   A    
C10   O8    A    
C9    C17   S    
C13   C25   S    
C17   C19   A    
C12   C14   A    
C22   C28   S    
C18   C20   A    
C19   H1    S    
O7    Zn2   S    
C9    O7    A    
C14   C26   S    
C1    O3    A    
O1    Zn1   S    
C15   C16   A    
N1    Zn1   S    
C5    N2    A    
C2    O4    A    
C21   C27   S    
C12   H4    S    
C1    C24   S    
C3    H5    S    
C26   N4    T    
C21   C24   A    
C2    C23   S    
C5    C7    A    
O5    Zn1   S    
C22   C23   A    
O2    Zn1   S    
C6    C8    A    
O8    Zn2   S    
C5    H7    S    
C3    C23   A    
C28   N6    T    
C7    N1    A    
C8    N1    A    
C4    H6    S    
C3    C4    A    
C27   N5    T    
C6    N2    A    
C16   C17   A    
C25   N3    T    
O6    Zn1   S    
