data_mof_unit_51982.cif
_audit_creation_date              2012-12-10T17:24:42-0500
_audit_creation_method            fapswitch 2.2
_symmetry_space_group_name_H-M    P1
_symmetry_Int_Tables_number       1
_space_group_crystal_system       triclinic
_cell_length_a                    23.502353
_cell_length_b                    10.838041
_cell_length_c                    9.644762
_cell_angle_alpha                 89.02641
_cell_angle_beta                  90.725066
_cell_angle_gamma                 93.708525
_cell_volume                      2451.04596958

loop_
_atom_site_label
_atom_site_type_symbol
_atom_type_description
_atom_site_fract_x
_atom_site_fract_y
_atom_site_fract_z
_atom_type_partial_charge
C1    C     C_R   0.503564 0.262750 0.502184 0.807386
C2    C     C_R   0.971099 0.451530 0.770824 0.359791
C3    C     C_R   0.031258 0.461963 0.771376 0.366221
C4    C     C_R   0.061250 0.504636 0.651215 -0.186179
C5    C     C_R   0.030209 0.533698 0.529903 -0.088397
C6    C     C_R   0.059630 0.582950 0.412294 -0.119953
C7    C     C_R   0.028841 0.613904 0.290535 0.447194
C8    C     C_R   0.969639 0.600986 0.290281 -0.067014
C9    C     C_R   0.121656 0.519111 0.645945 0.758719
C10   C     C_R   0.119038 0.602904 0.422808 0.546921
C11   C     C_R   0.239599 0.544535 0.380355 0.357912
C12   C     C_R   0.391009 0.498816 0.498813 0.883976
C13   C     C_R   0.299011 0.552948 0.385935 0.342055
C14   C     C_R   0.327947 0.494071 0.494912 -0.323261
C15   C     C_R   0.295522 0.421467 0.593044 0.271251
C16   C     C_R   0.235402 0.426427 0.594351 0.436770
C17   C     C_R   0.208012 0.506978 0.500600 -0.006178
C18   C     C_R   0.757829 0.394906 0.510777 -0.112756
C19   C     C_R   0.698482 0.392669 0.502806 0.286511
C20   C     C_R   0.671034 0.504089 0.503344 -0.278001
C21   C     C_R   0.703648 0.617601 0.510887 0.382242
C22   C     C_R   0.763133 0.619886 0.522339 0.456884
C23   C     C_R   0.495017 0.736791 0.498131 0.925771
C24   C     C_R   0.790381 0.507238 0.520628 0.067542
C25   C     C_R   0.505204 0.102859 0.767389 0.278722
C26   C     C_R   0.471911 0.048724 0.875771 0.337075
C27   C     C_R   0.436894 0.941880 0.850267 0.350558
C28   C     C_R   0.439674 0.881622 0.722911 0.267008
C29   C     C_R   0.475645 0.933273 0.617005 -0.137931
C30   C     C_R   0.497589 0.056242 0.630855 -0.114574
C31   C     C_R   0.507045 0.127897 0.507158 -0.097632
C32   C     C_R   0.508751 0.068603 0.380083 -0.132879
C33   C     C_R   0.501043 0.941622 0.372487 0.420724
C34   C     C_R   0.608677 0.501613 0.500752 0.962852
C35   C     C_R   0.487730 0.870857 0.493796 -0.110703
C36   C     C_R   0.593842 0.621271 0.139642 0.431032
C37   C     C_R   0.646787 0.630823 0.072959 0.181347
C38   C     C_R   0.646637 0.624340 0.928185 0.163367
C39   C     C_R   0.593610 0.619482 0.860259 0.419481
C40   C     C_R   0.545618 0.558331 0.925862 0.029795
C41   C     C_R   0.545728 0.558429 0.074387 -0.024335
C42   C     C_R   0.457484 0.439730 0.074060 0.544622
C43   C     C_R   0.457588 0.441138 0.925520 -0.069963
C44   C     C_R   0.880372 0.544930 0.406005 0.606892
C45   C     C_R   0.879199 0.474825 0.641985 0.629667
C46   C     C_R   0.939755 0.481623 0.648974 -0.160127
C47   C     C_R   0.969950 0.522539 0.528771 -0.059200
C48   C     C_R   0.939919 0.555781 0.407465 -0.091347
Cu1   Cu    Cu3+1 0.500000 0.499990 0.640660 1.069849
Cu2   Cu    Cu3+1 0.500000 0.500010 0.359340 1.120299
H1    H     H_    0.515857 0.121299 0.284692 0.214120
H2    H     H_    0.423278 0.392326 0.869094 0.160842
H3    H     H_    0.946981 0.625305 0.196166 0.226373
H4    H     H_    0.778957 0.309070 0.508484 0.218801
N1    N     N_R   0.851477 0.506875 0.522406 -0.469923
N2    N     N_R   0.148640 0.539541 0.521157 -0.431627
N3    N     N_R   0.500540 0.501210 0.147910 -0.168017
N4    N     N_R   0.500560 0.501290 0.852040 -0.167820
O1    O     O_R   0.500000 0.319640 0.618810 -0.577610
O2    O     O_2   0.847756 0.438411 0.752898 -0.434676
O3    O     O_2   0.152731 0.524050 0.764230 -0.388682
O4    O     O_2   0.145537 0.694481 0.346923 -0.410907
O5    O     O_R   0.500000 0.319660 0.381240 -0.567333
O6    O     O_R   0.417880 0.499950 0.618810 -0.553063
O7    O     O_R   0.417880 0.499980 0.381240 -0.501215
O8    O     O_R   0.500000 0.680340 0.618760 -0.505698
O9    O     O_R   0.500000 0.680360 0.381190 -0.484917
O10   O     O_R   0.582120 0.500020 0.618760 -0.540909
O11   O     O_R   0.582120 0.500050 0.381190 -0.544496
O12   O     O_2   0.851250 0.573758 0.289552 -0.469827
Cl1   Cl    Cl    0.937153 0.400413 0.926852 -0.409385
Cl2   Cl    Cl    0.659685 0.248613 0.490742 -0.576784
Cl3   Cl    Cl    0.671237 0.759743 0.505465 -0.482848
O13   O     O_3   0.793007 0.733427 0.534643 -0.616747
H5    H     H_    0.833306 0.721521 0.559040 0.335214
O14   O     O_3   0.548117 0.191036 0.800422 -0.693360
H6    H     H_    0.576283 0.195757 0.724530 0.378128
O15   O     O_3   0.471634 0.099155 0.006390 -0.645483
H7    H     H_    0.495415 0.177949 0.007237 0.355951
Cl4   Cl    Cl    0.389539 0.883834 0.979883 -0.312986
Cl5   Cl    Cl    0.387736 0.761012 0.686756 -0.493340
Cl6   Cl    Cl    0.503563 0.881031 0.204444 -0.470095
O16   O     O_3   0.414725 0.374479 0.145895 -0.663602
H8    H     H_    0.387253 0.334839 0.078804 0.335215
Cl7   Cl    Cl    0.067509 0.412033 0.922797 -0.418569
O17   O     O_3   0.586838 0.694247 0.251878 -0.621159
H9    H     H_    0.616991 0.762529 0.253447 0.390556
O18   O     O_3   0.694972 0.665671 0.150272 -0.669436
H10   H     H_    0.724572 0.705279 0.089263 0.377965
O19   O     O_3   0.695309 0.644093 0.850399 -0.682920
H11   H     H_    0.726887 0.605956 0.900765 0.363987
O20   O     O_3   0.586502 0.697564 0.749212 -0.650424
H12   H     H_    0.617096 0.764988 0.750518 0.381943
O21   O     O_3   0.054615 0.651286 0.167785 -0.628483
H13   H     H_    0.090263 0.608177 0.159616 0.383971
O22   O     O_3   0.214766 0.556013 0.250926 -0.576922
H14   H     H_    0.180793 0.496842 0.247220 0.335727
Cl8   Cl    Cl    0.334993 0.635820 0.249819 -0.348579
O23   O     O_3   0.320761 0.342716 0.686095 -0.696514
H15   H     H_    0.355241 0.312302 0.643670 0.326031
O24   O     O_3   0.201979 0.343222 0.673798 -0.641291
H16   H     H_    0.226025 0.291871 0.733129 0.400819

loop_
_geom_bond_atom_site_label_1
_geom_bond_atom_site_label_2
_ccdc_geom_bond_type
C11   O22   S    
C45   O2    S    
O24   H16   S    
Cu1   O10   S    
C3    Cl7   S    
C37   O18   S    
C19   C20   A    
C19   Cl2   S    
C7    C8    A    
C45   C46   A    
C2    C46   A    
C24   N1    S    
C5    C47   A    
C26   C27   A    
C29   C30   A    
O16   H8    S    
C9    O3    S    
C23   O8    A    
C28   C29   A    
Cu2   O11   S    
C1    O1    A    
C30   C31   A    
C12   O6    A    
C43   H2    S    
C15   C16   A    
C21   Cl3   S    
C1    C31   S    
C18   C19   A    
C23   O9    A    
C13   Cl8   S    
C43   N4    A    
C11   C17   A    
C31   C32   A    
C16   C17   A    
C44   O12   S    
C10   N2    A    
C33   Cl6   S    
C20   C34   S    
Cu1   O6    S    
C21   C22   A    
Cu2   O5    S    
C36   C41   A    
C10   O4    S    
C1    O5    A    
C42   N3    A    
C38   C39   A    
C40   N4    A    
O13   H5    S    
O14   H6    S    
C27   Cl4   S    
Cu1   O8    S    
C34   O10   A    
C39   C40   A    
O17   H9    S    
C36   O17   S    
C25   C26   A    
Cu1   N4    S    
C8    C48   A    
C32   H1    S    
C37   C38   A    
C47   C48   A    
C34   O11   A    
O22   H14   S    
C9    N2    A    
C26   O15   S    
C20   C21   A    
C17   N2    S    
C40   C41   A    
C12   C14   S    
C23   C35   S    
C18   C24   A    
C42   C43   A    
C22   O13   S    
C2    Cl1   S    
C39   O20   S    
Cu2   O9    S    
C25   C30   A    
C7    O21   S    
C38   O19   S    
C46   C47   A    
C36   C37   A    
C28   Cl5   S    
O15   H7    S    
Cu2   N3    S    
C42   O16   S    
C15   O23   S    
C4    C5    A    
C8    H3    S    
C6    C10   A    
C6    C7    A    
C12   O7    A    
C29   C35   A    
Cu1   O1    S    
O23   H15   S    
C25   O14   S    
C32   C33   A    
C2    C3    A    
C41   N3    A    
C11   C13   A    
C44   N1    A    
O19   H11   S    
C5    C6    A    
O20   H12   S    
C33   C35   A    
C22   C24   A    
O21   H13   S    
Cu2   O7    S    
C18   H4    S    
C44   C48   A    
C16   O24   S    
O18   H10   S    
C45   N1    A    
Cu1   Cu2   S    
C27   C28   A    
C14   C15   A    
C4    C9    A    
C13   C14   A    
C3    C4    A    
