data_mof_unit_66261.cif
_audit_creation_date              2012-12-10T20:50:03-0500
_audit_creation_method            fapswitch 2.2
_symmetry_space_group_name_H-M    P1
_symmetry_Int_Tables_number       1
_space_group_crystal_system       triclinic
_cell_length_a                    19.20171
_cell_length_b                    19.231539
_cell_length_c                    19.215443
_cell_angle_alpha                 94.76116
_cell_angle_beta                  90.023122
_cell_angle_gamma                 85.810279
_cell_volume                      7052.35156271

loop_
_atom_site_label
_atom_site_type_symbol
_atom_type_description
_atom_site_fract_x
_atom_site_fract_y
_atom_site_fract_z
_atom_type_partial_charge
C1    C     C_R   0.491993 0.492080 0.310930 0.508949
C2    C     C_R   0.129914 0.488883 0.575647 -0.106329
C3    C     C_R   0.512138 0.507216 0.765758 0.029274
C4    C     C_R   0.507536 0.506951 0.689359 0.512404
C5    C     C_R   0.465711 0.469994 0.801972 -0.140455
C6    C     C_R   0.470376 0.468471 0.874036 -0.081959
C7    C     C_R   0.521887 0.504376 0.911564 0.225224
C8    C     C_R   0.568716 0.540736 0.875254 -0.109409
C9    C     C_R   0.563725 0.542650 0.802923 -0.146638
C10   C     C_R   0.545192 0.479594 0.122225 -0.105367
C11   C     C_R   0.548071 0.479924 0.194567 -0.166773
C12   C     C_R   0.911278 0.496118 0.476512 0.225544
C13   C     C_R   0.480366 0.486198 0.088183 0.199390
C14   C     C_R   0.486632 0.487653 0.234478 0.009940
C15   C     C_R   0.421057 0.492280 0.200933 -0.050920
C16   C     C_R   0.492853 0.689806 0.508211 0.508242
C17   C     C_R   0.418262 0.490924 0.127603 -0.016178
C18   C     C_R   0.508599 0.233507 0.489208 0.019343
C19   C     C_R   0.497404 0.198263 0.549425 -0.042896
C20   C     C_R   0.493899 0.125876 0.543345 -0.091312
C21   C     C_R   0.501819 0.087335 0.477691 0.212087
C22   C     C_R   0.513630 0.122507 0.418520 -0.111904
C23   C     C_R   0.874154 0.461267 0.423349 -0.107650
C24   C     C_R   0.517625 0.194872 0.424179 -0.156202
C25   C     C_R   0.466510 0.876401 0.461025 -0.088646
C26   C     C_R   0.463428 0.803911 0.458048 -0.150375
C27   C     C_R   0.497323 0.912065 0.518928 0.225763
C28   C     C_R   0.507517 0.310209 0.492623 0.511166
C29   C     C_R   0.491604 0.766364 0.512293 0.030970
C30   C     C_R   0.521016 0.802339 0.570331 -0.143261
C31   C     C_R   0.523109 0.874623 0.573759 -0.108210
C32   C     C_R   0.310804 0.507846 0.508166 0.511513
C33   C     C_R   0.689313 0.492469 0.491978 0.510283
C34   C     C_R   0.801921 0.458619 0.428802 -0.145937
C35   C     C_R   0.765684 0.492213 0.487130 0.029967
C36   C     C_R   0.802721 0.528037 0.540005 -0.149469
C37   C     C_R   0.874792 0.529995 0.534942 -0.090340
C38   C     C_1   0.356751 0.496298 0.241171 0.230056
C39   C     C_1   0.351614 0.495503 0.092209 0.231711
C40   C     C_1   0.490940 0.234570 0.618340 0.220010
C41   C     C_R   0.120586 0.531075 0.460304 -0.087307
C42   C     C_R   0.193075 0.532274 0.456986 -0.142460
C43   C     C_R   0.088653 0.508474 0.519673 0.223664
C44   C     C_R   0.234405 0.510192 0.512362 0.030079
C45   C     C_R   0.202290 0.488780 0.571805 -0.142764
H1    H     H_    0.216832 0.549180 0.410746 0.158548
H2    H     H_    0.233138 0.472222 0.615493 0.139924
H3    H     H_    0.105845 0.472378 0.621913 0.127035
H4    H     H_    0.598590 0.475725 0.219638 0.133240
H5    H     H_    0.433896 0.438833 0.900099 0.150027
H6    H     H_    0.444778 0.904314 0.418431 0.140631
H7    H     H_    0.519682 0.093649 0.367778 0.128604
H8    H     H_    0.089629 0.548084 0.416902 0.143837
H9    H     H_    0.525932 0.220948 0.377341 0.139008
H10   H     H_    0.901435 0.435552 0.377885 0.126924
H11   H     H_    0.774369 0.431260 0.386972 0.138626
H12   H     H_    0.593713 0.473997 0.092927 0.146257
H13   H     H_    0.901765 0.558600 0.576346 0.139438
H14   H     H_    0.775994 0.554701 0.585351 0.138291
H15   H     H_    0.608825 0.568175 0.903253 0.123841
H16   H     H_    0.600543 0.571278 0.776103 0.138094
H17   H     H_    0.425681 0.441839 0.774630 0.150448
H18   H     H_    0.440378 0.777150 0.412873 0.139066
H19   H     H_    0.542478 0.774579 0.613184 0.138973
H20   H     H_    0.484460 0.099877 0.590023 0.143430
H21   H     H_    0.546024 0.901611 0.618895 0.125000
N1    N     N_2   0.984715 0.497125 0.469141 -0.242475
N2    N     N_2   0.015384 0.506552 0.525991 -0.248090
N3    N     N_2   0.528330 0.504717 0.985253 -0.245209
N4    N     N_2   0.475494 0.486281 0.014440 -0.236144
N5    N     N_2   0.497457 0.013664 0.469260 -0.242046
N6    N     N_2   0.502057 0.985419 0.525346 -0.248154
N7    N     N_1   0.305451 0.499477 0.273260 -0.287110
N8    N     N_1   0.298414 0.499156 0.063919 -0.273787
N9    N     N_1   0.485789 0.263601 0.673525 -0.280941
O1    O     O_3   0.500000 0.500000 0.500000 -0.442492
O2    O     O_R   0.340900 0.545940 0.467290 -0.533252
O3    O     O_R   0.655960 0.450920 0.450930 -0.543598
O4    O     O_R   0.347180 0.467040 0.545670 -0.545230
O5    O     O_R   0.655970 0.536100 0.536110 -0.545774
O6    O     O_R   0.536480 0.656330 0.545680 -0.547241
O7    O     O_R   0.545300 0.340270 0.450920 -0.542764
O8    O     O_R   0.451550 0.536740 0.347440 -0.528077
O9    O     O_R   0.466670 0.466660 0.655960 -0.536886
O10   O     O_R   0.536460 0.451300 0.340640 -0.545263
O11   O     O_R   0.545320 0.545300 0.655970 -0.548413
O12   O     O_R   0.451560 0.656600 0.467300 -0.541231
O13   O     O_R   0.466660 0.346810 0.536100 -0.524911
Zn1   Zn    Zn3+2 0.558430 0.558420 0.558430 0.935828
Zn2   Zn    Zn3+2 0.437090 0.558800 0.446440 0.957869
Zn3   Zn    Zn3+2 0.446060 0.446060 0.558420 0.960519
Zn4   Zn    Zn3+2 0.558420 0.436720 0.436720 0.942817

loop_
_geom_bond_atom_site_label_1
_geom_bond_atom_site_label_2
_ccdc_geom_bond_type
C31   H21   S    
C34   H11   S    
C30   H19   S    
C41   C42   A    
C35   C36   A    
C36   H14   S    
C7    C8    A    
C12   C23   A    
C21   N5    S    
C3    C9    A    
C36   C37   A    
C18   C19   A    
C42   H1    S    
C5    C6    A    
C11   C14   A    
C33   O3    A    
C4    O11   A    
C13   N4    S    
C24   H9    S    
C12   C37   A    
O7    Zn4   S    
C34   C35   A    
C17   C39   S    
C39   N8    T    
O5    Zn1   S    
C32   O2    A    
C19   C20   A    
C43   N2    S    
C28   O13   A    
C16   O12   A    
O9    Zn3   S    
O4    Zn3   S    
C37   H13   S    
O1    Zn1   S    
O6    Zn1   S    
C21   C22   A    
C41   C43   A    
C42   C44   A    
O10   Zn4   S    
C45   H2    S    
C2    C45   A    
C1    O10   A    
C12   N1    S    
O2    Zn2   S    
C28   O7    A    
N1    N2    D    
C20   H20   S    
C10   H12   S    
C18   C28   S    
C10   C11   A    
C8    C9    A    
O3    Zn4   S    
C16   C29   S    
C27   C31   A    
C10   C13   A    
C26   H18   S    
C25   H6    S    
C15   C38   S    
C29   C30   A    
C11   H4    S    
C4    O9    A    
O13   Zn3   S    
C2    C43   A    
C23   C34   A    
C32   C44   S    
C6    H5    S    
C41   H8    S    
O1    Zn4   S    
C18   C24   A    
C25   C27   A    
C3    C4    S    
C44   C45   A    
C22   H7    S    
C15   C17   A    
O8    Zn2   S    
C3    C5    A    
O11   Zn1   S    
C7    N3    S    
C33   O5    A    
C23   H10   S    
C6    C7    A    
C1    O8    A    
C40   N9    T    
C13   C17   A    
C2    H3    S    
C25   C26   A    
N5    N6    D    
C8    H15   S    
C32   O4    A    
C30   C31   A    
C16   O6    A    
C33   C35   S    
C5    H17   S    
C9    H16   S    
C22   C24   A    
N3    N4    D    
C19   C40   S    
O1    Zn3   S    
C20   C21   A    
C26   C29   A    
O12   Zn2   S    
C14   C15   A    
C1    C14   S    
C27   N6    S    
O1    Zn2   S    
C38   N7    T    
