data_mof_unit_61346.cif
_audit_creation_date              2012-12-10T19:32:27-0500
_audit_creation_method            fapswitch 2.2
_symmetry_space_group_name_H-M    P1
_symmetry_Int_Tables_number       1
_space_group_crystal_system       triclinic
_cell_length_a                    16.519179
_cell_length_b                    17.135355
_cell_length_c                    17.722488
_cell_angle_alpha                 87.740112
_cell_angle_beta                  90.013921
_cell_angle_gamma                 94.323086
_cell_volume                      4998.38061451

loop_
_atom_site_label
_atom_site_type_symbol
_atom_type_description
_atom_site_fract_x
_atom_site_fract_y
_atom_site_fract_z
_atom_type_partial_charge
C1    C     C_R   0.499986 0.499931 0.644702 0.828530
C2    C     C_R   0.500014 0.500069 0.355298 0.828533
C3    C     C_R   0.426424 0.498948 0.232327 -0.131657
C4    C     C_R   0.573576 0.501055 0.767673 -0.131660
C5    C     C_R   0.499984 0.500012 0.272329 -0.044422
C6    C     C_R   0.500016 0.499988 0.727671 -0.044423
C7    C     C_R   0.573528 0.500959 0.232269 -0.153211
C8    C     C_R   0.426472 0.499038 0.767732 -0.153212
C9    C     C_R   0.573426 0.500985 0.153617 -0.141484
C10   C     C_R   0.426574 0.499011 0.846383 -0.141484
C11   C     C_R   0.499975 0.500007 0.114426 0.132419
C12   C     C_R   0.500025 0.499993 0.885574 0.132419
C13   C     C_1   0.499987 0.500003 0.033831 -0.035936
C14   C     C_1   0.500013 0.499997 0.966169 -0.035937
C15   C     C_R   0.174006 0.549564 0.450755 -0.276490
C16   C     C_R   0.825994 0.450436 0.549245 -0.276489
C17   C     C_R   0.259467 0.549036 0.451082 0.504576
C18   C     C_R   0.740533 0.450965 0.548918 0.504577
C19   C     C_R   0.252006 0.450378 0.548610 0.534322
C20   C     C_R   0.747994 0.549622 0.451389 0.534324
C21   C     C_R   0.166410 0.449891 0.549254 -0.271097
C22   C     C_R   0.833590 0.550109 0.450746 -0.271096
C23   C     C_R   0.489496 0.348915 0.499213 0.872795
C24   C     C_R   0.510504 0.651085 0.500787 0.872794
C25   C     C_R   0.126329 0.499843 0.500138 0.009782
C26   C     C_R   0.873671 0.500157 0.499862 0.009781
C27   C     C_1   0.037114 0.499918 0.500077 0.034137
C28   C     C_1   0.962886 0.500082 0.499923 0.034137
C29   C     C_R   0.482750 0.262999 0.496840 -0.124415
C30   C     C_R   0.517250 0.737002 0.503160 -0.124418
C31   C     C_R   0.548563 0.222041 0.522302 -0.254345
C32   C     C_R   0.451435 0.777958 0.477704 -0.254346
C33   C     C_R   0.545332 0.140920 0.520763 -0.144777
C34   C     C_R   0.454665 0.859079 0.479243 -0.144778
C35   C     C_R   0.475757 0.098756 0.493138 0.316280
C36   C     C_R   0.524242 0.901244 0.506862 0.316279
C37   C     C_R   0.410209 0.139235 0.467603 -0.208271
C38   C     C_R   0.589792 0.860766 0.532392 -0.208272
C39   C     C_R   0.412898 0.220735 0.468796 0.371731
C40   C     C_R   0.587104 0.779266 0.531199 0.371735
C41   C     C_R   0.426520 0.498970 0.153670 -0.142413
C42   C     C_R   0.573480 0.501032 0.846330 -0.142413
Cu1   Cu    Cu3+1 0.419580 0.500000 0.500020 1.072688
Cu2   Cu    Cu3+1 0.580420 0.500000 0.499980 1.072688
H1    H     H_    0.397164 0.747304 0.456137 0.227646
H2    H     H_    0.602831 0.252696 0.543874 0.227646
H3    H     H_    0.131379 0.410262 0.588105 0.188698
H4    H     H_    0.868621 0.589738 0.411894 0.188698
H5    H     H_    0.402611 0.888364 0.458884 0.178873
H6    H     H_    0.597384 0.111635 0.541126 0.178872
H7    H     H_    0.356921 0.106949 0.445745 0.183787
H8    H     H_    0.643082 0.893053 0.554246 0.183787
H9    H     H_    0.369419 0.498151 0.123495 0.147503
H10   H     H_    0.630582 0.501854 0.876505 0.147503
H11   H     H_    0.368859 0.498009 0.261688 0.195402
H12   H     H_    0.631141 0.501996 0.738312 0.195400
H13   H     H_    0.631086 0.501661 0.261579 0.185872
H14   H     H_    0.368913 0.498333 0.738421 0.185874
H15   H     H_    0.630521 0.501747 0.123403 0.146089
H16   H     H_    0.369479 0.498247 0.876598 0.146089
H17   H     H_    0.144991 0.588826 0.411651 0.189552
H18   H     H_    0.855009 0.411174 0.588350 0.189552
N1    N     N_2   0.469102 0.016028 0.489396 -0.231759
N2    N     N_2   0.530897 0.983972 0.510604 -0.231759
N3    N     N_R   0.298780 0.499980 0.500030 -0.232544
N4    N     N_R   0.701220 0.500020 0.499970 -0.232545
O1    O     O_R   0.432070 0.499990 0.608760 -0.567200
O2    O     O_R   0.567930 0.500010 0.391240 -0.567201
O3    O     O_R   0.567880 0.500000 0.608730 -0.541935
O4    O     O_R   0.432120 0.500000 0.391270 -0.541933
O5    O     O_R   0.424660 0.386070 0.500710 -0.497568
O6    O     O_R   0.575340 0.613930 0.499290 -0.497568
O7    O     O_R   0.560480 0.386080 0.500680 -0.568705
O8    O     O_R   0.439520 0.613920 0.499320 -0.568705
Cl1   Cl    Cl    0.312502 0.613309 0.385618 -0.629642
Cl2   Cl    Cl    0.687498 0.386692 0.614383 -0.629643
Cl3   Cl    Cl    0.295463 0.384282 0.612028 -0.564507
Cl4   Cl    Cl    0.704537 0.615717 0.387971 -0.564500
Cl5   Cl    Cl    0.328777 0.266140 0.430783 -0.558308
Cl6   Cl    Cl    0.671229 0.733862 0.569205 -0.558304

loop_
_geom_bond_atom_site_label_1
_geom_bond_atom_site_label_2
_ccdc_geom_bond_type
C30   C32   A    
C32   H1    S    
Cu2   N4    S    
C23   C29   S    
C20   N4    A    
C35   C37   A    
C2    O2    A    
C37   H7    S    
C15   C25   A    
C38   H8    S    
C15   C17   A    
C19   Cl3   S    
C12   C42   A    
C1    O1    A    
Cu2   O6    S    
C3    H11   S    
C31   H2    S    
C18   Cl2   S    
C40   Cl6   S    
C11   C41   A    
C8    H14   S    
Cu1   O8    S    
C13   C14   T    
C4    H12   S    
C29   C31   A    
C16   H18   S    
C23   O7    A    
C16   C26   A    
C1    C6    S    
C23   O5    A    
C4    C6    A    
C5    C7    A    
C6    C8    A    
C33   H6    S    
C1    O3    A    
C9    H15   S    
C39   Cl5   S    
C10   H16   S    
Cu1   Cu2   S    
Cu1   N3    S    
C29   C39   A    
C31   C33   A    
C15   H17   S    
C30   C40   A    
Cu2   O3    S    
C9    C11   A    
C41   H9    S    
C10   C12   A    
C16   C18   A    
C12   C14   S    
C22   H4    S    
Cu1   O4    S    
Cu2   O2    S    
C2    C5    S    
C25   C27   S    
C24   O6    A    
C7    C9    A    
C21   C25   A    
C3    C41   A    
C34   H5    S    
Cu1   O5    S    
C19   C21   A    
C17   N3    A    
C8    C10   A    
C20   C22   A    
C3    C5    A    
C18   N4    A    
C26   C28   S    
C20   Cl4   S    
C36   C38   A    
C37   C39   A    
C2    O4    A    
C42   H10   S    
C38   C40   A    
C11   C13   S    
C24   O8    A    
C4    C42   A    
C33   C35   A    
C19   N3    A    
C34   C36   A    
Cu2   O7    S    
C24   C30   S    
N1    N2    D    
Cu1   O1    S    
C22   C26   A    
C27   C28   T    
C17   Cl1   S    
C35   N1    S    
C36   N2    S    
C7    H13   S    
C32   C34   A    
C21   H3    S    
