data_mof_unit_25951.cif
_audit_creation_date              2012-12-10T19:01:24-0500
_audit_creation_method            fapswitch 2.2
_symmetry_space_group_name_H-M    P1
_symmetry_Int_Tables_number       1
_space_group_crystal_system       triclinic
_cell_length_a                    9.550741
_cell_length_b                    10.838943
_cell_length_c                    15.364555
_cell_angle_alpha                 89.967969
_cell_angle_beta                  74.866093
_cell_angle_gamma                 90.116868
_cell_volume                      1535.37103806

loop_
_atom_site_label
_atom_site_type_symbol
_atom_type_description
_atom_site_fract_x
_atom_site_fract_y
_atom_site_fract_z
_atom_type_partial_charge
C1    C     C_R   0.998465 0.262425 0.503284 0.851825
C2    C     C_R   0.675834 0.508486 0.911001 0.022026
C3    C     C_R   0.771921 0.470632 0.962111 0.085222
C4    C     C_R   0.528320 0.535315 0.955772 0.092965
C5    C     C_R   0.474295 0.504310 0.048415 0.080804
C6    C     C_R   0.573798 0.470636 0.097232 -0.207171
C7    C     C_R   0.719356 0.454299 0.055182 -0.149866
C8    C     C_R   0.435899 0.599457 0.913031 -0.182006
C9    C     C_R   0.296068 0.632607 0.960454 -0.157150
C10   C     C_R   0.240304 0.595495 0.049779 0.147259
C11   C     C_R   0.325081 0.521519 0.092279 0.044758
C12   C     C_R   0.919073 0.499110 0.673092 0.818982
C13   C     C_R   0.101674 0.633658 0.097899 -0.127091
C14   C     C_R   0.048921 0.602008 0.188429 -0.211422
C15   C     C_R   0.257640 0.470838 0.178062 0.067002
C16   C     C_R   0.109064 0.064253 0.530598 -0.124542
C17   C     C_R   0.991175 0.130025 0.517255 -0.162090
C18   C     C_R   0.860488 0.066020 0.524813 -0.169011
C19   C     C_R   0.855575 0.937302 0.531253 0.420147
C20   C     C_R   0.986916 0.870453 0.523321 -0.220667
C21   C     C_R   0.107616 0.937287 0.532744 -0.130309
C22   C     C_3   0.268703 0.930514 0.490405 0.720474
C23   C     C_R   0.996863 0.737617 0.506300 0.810632
C24   C     C_3   0.269679 0.071732 0.489074 0.270440
C25   C     C_R   0.593553 0.588014 0.453172 0.234615
C26   C     C_R   0.553310 0.417315 0.549833 -0.041061
C27   C     C_R   0.405033 0.416498 0.549003 0.011535
C28   C     C_R   0.445782 0.587622 0.452811 0.153299
C29   C     C_3   0.479660 0.606749 0.353300 -0.538892
C30   C     C_3   0.638239 0.608005 0.353230 0.662994
C31   C     C_R   0.081393 0.502113 0.327527 0.848779
C32   C     C_R   0.875975 0.494872 0.773454 -0.133023
C33   C     C_R   0.126182 0.520560 0.229210 -0.084868
C34   C     C_R   0.919595 0.449999 0.920464 0.363875
C35   C     C_R   0.973949 0.467998 0.826514 0.059043
C36   C     C_R   0.729139 0.515119 0.816849 -0.286211
Cu1   Cu    Cu3+1 0.140670 0.499980 0.500000 1.000626
Cu2   Cu    Cu3+1 0.859330 0.500020 0.500000 1.008766
H1    H     H_    0.790674 0.428040 0.096421 0.208187
H2    H     H_    0.037580 0.693502 0.066959 0.152904
H3    H     H_    0.762086 0.115014 0.523902 0.186907
H4    H     H_    0.328936 0.114704 0.534730 0.135969
H5    H     H_    0.592285 0.349102 0.589230 0.142825
H6    H     H_    0.333346 0.346798 0.586916 0.149472
H7    H     H_    0.449742 0.525558 0.318076 0.219144
H8    H     H_    0.440394 0.695609 0.333475 0.238380
H9    H     H_    0.949269 0.643173 0.226895 0.221239
H10   H     H_    0.231116 0.687716 0.926915 0.166139
H11   H     H_    0.655801 0.532941 0.775590 0.181765
H12   H     H_    0.541742 0.463106 0.169547 0.171995
H13   H     H_    0.472341 0.633293 0.844788 0.159360
N1    N     N_R   0.648210 0.500930 0.499430 -0.189480
N2    N     N_R   0.352300 0.500890 0.499430 -0.174953
O1    O     O_R   0.118810 0.319640 0.500000 -0.552065
O2    O     O_R   0.881230 0.319680 0.499990 -0.590972
O3    O     O_R   0.055580 0.499970 0.629840 -0.555759
O4    O     O_R   0.818000 0.500010 0.629830 -0.603321
O5    O     O_R   0.118770 0.680320 0.500010 -0.572967
O6    O     O_R   0.881190 0.680360 0.500000 -0.563995
O7    O     O_R   0.182000 0.499990 0.370170 -0.569434
O8    O     O_R   0.944420 0.500030 0.370160 -0.510906
O9    O     O_3   0.722796 0.881411 0.541116 -0.690735
H14   H     H_    0.713426 0.817117 0.588185 0.333100
O10   O     O_3   0.346017 0.883230 0.548985 -0.710198
H15   H     H_    0.319219 0.794876 0.558074 0.343184
O11   O     O_3   0.310591 0.875874 0.404386 -0.717592
H16   H     H_    0.231115 0.885728 0.374283 0.302581
O12   O     O_3   0.308824 0.123273 0.401907 -0.658227
H17   H     H_    0.235084 0.099532 0.369850 0.340364
I1    I     I_    0.317047 0.292834 0.217373 -0.299672
O13   O     O_3   0.714213 0.507707 0.306137 -0.685637
H18   H     H_    0.729099 0.526883 0.241315 0.319939
O14   O     O_3   0.709354 0.721483 0.327594 -0.729434
H19   H     H_    0.653133 0.787402 0.366264 0.356570
O15   O     O_3   0.008554 0.414383 0.973951 -0.729220
H20   H     H_    0.086252 0.360722 0.938506 0.359939
I2    I     I_    0.204793 0.463018 0.772802 -0.436085

loop_
_geom_bond_atom_site_label_1
_geom_bond_atom_site_label_2
_ccdc_geom_bond_type
C8    C9    A    
C23   O5    A    
C16   C21   A    
C24   H4    S    
O14   H19   S    
C31   O8    A    
C19   C20   A    
C4    C8    A    
C14   C33   A    
C30   O13   S    
C25   C28   A    
C23   O6    A    
C26   C27   A    
O9    H14   S    
C32   C36   A    
C28   C29   S    
Cu1   Cu2   S    
C5    C11   A    
C3    C7    A    
C5    C6    A    
Cu2   N1    S    
C19   O9    S    
C34   C35   A    
C22   O11   S    
C13   H2    S    
Cu1   O3    S    
C11   C15   A    
C27   H6    S    
Cu2   O2    S    
O12   H17   S    
C31   C33   S    
C9    C10   A    
Cu1   O5    S    
C34   O15   S    
Cu2   O8    S    
Cu1   N2    S    
O11   H16   S    
C16   C24   S    
C21   C22   S    
C12   C32   S    
C26   H5    S    
C32   C35   A    
C18   H3    S    
C30   O14   S    
C18   C19   A    
C3    C34   A    
C35   I2    S    
C29   H7    S    
C31   O7    A    
C2    C4    A    
O15   H20   S    
C29   C30   S    
C26   N1    A    
Cu2   O4    S    
C20   C23   S    
C17   C18   A    
C6    H12   S    
C8    H13   S    
C12   O3    A    
C1    O1    A    
C12   O4    A    
C14   H9    S    
C22   C24   S    
Cu1   O1    S    
C2    C36   A    
C25   C30   S    
C15   I1    S    
C4    C5    A    
C10   C13   A    
C28   N2    A    
C27   N2    A    
C6    C7    A    
C1    C17   S    
C29   H8    S    
O10   H15   S    
C2    C3    A    
C1    O2    A    
C25   N1    A    
O13   H18   S    
C16   C17   A    
Cu1   O7    S    
C10   C11   A    
C24   O12   S    
C22   O10   S    
Cu2   O6    S    
C20   C21   A    
C9    H10   S    
C7    H1    S    
C13   C14   A    
C15   C33   A    
C36   H11   S    
