data_mof_unit_24992.cif
_audit_creation_date              2012-12-11T15:52:30-0500
_audit_creation_method            fapswitch 2.2
_symmetry_space_group_name_H-M    P1
_symmetry_Int_Tables_number       1
_space_group_crystal_system       triclinic
_cell_length_a                    11.00556
_cell_length_b                    11.012824
_cell_length_c                    18.818006
_cell_angle_alpha                 90.141793
_cell_angle_beta                  89.778472
_cell_angle_gamma                 120.215891
_cell_volume                      1970.8920786

loop_
_atom_site_label
_atom_site_type_symbol
_atom_type_description
_atom_site_fract_x
_atom_site_fract_y
_atom_site_fract_z
_atom_type_partial_charge
C1    C     C_R   0.523138 0.452020 0.144610 0.534112
C2    C     C_R   0.548926 0.072680 0.144228 0.538194
C3    C     C_R   0.934190 0.479631 0.146205 0.533603
C4    C     C_R   0.458000 0.520189 0.852730 0.562329
C5    C     C_R   0.061323 0.541288 0.852377 0.550814
C6    C     C_R   0.480284 0.938876 0.852417 0.554747
C7    C     C_3   0.738482 0.052858 0.548774 0.501070
C8    C     C_3   0.934070 0.686629 0.547908 0.445114
C9    C     C_3   0.297921 0.259782 0.546285 0.504037
C10   C     C_3   0.905638 0.670573 0.468432 0.518407
C11   C     C_3   0.756788 0.095674 0.471224 0.525603
C12   C     C_3   0.318616 0.240984 0.468161 0.523655
C13   C     C_R   0.515385 0.458641 0.352241 0.581862
C14   C     C_R   0.541266 0.058034 0.352580 0.585534
C15   C     C_R   0.941979 0.483801 0.352522 0.579087
C16   C     C_R   0.421684 0.545966 0.638754 0.556137
C17   C     C_R   0.070561 0.547274 0.643755 0.572690
C18   C     C_R   0.453720 0.875874 0.638804 0.554513
C19   C     C_R   0.502713 0.009585 0.920530 0.014028
C20   C     C_R   0.008736 0.503325 0.924191 0.012733
C21   C     C_R   0.504960 0.498944 0.921239 0.014158
C22   C     C_R   0.974635 0.498902 0.072212 0.025217
C23   C     C_R   0.530664 0.046937 0.068260 0.021600
C24   C     C_R   0.514640 0.470799 0.068877 0.017856
C25   C     C_R   0.387410 0.983748 0.963350 0.003793
C26   C     C_R   0.078585 0.457912 0.969760 0.015637
C27   C     C_R   0.592051 0.614983 0.964127 0.007021
C28   C     C_R   0.063645 0.457209 0.042519 -0.013292
C29   C     C_R   0.401646 0.003654 0.036110 -0.001483
C30   C     C_R   0.598496 0.600700 0.036782 -0.001615
C31   C     C_R   0.650473 0.096157 0.024444 -0.148145
C32   C     C_R   0.913384 0.556197 0.027402 -0.144223
C33   C     C_R   0.444354 0.350875 0.025100 -0.155720
C34   C     C_R   0.930369 0.558511 0.954096 -0.163598
C35   C     C_R   0.636921 0.078284 0.950942 -0.158689
C36   C     C_R   0.441130 0.364650 0.951580 -0.166163
C37   C     C_3   0.247669 0.853110 0.971553 -0.242856
C38   C     C_3   0.082587 0.324299 0.971343 -0.259844
C39   C     C_3   0.597370 0.752617 0.972544 -0.241427
C40   C     C_3   0.073683 0.328294 0.051929 -0.282083
C41   C     C_3   0.263212 0.876228 0.051169 -0.279975
C42   C     C_3   0.605500 0.736963 0.052088 -0.280133
C43   C     C_R   0.465073 0.909546 0.563868 -0.006289
C44   C     C_R   0.043370 0.527852 0.568436 0.004391
C45   C     C_R   0.441168 0.533623 0.563332 -0.000630
C46   C     C_R   0.013833 0.517977 0.420530 -0.010235
C47   C     C_R   0.500424 0.981149 0.419299 -0.007505
C48   C     C_R   0.475475 0.499313 0.418159 -0.003215
C49   C     C_R   0.590345 0.945520 0.529255 -0.008841
C50   C     C_R   0.030444 0.630929 0.533050 0.003989
C51   C     C_R   0.345543 0.410641 0.528237 -0.006359
C52   C     C_R   0.013286 0.624838 0.460967 0.016113
C53   C     C_R   0.607521 0.979497 0.458590 -0.021287
C54   C     C_R   0.362560 0.393672 0.457167 -0.029555
C55   C     C_R   0.367622 0.928940 0.450985 -0.104038
C56   C     C_R   0.056772 0.431763 0.453542 -0.102795
C57   C     C_R   0.558217 0.630928 0.450073 -0.109357
C58   C     C_R   0.067266 0.434150 0.527985 -0.144635
C59   C     C_R   0.351228 0.895902 0.523788 -0.154003
C60   C     C_R   0.544951 0.645442 0.523344 -0.167853
Cr1   Cr    Cr6+3 0.769160 0.541570 0.250690 1.061953
Cr2   Cr    Cr6+3 0.458430 0.227590 0.250690 1.027596
Cr3   Cr    Cr6+3 0.772410 0.230840 0.250690 1.018876
Cr4   Cr    Cr6+3 0.541570 0.769160 0.749310 1.016944
Cr5   Cr    Cr6+3 0.227590 0.458430 0.749310 1.012836
Cr6   Cr    Cr6+3 0.230840 0.772410 0.749310 1.021008
H1    H     H_    0.754115 0.143824 0.047110 0.137227
H2    H     H_    0.847591 0.594598 0.048783 0.151474
H3    H     H_    0.387318 0.246627 0.047813 0.150847
H4    H     H_    0.883995 0.604813 0.921000 0.138216
H5    H     H_    0.729439 0.105528 0.919189 0.130369
H6    H     H_    0.377262 0.271802 0.919808 0.139460
H7    H     H_    0.250925 0.758235 0.954530 0.149071
H8    H     H_    0.184290 0.339207 0.952080 0.164379
H9    H     H_    0.497992 0.747435 0.956025 0.145943
H10   H     H_    0.978222 0.238385 0.075049 0.144079
H11   H     H_    0.186575 0.902932 0.074416 0.145091
H12   H     H_    0.708388 0.815784 0.075086 0.142907
H13   H     H_    0.160877 0.864535 0.948838 0.151910
H14   H     H_    0.988140 0.234957 0.946714 0.127474
H15   H     H_    0.695167 0.841102 0.949732 0.148285
H16   H     H_    0.173259 0.351954 0.078560 0.147021
H17   H     H_    0.273106 0.793593 0.080028 0.134219
H18   H     H_    0.511594 0.723889 0.081330 0.133628
H19   H     H_    0.281884 0.926830 0.421888 0.192371
H20   H     H_    0.065186 0.352332 0.423579 0.181099
H21   H     H_    0.643073 0.715946 0.420844 0.167507
H22   H     H_    0.086905 0.359122 0.554123 0.182583
H23   H     H_    0.253962 0.869743 0.549853 0.183705
H24   H     H_    0.622060 0.739195 0.549876 0.162569
O1    O     O_R   0.911480 0.572650 0.170990 -0.532956
O2    O     O_R   0.427350 0.338830 0.170990 -0.536708
O3    O     O_R   0.661170 0.088520 0.170990 -0.534512
O4    O     O_R   0.572650 0.911480 0.829010 -0.522968
O5    O     O_R   0.338830 0.427350 0.829010 -0.519385
O6    O     O_R   0.088520 0.661170 0.829010 -0.521518
O7    O     O_R   0.640340 0.528970 0.175680 -0.508981
O8    O     O_R   0.471030 0.111370 0.175680 -0.508004
O9    O     O_R   0.888630 0.359660 0.175680 -0.514532
O10   O     O_R   0.528970 0.640340 0.824320 -0.494543
O11   O     O_R   0.111370 0.471030 0.824320 -0.496165
O12   O     O_R   0.359660 0.888630 0.824320 -0.492667
O13   O     O_R   0.909980 0.572450 0.331530 -0.456390
O14   O     O_R   0.427550 0.337530 0.331530 -0.515140
O15   O     O_R   0.662470 0.090020 0.331530 -0.511761
O16   O     O_R   0.572450 0.909980 0.668470 -0.492283
O17   O     O_R   0.337530 0.427550 0.668470 -0.480499
O18   O     O_R   0.090020 0.662470 0.668470 -0.512409
O19   O     O_R   0.638950 0.528780 0.324500 -0.447814
O20   O     O_R   0.471220 0.110170 0.324500 -0.469251
O21   O     O_R   0.889830 0.361050 0.324500 -0.484938
O22   O     O_R   0.528780 0.638950 0.675500 -0.510447
O23   O     O_R   0.110170 0.471220 0.675500 -0.538280
O24   O     O_R   0.361050 0.889830 0.675500 -0.491904
O25   O     O_3   0.666667 0.333333 0.250560 -0.257106
O26   O     O_3   0.333333 0.666667 0.749440 -0.305560
O27   O     O_3   0.820231 0.993203 0.568905 -0.635599
H25   H     H_    0.807842 0.975980 0.620780 0.341218
O28   O     O_3   0.004880 0.827443 0.570829 -0.648034
H26   H     H_    0.011014 0.826432 0.623333 0.349538
O29   O     O_3   0.156491 0.181407 0.567959 -0.610592
H27   H     H_    0.154045 0.195408 0.619866 0.339390
O30   O     O_3   0.769165 0.564485 0.450640 -0.674636
H28   H     H_    0.750738 0.475107 0.472754 0.326484
O31   O     O_3   0.776575 0.230607 0.459366 -0.691107
H29   H     H_    0.698902 0.236871 0.482617 0.328563
O32   O     O_3   0.425782 0.209522 0.455072 -0.687422
H30   H     H_    0.514854 0.285881 0.475185 0.324030
O33   O     O_3   0.747019 0.155715 0.596329 -0.669817
H31   H     H_    0.848281 0.219206 0.606076 0.344638
O34   O     O_3   0.818690 0.596642 0.590913 -0.681552
H32   H     H_    0.762269 0.643136 0.597127 0.352917
O35   O     O_3   0.390489 0.244549 0.591870 -0.663311
H33   H     H_    0.355123 0.142186 0.595043 0.358953
O36   O     O_3   0.946755 0.796953 0.432486 -0.606851
H34   H     H_    0.884047 0.831099 0.449818 0.384498
O37   O     O_3   0.857018 0.073083 0.436438 -0.614888
H35   H     H_    0.873997 0.117118 0.388892 0.353812
O38   O     O_3   0.192028 0.148133 0.433735 -0.586905
H36   H     H_    0.216369 0.132231 0.385184 0.350544

loop_
_geom_bond_atom_site_label_1
_geom_bond_atom_site_label_2
_ccdc_geom_bond_type
C45   C60   A    
Cr4   O26   S    
C55   C59   A    
O30   H28   S    
Cr6   O12   S    
C9    C51   S    
Cr5   O11   S    
C10   C52   S    
C18   O24   A    
C17   O23   A    
O36   H34   S    
C21   C36   A    
C2    O8    A    
C31   H1    S    
C6    C19   S    
C37   H13   S    
Cr6   O26   S    
C37   C41   S    
C23   C29   A    
Cr6   O6    S    
C11   O31   S    
Cr1   O1    S    
C41   H11   S    
Cr4   O22   S    
C45   C51   A    
C41   H17   S    
C3    O9    A    
C46   C52   A    
C33   C36   A    
C3    O1    A    
C59   H23   S    
Cr3   O9    S    
C7    O27   S    
C13   O19   A    
C16   O17   A    
C25   C37   S    
Cr2   O8    S    
C56   H20   S    
C14   O15   A    
C44   C58   A    
C6    O4    A    
Cr2   O2    S    
Cr1   O25   S    
C50   C52   A    
C39   H9    S    
Cr3   O15   S    
C34   H4    S    
C11   C53   S    
C43   C59   A    
C47   C53   A    
Cr3   O25   S    
C21   C27   A    
Cr1   O19   S    
C22   C28   A    
C27   C30   A    
C12   O32   S    
Cr4   O4    S    
C39   C42   S    
Cr2   O14   S    
C25   C29   A    
C5    O11   A    
C40   H16   S    
C48   C54   A    
C48   C57   A    
C42   H18   S    
C10   O36   S    
C39   H15   S    
C10   O30   S    
C17   O18   A    
C27   C39   S    
C5    C20   S    
C43   C49   A    
C57   C60   A    
C40   H10   S    
C23   C31   A    
C55   H19   S    
C7    C11   S    
C18   O16   A    
C15   O21   A    
C4    O5    A    
C9    O29   S    
Cr2   O20   S    
Cr5   O5    S    
O28   H26   S    
C8    O34   S    
C12   O38   S    
Cr1   O7    S    
C13   O14   A    
C7    C49   S    
O29   H27   S    
C22   C32   A    
C42   H12   S    
C1    O2    A    
C60   H24   S    
C4    O10   A    
O31   H29   S    
Cr5   O26   S    
C31   C35   A    
C1    O7    A    
O32   H30   S    
C8    C50   S    
C5    O6    A    
C16   O22   A    
C47   C55   A    
O33   H31   S    
C38   H8    S    
C44   C50   A    
C14   O20   A    
C37   H7    S    
Cr6   O24   S    
Cr1   O13   S    
Cr5   O23   S    
C2    O3    A    
C26   C38   S    
Cr6   O18   S    
C58   H22   S    
C16   C45   S    
C13   C48   S    
O38   H36   S    
Cr4   O16   S    
C14   C47   S    
C33   H3    S    
O37   H35   S    
Cr3   O3    S    
C26   C28   A    
C24   C33   A    
C32   H2    S    
C51   C54   A    
C11   O37   S    
C17   C44   S    
C20   C34   A    
Cr2   O25   S    
C19   C35   A    
O27   H25   S    
C38   C40   S    
C4    C21   S    
O35   H33   S    
C20   C26   A    
C49   C53   A    
C56   C58   A    
C6    O12   A    
Cr3   O21   S    
O34   H32   S    
C19   C25   A    
C9    C12   S    
C24   C30   A    
C7    O33   S    
C35   H5    S    
C57   H21   S    
Cr4   O10   S    
C38   H14   S    
C1    C24   S    
C8    C10   S    
C46   C56   A    
C2    C23   S    
C28   C40   S    
C29   C41   S    
C30   C42   S    
C3    C22   S    
C15   C46   S    
C15   O13   A    
C18   C43   S    
Cr5   O17   S    
C12   C54   S    
C36   H6    S    
C8    O28   S    
C32   C34   A    
C9    O35   S    
