data_mof_unit_68528.cif
_audit_creation_date              2012-10-26T18:48:20-0400
_audit_creation_method            fapswitch 2.2
_symmetry_space_group_name_H-M    P1
_symmetry_Int_Tables_number       1
_space_group_crystal_system       triclinic
_cell_length_a                    10.649577
_cell_length_b                    8.669759
_cell_length_c                    7.528361
_cell_angle_alpha                 103.14749
_cell_angle_beta                  95.122777
_cell_angle_gamma                 93.599689
_cell_volume                      671.685843692

loop_
_atom_site_label
_atom_site_type_symbol
_atom_type_description
_atom_site_fract_x
_atom_site_fract_y
_atom_site_fract_z
_atom_type_partial_charge
C1    C     C_R   0.495705 0.199835 0.453106 0.565286
C2    C     C_3   0.124241 0.504014 0.503386 -0.001558
C3    C     C_3   0.968723 0.636165 0.603571 0.195569
C4    C     C_3   0.031277 0.363834 0.396428 0.195565
C5    C     C_2   0.493151 0.031423 0.427308 -0.051605
C6    C     C_2   0.506849 0.968577 0.572691 -0.051605
C7    C     C_2   0.915345 0.237022 0.637253 0.320806
C8    C     C_2   0.084655 0.762978 0.362746 0.320812
C9    C     C_2   0.109642 0.540201 0.866700 0.297754
C10   C     C_2   0.890358 0.459796 0.133299 0.297762
C11   C     C_R   0.504295 0.800165 0.546894 0.565286
C12   C     C_R   0.260229 0.501973 0.501322 0.601455
C13   C     C_R   0.739771 0.498027 0.498678 0.601456
C14   C     C_3   0.051413 0.517728 0.673158 -0.048284
C15   C     C_3   0.948587 0.482271 0.326842 -0.048285
C16   C     C_3   0.957985 0.377506 0.566261 -0.077505
C17   C     C_3   0.042015 0.622494 0.433739 -0.077506
C18   C     C_3   0.875759 0.495986 0.496614 -0.001556
Cl1   Cl    Cl    0.924774 0.816827 0.741167 -0.470725
Cl2   Cl    Cl    0.075226 0.183172 0.258833 -0.470728
Cl3   Cl    Cl    0.355659 0.310525 0.905759 -0.446501
Cl4   Cl    Cl    0.644342 0.689474 0.094241 -0.446496
Cu1   Cu    Cu3+1 0.514140 0.517380 0.684380 1.243542
Cu2   Cu    Cu3+1 0.485860 0.482620 0.315620 1.243543
H1    H     H_    0.479776 0.958912 0.287649 0.188448
H2    H     H_    0.520224 0.041088 0.712351 0.188449
H3    H     H_    0.985285 0.168161 0.689460 0.184220
H4    H     H_    0.014715 0.831836 0.310536 0.184221
H5    H     H_    0.103060 0.443059 0.934972 0.136627
H6    H     H_    0.896949 0.556933 0.065020 0.136624
N1    N     N_2   0.464560 0.456420 0.038510 0.074011
N2    N     N_2   0.535440 0.543580 0.961490 0.074012
O1    O     O_R   0.509190 0.286130 0.619780 -0.475797
O2    O     O_2   0.196979 0.801212 0.364138 -0.437417
O3    O     O_2   0.168302 0.665999 0.946049 -0.394163
O4    O     O_2   0.831687 0.334002 0.053958 -0.394159
O5    O     O_R   0.490810 0.713870 0.380220 -0.475798
O6    O     O_R   0.485310 0.256770 0.308360 -0.472073
O7    O     O_R   0.514690 0.743230 0.691640 -0.472074
O8    O     O_R   0.328790 0.514640 0.655680 -0.476167
O9    O     O_R   0.671210 0.485360 0.344320 -0.476163
O10   O     O_R   0.304910 0.485280 0.344260 -0.455935
O11   O     O_R   0.695090 0.514720 0.655740 -0.455934
O12   O     O_2   0.803020 0.198790 0.635866 -0.437416

loop_
_geom_bond_atom_site_label_1
_geom_bond_atom_site_label_2
_ccdc_geom_bond_type
C12   O8    A    
C15   C18   S    
Cu2   O6    S    
C9    C14   S    
C4    C16   S    
Cu2   O10   S    
C10   H6    S    
C2    C4    S    
N1    N2    D    
C9    H5    S    
Cu1   Cu2   S    
C2    C12   S    
Cu1   N2    S    
C4    C15   S    
C13   O9    A    
Cu2   O5    S    
Cu2   N1    S    
C1    O1    A    
C8    O2    D    
C7    O12   D    
C2    C17   S    
C3    Cl1   S    
Cu2   O9    S    
Cl3   N1    S    
C6    H2    S    
C3    C14   S    
Cl4   N2    S    
C13   C18   S    
C1    C5    S    
C1    O6    A    
C7    C16   S    
C10   O4    D    
C3    C17   S    
C10   C15   S    
C5    C6    D    
C8    H4    S    
C14   C16   S    
C9    O3    D    
Cu1   O8    S    
C4    Cl2   S    
C11   O7    A    
C13   O11   A    
C7    H3    S    
C3    C18   S    
C16   C18   S    
C2    C14   S    
C6    C11   S    
C11   O5    A    
C12   O10   A    
C15   C17   S    
Cu1   O11   S    
Cu1   O7    S    
C8    C17   S    
Cu1   O1    S    
C5    H1    S    
