data_mof_unit_20467.cif
_audit_creation_date              2012-12-10T17:32:19-0500
_audit_creation_method            fapswitch 2.2
_symmetry_space_group_name_H-M    P1
_symmetry_Int_Tables_number       1
_space_group_crystal_system       triclinic
_cell_length_a                    12.31989
_cell_length_b                    13.20773
_cell_length_c                    15.02754
_cell_angle_alpha                 77.618355
_cell_angle_beta                  101.252178
_cell_angle_gamma                 116.453798
_cell_volume                      2124.37952155

loop_
_atom_site_label
_atom_site_type_symbol
_atom_type_description
_atom_site_fract_x
_atom_site_fract_y
_atom_site_fract_z
_atom_type_partial_charge
C1    C     C_R   0.854713 0.286644 0.508244 0.782437
C2    C     C_R   0.115993 0.558284 0.102498 0.083784
C3    C     C_R   0.782392 0.413640 0.027143 -0.197530
C4    C     C_R   0.783352 0.414832 0.934447 -0.176332
C5    C     C_R   0.894247 0.463188 0.896839 0.130153
C6    C     C_R   0.005805 0.511761 0.952435 0.003488
C7    C     C_R   0.117875 0.561756 0.914551 -0.010414
C8    C     C_R   0.227400 0.612007 0.971009 -0.210905
C9    C     C_R   0.227239 0.612334 0.063937 0.230906
C10   C     C_R   0.895052 0.462747 0.804546 -0.299975
C11   C     C_R   0.005420 0.509420 0.766915 -0.144021
C12   C     C_R   0.001701 0.503024 0.670732 0.865002
C13   C     C_R   0.117451 0.561213 0.820947 0.333096
C14   C     C_R   0.266862 0.031136 0.414669 -0.130618
C15   C     C_R   0.227238 0.834982 0.475786 -0.060254
C16   C     C_R   0.814262 0.088220 0.576427 -0.255810
C17   C     C_R   0.732876 0.981690 0.613113 -0.166206
C18   C     C_R   0.607533 0.948104 0.592277 0.365752
C19   C     C_R   0.561513 0.015929 0.522196 -0.015080
C20   C     C_R   0.645510 0.125488 0.485496 -0.025593
C21   C     C_R   0.435585 0.981757 0.489318 0.028540
C22   C     C_R   0.393138 0.062764 0.436387 0.066009
C23   C     C_R   0.145020 0.713332 0.487143 0.823525
C24   C     C_R   0.477879 0.169875 0.400545 0.338438
C25   C     C_R   0.601360 0.195310 0.418403 -0.217415
C26   C     C_R   0.352160 0.867250 0.500116 -0.131434
C27   C     C_R   0.184203 0.918180 0.436497 -0.216814
C28   C     C_R   0.771461 0.164172 0.518655 -0.072897
C29   C     C_R   0.346653 0.327841 0.645121 -0.280857
C30   C     C_R   0.760614 0.646468 0.376918 0.062502
C31   C     C_R   0.664274 0.679271 0.349571 0.221809
C32   C     C_R   0.560511 0.623744 0.396663 -0.232882
C33   C     C_R   0.551609 0.534842 0.470219 -0.008570
C34   C     C_R   0.000244 0.499966 0.329116 0.795279
C35   C     C_R   0.652843 0.505029 0.494947 0.293038
C36   C     C_R   0.446991 0.475132 0.520675 0.007118
C37   C     C_R   0.446592 0.387584 0.594314 0.177425
C38   C     C_R   0.546183 0.360374 0.617420 -0.270517
C39   C     C_R   0.646969 0.418078 0.569266 -0.154668
C40   C     C_R   0.341975 0.497968 0.501914 0.070167
C41   C     C_R   0.246870 0.354716 0.623334 0.112258
C42   C     C_R   0.113100 0.550975 0.196306 -0.216211
C43   C     C_R   0.001676 0.502045 0.232533 -0.079438
C44   C     C_R   0.891598 0.458283 0.176244 -0.235250
C45   C     C_R   0.892334 0.460445 0.083303 0.122549
C46   C     C_R   0.004856 0.510165 0.046075 0.030595
Cu1   Cu    Cu3+1 0.098270 0.475420 0.521130 0.986275
Cu2   Cu    Cu3+1 0.901730 0.524580 0.478870 0.938925
H1    H     H_    0.197029 0.585035 0.241491 0.177486
H2    H     H_    0.231323 0.092033 0.378146 0.196413
H3    H     H_    0.384806 0.801495 0.521333 0.201201
H4    H     H_    0.910322 0.115146 0.600934 0.171633
H5    H     H_    0.767751 0.929070 0.664702 0.181945
H6    H     H_    0.662003 0.271528 0.379155 0.197478
H7    H     H_    0.169379 0.308847 0.662212 0.122872
H8    H     H_    0.546741 0.293924 0.674008 0.152747
H9    H     H_    0.345846 0.260820 0.701476 0.144479
H10   H     H_    0.805656 0.420724 0.205313 0.157186
H11   H     H_    0.333938 0.562542 0.447016 0.111814
H12   H     H_    0.842400 0.690386 0.342746 0.136297
H13   H     H_    0.488314 0.651652 0.374313 0.131776
H14   H     H_    0.718853 0.391843 0.593592 0.198175
H15   H     H_    0.695725 0.375601 0.055042 0.157618
H16   H     H_    0.697360 0.377606 0.892165 0.148077
H17   H     H_    0.809543 0.423884 0.762069 0.154363
H18   H     H_    0.314402 0.653164 0.943702 0.211125
H19   H     H_    0.087577 0.894952 0.417225 0.162866
N1    N     N_R   0.246280 0.438190 0.553160 -0.181142
N2    N     N_R   0.754320 0.561190 0.447410 -0.233299
O1    O     O_R   0.972510 0.318130 0.526570 -0.587916
O2    O     O_R   0.806530 0.359650 0.490890 -0.605106
O3    O     O_R   0.082980 0.479210 0.647590 -0.533621
O4    O     O_R   0.917000 0.520730 0.611900 -0.606204
O5    O     O_R   0.193470 0.640350 0.509110 -0.569013
O6    O     O_R   0.027490 0.681870 0.473430 -0.594347
O7    O     O_R   0.083000 0.479270 0.388100 -0.586725
O8    O     O_R   0.917020 0.520790 0.352410 -0.590454
Cl1   Cl    Cl    0.434185 0.271948 0.326489 -0.653976
Cl2   Cl    Cl    0.518898 0.834589 0.670833 -0.572101
N3    N     N_2   0.673586 0.771252 0.277228 -0.437854
H20   H     H_    0.609373 0.802628 0.272814 0.252864
C47   C     C_3   0.689978 0.755538 0.189159 -0.660453
H21   H     H_    0.690540 0.829431 0.137056 0.231562
H22   H     H_    0.614228 0.676184 0.167248 0.236213
H23   H     H_    0.778362 0.750687 0.192482 0.226826
Cl3   Cl    Cl    0.255852 0.630371 0.770068 -0.546461
N4    N     N_2   0.339293 0.670100 0.117475 -0.432373
H24   H     H_    0.413250 0.666728 0.098015 0.262716
C48   C     C_3   0.362514 0.785548 0.125190 -0.691455
H25   H     H_    0.372631 0.839124 0.056661 0.240135
H26   H     H_    0.447998 0.823504 0.170919 0.223000
H27   H     H_    0.286966 0.786033 0.154888 0.234252

loop_
_geom_bond_atom_site_label_1
_geom_bond_atom_site_label_2
_ccdc_geom_bond_type
C16   C28   A    
N4    H24   S    
C8    H18   S    
C19   C20   A    
Cu2   N2    S    
C21   C26   A    
C31   N3    S    
C14   H2    S    
C45   C46   A    
C2    C46   A    
C1    O2    A    
C36   C37   A    
C19   C21   A    
Cu1   O7    S    
C34   O8    A    
C5    C6    A    
C16   C17   A    
C20   C25   A    
C33   C36   A    
C18   C19   A    
C41   H7    S    
Cu1   Cu2   S    
C44   H10   S    
C18   Cl2   S    
C30   H12   S    
C13   Cl3   S    
C1    C28   S    
C14   C27   A    
C48   H26   S    
C15   C23   S    
C12   O3    A    
C40   H11   S    
C21   C22   A    
Cu2   O6    S    
C41   N1    A    
C36   C40   A    
C27   H19   S    
C25   H6    S    
N3    C47   S    
C8    C9    A    
C15   C26   A    
C20   C28   A    
C3    C45   A    
Cu2   O8    S    
C35   C39   A    
C43   C44   A    
Cu1   O1    S    
C37   C38   A    
C15   C27   A    
C31   C32   A    
C7    C13   A    
C30   C31   A    
C17   C18   A    
C24   C25   A    
C48   H27   S    
C24   Cl1   S    
C29   H9    S    
C47   H22   S    
N4    C48   S    
C22   C24   A    
C42   C43   A    
C23   O5    A    
C3    C4    A    
C17   H5    S    
Cu1   N1    S    
C30   N2    A    
C44   C45   A    
C10   H17   S    
C39   H14   S    
C6    C46   A    
C29   C41   A    
Cu2   O4    S    
C34   C43   S    
C16   H4    S    
Cu1   O5    S    
C23   O6    A    
N3    H20   S    
C32   H13   S    
C11   C12   S    
C6    C7    A    
C3    H15   S    
C47   H23   S    
C4    H16   S    
C1    O1    A    
C32   C33   A    
C14   C22   A    
C5    C10   A    
C26   H3    S    
C9    N4    S    
C11   C13   A    
C38   C39   A    
C2    C42   A    
C33   C35   A    
Cu1   O3    S    
C7    C8    A    
C10   C11   A    
C42   H1    S    
C4    C5    A    
C38   H8    S    
C35   N2    A    
C47   H21   S    
C40   N1    A    
C29   C37   A    
Cu2   O2    S    
C48   H25   S    
C12   O4    A    
C2    C9    A    
C34   O7    A    
