data_mof_unit_32969.cif
_audit_creation_date              2013-03-05T15:55:08-0500
_audit_creation_method            fapswitch 2.2
_symmetry_space_group_name_H-M    P1
_symmetry_Int_Tables_number       1
_space_group_crystal_system       triclinic
_cell_length_a                    8.444496
_cell_length_b                    16.627886
_cell_length_c                    17.223629
_cell_angle_alpha                 99.368159
_cell_angle_beta                  96.549653
_cell_angle_gamma                 94.493541
_cell_volume                      2358.99669675

loop_
_atom_site_label
_atom_site_type_symbol
_atom_site_description
_atom_site_fract_x
_atom_site_fract_y
_atom_site_fract_z
_atom_type_partial_charge
P1    P     P_3+3 0.011660 0.422550 0.320180 0.520839
O1    O     O_2   0.836060 0.445790 0.307930 -0.430574
O2    O     O_3   0.108600 0.451610 0.405920 -0.327837
O3    O     O_3   0.604850 0.595390 0.356120 -0.403621
O4    O     O_2   0.663642 0.526637 0.217211 -0.373433
O5    O     O_3   0.010208 0.315001 0.304963 -0.595469
O6    O     O_3   0.634675 0.682248 0.227540 -0.531525
H1    H     H_    0.569101 0.749753 0.330228 -0.015787
C1    C     C_3   0.697047 0.824906 0.259352 -0.260985
H2    H     H_    0.815078 0.805903 0.271604 0.173555
H3    H     H_    0.682669 0.838354 0.197874 0.173447
P2    P     P_3+3 0.650900 0.688870 0.561900 0.539473
P3    P     P_3+3 0.075592 0.743848 0.398992 0.506785
O7    O     O_2   0.818230 0.699530 0.538240 -0.317302
O8    O     O_3   0.027730 0.639010 0.395710 -0.400760
O9    O     O_2   0.942724 0.787812 0.438483 -0.264650
O10   O     O_3   0.667694 0.714142 0.665499 -0.596435
O11   O     O_3   0.058425 0.767158 0.302381 -0.585742
C2    C     C_3   0.024239 0.696334 0.243261 0.037683
H4    H     H_    0.923209 0.656329 0.256719 0.177088
H5    H     H_    0.130224 0.661957 0.242487 0.124308
C3    C     C_3   0.979314 0.720660 0.159980 0.314038
H6    H     H_    0.933984 0.781784 0.168341 0.068226
C4    C     C_3   0.259844 0.718879 0.645401 0.158433
H7    H     H_    0.368275 0.689618 0.631045 0.101054
H8    H     H_    0.172249 0.707331 0.590562 0.076298
C5    C     C_3   0.308038 0.811842 0.673257 0.570261
H9    H     H_    0.417395 0.825347 0.646717 -0.059149
Ba1   Ba    Ba6+2 0.836100 0.536190 0.461710 1.653115
C6    C     C_3   0.858388 0.272894 0.277014 0.506746
H10   H     H_    0.766810 0.306528 0.304395 0.016400
C7    C     C_3   0.824205 0.262334 0.185470 0.943725
H11   H     H_    0.832250 0.324734 0.169852 -0.200996
C8    C     C_3   0.806404 0.690617 0.704458 0.236821
H12   H     H_    0.914056 0.721804 0.687136 0.128821
H13   H     H_    0.808887 0.623291 0.690388 0.096075
C9    C     C_3   0.800908 0.719020 0.793443 -0.114401
H14   H     H_    0.828854 0.786617 0.808420 0.111359
H15   H     H_    0.676968 0.704840 0.806947 0.200870
P4    P     P_3+3 0.178040 0.577520 0.679830 0.506817
O12   O     O_2   0.353650 0.554240 0.692110 -0.321974
O13   O     O_3   0.081100 0.548460 0.594090 -0.426212
O14   O     O_3   0.584850 0.404680 0.643890 -0.344733
O15   O     O_3   0.196737 0.684403 0.705409 -0.542316
P5    P     P_3+3 0.118776 0.257284 0.610507 0.548152
O16   O     O_3   0.621030 0.400630 0.459910 -0.363941
O17   O     O_3   0.161970 0.361060 0.604300 -0.334459
O18   O     O_2   0.248587 0.213810 0.568416 -0.299335
O19   O     O_3   0.166502 0.245957 0.710285 -0.520416
Ba2   Ba    Ba6+2 0.353720 0.463880 0.538300 1.662348
P6    P     P_3+3 0.559311 0.591019 0.254888 0.518662
C10   C     C_3   0.574531 0.753077 0.266460 0.878852
O20   O     O_3   0.568670 0.599440 0.540100 -0.367600
C11   C     C_3   0.387055 0.252832 0.291296 0.975858
H16   H     H_    0.405777 0.232586 0.228271 0.008963
C12   C     C_3   0.253070 0.190571 0.303121 -0.660887
H17   H     H_    0.292592 0.128308 0.294684 0.238229
H18   H     H_    0.210192 0.204985 0.361482 0.288449
H19   H     H_    0.150756 0.188697 0.256700 0.218470
P7    P     P_3+3 0.545243 0.295998 0.438981 0.558944
O21   O     O_2   0.371480 0.300500 0.461810 -0.316430
O22   O     O_3   0.532846 0.248875 0.338572 -0.615073
C13   C     C_3   0.029115 0.220730 0.743321 0.023066
H20   H     H_    0.967802 0.275914 0.762278 0.030658
H21   H     H_    0.944721 0.175664 0.701455 0.022743
C14   C     C_3   0.072325 0.179219 0.816603 1.152285
P8    P     P_3+3 0.636519 0.445728 0.744812 0.524044
C15   C     C_3   0.495415 0.326915 0.800894 1.058627
O23   O     O_2   0.615850 0.537719 0.750695 -0.355055
O24   O     O_3   0.499615 0.412323 0.804144 -0.564341
H22   H     H_    0.383319 0.311329 0.824179 0.110958
H23   H     H_    0.744851 0.309173 0.841980 0.268381
C16   C     C_3   0.625024 0.303856 0.861689 -1.206241
H24   H     H_    0.595999 0.240205 0.871151 0.278922
H25   H     H_    0.628256 0.344522 0.919795 0.241566
C17   C     C_2   0.245222 0.525048 0.275644 -0.542639
C18   C     C_3   0.342409 0.560995 0.217994 0.155358
C19   C     C_2   0.310684 0.513379 0.134278 0.539620
C20   C     C_2   0.158595 0.478041 0.109019 -0.051657
C21   C     C_2   0.054233 0.462064 0.171643 -0.390357
C22   C     C_1   0.113105 0.474856 0.248583 0.357705
C23   C     C_R   0.910444 0.457738 0.857049 -0.171966
C24   C     C_R   0.848759 0.449766 0.776808 0.178557
C25   C     C_R   0.088306 0.520679 0.749504 0.320651
C26   C     C_R   0.156134 0.525924 0.828889 -0.135939
C27   C     C_R   0.068884 0.491752 0.883147 0.070964
C28   C     C_2   0.089064 0.460232 0.022744 -0.100284
C29   C     C_2   0.136935 0.504572 0.968342 0.000333
C30   C     C_R   0.942312 0.475746 0.723005 -0.420463
H26   H     H_    0.231000 0.554256 0.986090 0.225351
H27   H     H_    0.926412 0.448265 0.154196 0.209120
H28   H     H_    0.831593 0.445567 0.899764 0.154622
H29   H     H_    0.990811 0.412265 0.005155 0.131214
H30   H     H_    0.272788 0.559400 0.848956 0.169860
H31   H     H_    0.268330 0.552787 0.337858 0.183433
H32   H     H_    0.889978 0.472324 0.662011 0.153965
C31   C     C_R   0.382225 0.731080 0.473780 -0.633324
C32   C     C_R   0.533755 0.760196 0.514294 0.162186
C33   C     C_R   0.583206 0.845222 0.530467 0.464078
C34   C     C_R   0.479963 0.900575 0.501757 0.062536
C35   C     C_R   0.324214 0.869711 0.465377 -0.261462
C36   C     C_R   0.275275 0.785308 0.451639 0.263105
C37   C     C_R   0.610980 0.145717 0.486347 0.225634
C38   C     C_R   0.656657 0.230872 0.497037 0.155724
C39   C     C_R   0.714780 0.093985 0.520135 0.094137
N1    N     N_2   0.524810 0.986810 0.509321 0.001783
N2    N     N_2   0.672157 0.008045 0.516155 0.038437
C40   C     C_R   0.807067 0.263281 0.536917 -0.413390
H33   H     H_    0.242478 0.911406 0.445452 0.220982
C41   C     C_R   0.916661 0.211777 0.562652 0.223934
C42   C     C_R   0.870391 0.127232 0.554093 -0.263961
H34   H     H_    0.954580 0.087465 0.575652 0.188999
H35   H     H_    0.344054 0.666129 0.463081 0.192637
H36   H     H_    0.843452 0.328115 0.542763 0.160083
N3    N     N_R   0.190348 0.863475 0.642710 0.184108
O25   O     O_R   0.235480 0.938906 0.638028 -0.446811
O26   O     O_R   0.042294 0.834720 0.618652 -0.397131
O27   O     O_3   0.353951 0.832315 0.756795 -0.624912
C43   C     C_3   0.227333 0.858377 0.798675 0.107524
H37   H     H_    0.111361 0.821632 0.775306 0.124742
H38   H     H_    0.214731 0.924022 0.797111 0.127145
H39   H     H_    0.256752 0.851979 0.861658 0.174590
N4    N     N_R   0.852584 0.193352 0.303781 0.242782
O28   O     O_R   0.899009 0.190493 0.377736 -0.395845
O29   O     O_R   0.801627 0.125219 0.255550 -0.263057
O30   O     O_3   0.665759 0.225469 0.161722 -0.658673
C44   C     C_3   0.621799 0.223694 0.079948 -0.140447
H40   H     H_    0.696872 0.184827 0.043527 0.229808
H41   H     H_    0.627418 0.286342 0.065048 0.088192
H42   H     H_    0.496472 0.195804 0.064375 0.131432
O31   O     O_3   0.932630 0.210539 0.150623 -0.591663
C45   C     C_3   0.050171 0.255640 0.118977 -0.284942
H43   H     H_    0.122097 0.302089 0.165833 0.142860
H44   H     H_    0.995233 0.284791 0.070185 0.182352
H45   H     H_    0.133410 0.212902 0.094400 0.177227
N5    N     N_R   0.911629 0.679990 0.843181 0.241117
O32   O     O_R   0.856450 0.638640 0.893908 -0.317495
O33   O     O_R   0.064674 0.700990 0.849860 -0.389976
O34   O     O_3   0.420008 0.760452 0.227328 -0.622446
C46   C     C_3   0.367274 0.838222 0.252393 -0.032679
H46   H     H_    0.423122 0.884980 0.222081 0.179873
H47   H     H_    0.388395 0.857146 0.317685 0.111500
H48   H     H_    0.238229 0.837368 0.233884 0.197200
N6    N     N_R   0.693315 0.898725 0.316949 0.238658
O35   O     O_R   0.735722 0.897308 0.391452 -0.352660
O36   O     O_R   0.695297 0.968851 0.292864 -0.262206
O37   O     O_3   0.341929 0.332952 0.301293 -0.631460
C47   C     C_3   0.446979 0.382320 0.266410 -0.112449
H49   H     H_    0.383136 0.394006 0.210588 0.052339
H50   H     H_    0.557763 0.356054 0.250347 0.101744
H51   H     H_    0.485459 0.439490 0.309053 0.205144
N7    N     N_R   0.116811 0.727495 0.116195 0.259552
O38   O     O_R   0.198582 0.665527 0.099528 -0.353438
O39   O     O_R   0.143402 0.791649 0.083431 -0.341513
O40   O     O_3   0.183339 0.234202 0.872935 -0.686155
C48   C     C_3   0.248214 0.197636 0.936540 -0.214829
H52   H     H_    0.281634 0.246620 0.989103 0.131017
H53   H     H_    0.359017 0.170033 0.922319 0.144393
H54   H     H_    0.163832 0.150359 0.952992 0.195021
N8    N     N_R   0.923171 0.164667 0.850886 0.187814
O41   O     O_R   0.814762 0.106391 0.815160 -0.461912
O42   O     O_R   0.898792 0.207954 0.917765 -0.456278
O43   O     O_3   0.130870 0.101246 0.794937 -0.675702
C49   C     C_3   0.273609 0.105157 0.759585 -0.091086
H55   H     H_    0.356241 0.160306 0.785203 0.141761
H56   H     H_    0.245148 0.101286 0.694484 0.206847
H57   H     H_    0.338699 0.051766 0.769925 0.171889
O44   O     O_3   0.475033 0.283522 0.721078 -0.559842
C50   C     C_3   0.596291 0.233134 0.701585 -0.191637
H58   H     H_    0.710595 0.270606 0.701754 0.097692
H59   H     H_    0.560272 0.199000 0.640732 0.163353
H60   H     H_    0.609638 0.186160 0.740010 0.157603
O45   O     O_3   0.422520 0.524429 0.082796 -0.552666
C51   C     C_3   0.476382 0.448322 0.053858 -0.138130
H61   H     H_    0.521071 0.416559 0.102732 0.105850
H62   H     H_    0.578150 0.459813 0.020421 0.201983
H63   H     H_    0.381871 0.407658 0.012400 0.103273
N9    N     N_R   0.473210 0.110263 0.431789 0.233347
O46   O     O_R   0.332092 0.109273 0.454872 -0.378674
O47   O     O_R   0.493128 0.061372 0.367458 -0.338702
O48   O     O_3   0.733404 0.872708 0.571683 -0.540973
C52   C     C_3   0.718825 0.912032 0.649478 -0.032240
H64   H     H_    0.622394 0.953965 0.652157 0.093157
H65   H     H_    0.833177 0.949654 0.674352 0.197883
H66   H     H_    0.698827 0.866359 0.688372 0.147476
N10   N     N_R   0.853062 0.662798 0.111166 0.265099
O49   O     O_R   0.728184 0.689838 0.076256 -0.283677
O50   O     O_R   0.871857 0.585326 0.095177 -0.375345

loop_
_geom_bond_atom_site_label_1
_geom_bond_atom_site_label_2
_geom_bond_distance
_ccdc_geom_bond_type
C28   C29   1.359983 D    
C13   H21   1.101162 S    
P8    C24   1.806699 S    
O30   C44   1.409904 S    
O19   C13   1.413413 S    
C21   C22   1.337867 D    
P2    Ba1   3.417669 S    
C8    C9    1.535638 S    
C50   H59   1.104427 S    
C50   H58   1.106552 S    
P4    C25   1.836315 S    
C42   H34   1.083472 S    
C47   H51   1.103887 S    
C20   C28   1.506994 S    
N9    O46   1.298292 A    
N4    O28   1.298916 A    
C18   C19   1.511517 S    
C39   N2    1.434641 S    
C35   C36   1.405393 A    
P3    O11   1.761778 S    
O1    Ba1   2.824607 S    
C49   H55   1.104656 S    
C2    H5    1.099241 S    
C4    H8    1.111516 S    
O6    C10   1.417295 S    
P1    O1    1.561301 D    
C15   H22   1.098214 S    
C17   H31   1.084591 S    
C26   C27   1.415401 A    
C6    H10   1.094683 S    
Ba1   O13   2.868268 S    
C27   C29   1.488443 S    
C5    O27   1.424424 S    
N1    N2    1.253380 D    
C40   H36   1.082792 S    
N3    O25   1.299974 A    
C31   C32   1.395678 A    
C10   O34   1.422442 S    
C23   H28   1.079216 S    
C12   H17   1.104799 S    
P7    O22   1.766477 S    
C8    H12   1.105771 S    
C16   H24   1.109691 S    
P5    O17   1.758522 S    
C7    O30   1.413616 S    
O2    Ba1   2.961083 S    
C52   H64   1.112867 S    
C34   C35   1.409735 A    
O37   C47   1.410612 S    
O27   C43   1.413550 S    
C1    N6    1.452074 S    
C2    H4    1.109266 S    
C31   H35   1.082305 S    
C12   H18   1.103234 S    
C45   H43   1.108361 S    
N3    O26   1.298875 A    
P2    O10   1.751976 S    
C19   O45   1.388810 S    
C4    C5    1.549419 S    
C1    H2    1.077437 S    
H1    C10   1.114587 S    
P2    C32   1.836544 S    
C31   C36   1.391091 A    
P4    O13   1.585668 S    
C39   C42   1.407132 A    
C13   C14   1.555858 S    
C16   H25   1.109115 S    
C1    C10   1.547500 S    
C44   H41   1.111462 S    
C14   N8    1.470395 S    
O2    Ba2   2.868900 S    
O8    Ba1   2.729964 S    
O17   Ba2   2.730563 S    
C11   C12   1.526796 S    
Ba1   Ba2   4.555619 S    
C43   H38   1.109345 S    
P1    C22   1.866653 S    
C46   H46   1.109210 S    
C24   C30   1.383228 A    
C3    N7    1.461754 S    
O40   C48   1.414941 S    
Ba2   O20   2.774865 S    
O3    P6    1.730497 S    
P1    O5    1.763556 S    
O44   C50   1.408727 S    
C2    C3    1.566473 S    
C4    H7    1.103881 S    
N5    O33   1.299125 A    
C19   C20   1.362005 D    
O11   C2    1.412916 S    
C11   O22   1.408719 S    
C15   C16   1.541552 S    
O45   C51   1.411854 S    
C41   C42   1.408545 A    
P7    O21   1.566061 D    
P1    O2    1.585668 S    
C52   H66   1.106965 S    
N8    O42   1.301818 A    
O48   C52   1.415307 S    
P6    C18   1.869706 S    
C9    H14   1.111647 S    
C26   H30   1.083271 S    
C33   C34   1.423839 A    
P5    O19   1.763676 S    
O34   C46   1.417482 S    
P1    Ba1   3.387390 S    
C9    N5    1.456914 S    
C37   C39   1.418321 A    
C25   C26   1.407083 A    
C46   H48   1.098260 S    
C1    H3    1.112653 S    
C51   H63   1.110081 S    
O13   Ba2   2.961946 S    
C45   H44   1.111444 S    
C15   O44   1.429585 S    
N6    O36   1.299240 A    
P4    O12   1.561645 D    
O5    C6    1.405132 S    
C29   H26   1.080030 S    
C23   C24   1.401515 A    
P3    O8    1.748640 S    
C4    O15   1.396971 S    
C50   H60   1.107172 S    
C20   C21   1.511315 S    
O10   C8    1.397597 S    
O7    Ba1   2.842708 S    
N10   O50   1.298845 A    
O31   C45   1.408738 S    
O12   Ba2   2.824931 S    
C38   C40   1.395945 A    
N7    O39   1.301613 A    
P5    O18   1.544210 D    
Ba2   O21   2.842909 S    
C11   H16   1.115875 S    
C48   H52   1.108287 S    
O16   P7    1.770651 S    
P5    C41   1.854355 S    
C48   H54   1.112130 S    
P2    O20   1.559288 S    
C47   H50   1.107337 S    
H23   C16   1.105022 S    
C17   C22   1.329408 D    
O3    Ba1   2.857215 S    
N9    O47   1.299068 A    
C43   H37   1.109344 S    
P3    C36   1.845639 S    
O14   Ba2   2.856568 S    
C46   H47   1.107112 S    
O16   Ba2   2.937585 S    
C34   N1    1.435035 S    
C12   H19   1.103092 S    
Ba1   O16   2.775462 S    
N6    O35   1.296831 A    
C37   N9    1.430674 S    
N8    O41   1.301541 A    
P8    O24   1.744448 S    
C21   H27   1.082940 S    
C48   H53   1.108658 S    
P2    O7    1.519780 D    
C44   H42   1.106753 S    
O6    P6    1.754350 S    
C9    H15   1.113472 S    
C23   C27   1.404809 A    
C7    H11   1.112446 S    
C6    C7    1.548656 S    
C17   C18   1.522832 S    
C14   O40   1.423193 S    
Ba1   O20   2.938446 S    
C30   H32   1.082991 S    
C45   H45   1.107480 S    
P4    Ba2   3.387962 S    
C28   H29   1.084727 S    
C49   H56   1.109840 S    
C3    N10   1.463086 S    
C43   H39   1.109067 S    
C51   H62   1.108923 S    
C40   C41   1.393048 A    
C14   O43   1.431674 S    
C8    H13   1.108562 S    
C47   H49   1.100811 S    
C49   H57   1.107973 S    
C52   H65   1.109543 S    
C33   O48   1.385517 S    
O43   C49   1.412767 S    
N4    O29   1.301694 A    
C13   H20   1.110024 S    
P4    O15   1.750099 S    
C6    N4    1.468927 S    
O14   P8    1.752657 S    
C32   C33   1.415458 A    
C25   C30   1.379397 A    
P3    O9    1.548114 D    
C37   C38   1.414548 A    
C15   O24   1.409597 S    
C3    H6    1.107311 S    
O4    P6    1.547712 D    
N7    O38   1.296662 A    
P8    O23   1.541373 D    
N10   O49   1.301303 A    
P7    C38   1.831737 S    
C35   H33   1.083159 S    
C7    O31   1.421590 S    
N5    O32   1.300564 A    
C44   H40   1.111762 S    
C11   O37   1.403384 S    
C5    H9    1.099739 S    
C51   H61   1.110610 S    
C5    N3    1.470740 S    
