data_mof_unit_57130.cif
_audit_creation_date              2012-12-10T17:58:18-0500
_audit_creation_method            fapswitch 2.2
_symmetry_space_group_name_H-M    P1
_symmetry_Int_Tables_number       1
_space_group_crystal_system       triclinic
_cell_length_a                    9.527726
_cell_length_b                    10.799958
_cell_length_c                    15.429901
_cell_angle_alpha                 89.545252
_cell_angle_beta                  74.591422
_cell_angle_gamma                 89.599649
_cell_volume                      1530.58454199

loop_
_atom_site_label
_atom_site_type_symbol
_atom_type_description
_atom_site_fract_x
_atom_site_fract_y
_atom_site_fract_z
_atom_type_partial_charge
C1    C     C_R   0.000148 0.262175 0.500482 0.785890
C2    C     C_R   0.999539 0.737887 0.500742 0.772898
C3    C     C_R   0.586079 0.484100 0.097055 -0.261151
C4    C     C_R   0.431449 0.588824 0.911289 -0.255159
C5    C     C_R   0.731061 0.463977 0.052324 -0.144730
C6    C     C_R   0.287742 0.612757 0.956648 -0.187844
C7    C     C_R   0.868271 0.064818 0.530061 -0.182001
C8    C     C_R   0.131788 0.935451 0.474657 -0.182638
C9    C     C_R   0.868068 0.936777 0.531065 -0.205312
C10   C     C_R   0.132205 0.063507 0.474591 -0.192138
C11   C     C_R   0.999543 0.871787 0.502024 -0.021497
C12   C     C_R   0.000305 0.128404 0.501647 -0.014255
C13   C     C_R   0.550541 0.426108 0.558339 -0.262975
C14   C     C_R   0.449991 0.570911 0.440398 -0.216241
C15   C     C_R   0.398874 0.425250 0.559302 0.574080
C16   C     C_R   0.598172 0.574349 0.441552 0.557889
C17   C     C_R   0.918409 0.498899 0.672327 0.830330
C18   C     C_R   0.081754 0.503025 0.327750 0.824979
C19   C     C_R   0.873968 0.494461 0.771008 -0.108784
C20   C     C_R   0.128065 0.521452 0.229980 -0.129324
C21   C     C_R   0.926231 0.449019 0.914055 0.470419
C22   C     C_R   0.088551 0.610085 0.093641 0.502354
C23   C     C_R   0.973405 0.464496 0.820136 -0.318340
C24   C     C_R   0.035127 0.575161 0.183709 -0.281436
C25   C     C_R   0.728378 0.516238 0.815690 -0.269246
C26   C     C_R   0.273651 0.498737 0.185118 -0.267936
C27   C     C_R   0.678829 0.511697 0.909813 0.017124
C28   C     C_R   0.331947 0.534361 0.095076 0.005988
C29   C     C_R   0.779282 0.475277 0.958908 0.094933
C30   C     C_R   0.235857 0.586143 0.048150 0.063486
C31   C     C_R   0.531159 0.538860 0.955977 0.100227
C32   C     C_R   0.482335 0.517746 0.050246 0.093908
Cu1   Cu    Cu3+1 0.140660 0.500020 0.500000 0.975635
Cu2   Cu    Cu3+1 0.859340 0.499980 0.500000 0.962518
H1    H     H_    0.805358 0.438236 0.091845 0.194155
H2    H     H_    0.216631 0.651254 0.918883 0.178207
H3    H     H_    0.339051 0.451197 0.222191 0.163919
H4    H     H_    0.654766 0.534039 0.774910 0.161507
H5    H     H_    0.922372 0.594149 0.218055 0.193318
H6    H     H_    0.086706 0.450521 0.785072 0.167819
H7    H     H_    0.559886 0.476329 0.169229 0.150850
H8    H     H_    0.461651 0.615142 0.841379 0.142311
H9    H     H_    0.765699 0.113956 0.552409 0.154653
H10   H     H_    0.234486 0.886458 0.452438 0.147163
H11   H     H_    0.765625 0.888824 0.555162 0.135136
H12   H     H_    0.235134 0.111529 0.452242 0.150314
H13   H     H_    0.593325 0.367938 0.602448 0.163667
H14   H     H_    0.413124 0.623566 0.390972 0.158354
N1    N     N_R   0.352080 0.500030 0.499980 -0.209733
N2    N     N_R   0.647920 0.499970 0.500020 -0.207275
O1    O     O_R   0.118740 0.319660 0.500000 -0.542659
O2    O     O_R   0.881260 0.680340 0.500000 -0.578798
O3    O     O_R   0.881170 0.319630 0.500010 -0.592349
O4    O     O_R   0.118830 0.680370 0.499990 -0.588699
O5    O     O_R   0.055570 0.500030 0.629830 -0.536417
O6    O     O_R   0.944430 0.499970 0.370170 -0.537358
O7    O     O_R   0.818000 0.500000 0.629840 -0.597961
O8    O     O_R   0.182000 0.500000 0.370160 -0.594741
O9    O     O_3   0.022130 0.415778 0.964496 -0.608702
C33   C     C_3   0.112006 0.314857 0.926131 0.026496
H15   H     H_    0.207156 0.349222 0.873066 0.145069
H16   H     H_    0.051167 0.245179 0.897391 0.132413
C34   C     C_3   0.169024 0.251471 0.998905 -0.303161
H17   H     H_    0.238768 0.316727 0.023746 0.232639
H18   H     H_    0.075822 0.225508 0.056278 0.223182
C35   C     C_3   0.257906 0.135841 0.963063 -0.954061
H19   H     H_    0.189398 0.067452 0.939890 0.252219
H20   H     H_    0.298486 0.092590 0.017356 0.259724
H21   H     H_    0.352699 0.160541 0.906234 0.261869
O10   O     O_3   0.993945 0.663582 0.049753 -0.604954
C36   C     C_3   0.011348 0.793836 0.046230 0.020039
H22   H     H_    0.000852 0.826306 0.979717 0.166941
H23   H     H_    0.120411 0.825408 0.051228 0.126421
C37   C     C_3   0.891134 0.854511 0.119650 -0.335087
H24   H     H_    0.783333 0.827179 0.111152 0.229295
H25   H     H_    0.899390 0.822118 0.186631 0.215800
C38   C     C_3   0.903199 0.995269 0.115598 -0.927995
H26   H     H_    0.006885 0.024110 0.129241 0.260019
H27   H     H_    0.811302 0.036724 0.167239 0.262523
H28   H     H_    0.899128 0.030448 0.048446 0.258707
O11   O     O_3   0.292999 0.351269 0.616168 -0.581321
C39   C     C_3   0.341910 0.269327 0.673957 0.004206
H29   H     H_    0.244174 0.240199 0.727123 0.160528
H30   H     H_    0.412276 0.315275 0.710979 0.116343
C40   C     C_3   0.409621 0.151713 0.624275 -0.360094
H31   H     H_    0.326161 0.103132 0.598942 0.230599
H32   H     H_    0.501507 0.175145 0.565491 0.202153
C41   C     C_3   0.464565 0.064384 0.686364 -0.929913
H33   H     H_    0.550601 0.110097 0.710990 0.255990
H34   H     H_    0.511265 0.979740 0.648952 0.249371
H35   H     H_    0.373636 0.036885 0.744715 0.260557
O12   O     O_3   0.694492 0.647044 0.379152 -0.608340
C42   C     C_3   0.673285 0.773970 0.402523 0.068117
H36   H     H_    0.783052 0.815585 0.390230 0.185949
H37   H     H_    0.616381 0.789848 0.474833 0.114398
C43   C     C_3   0.592998 0.843327 0.342814 -0.399141
H38   H     H_    0.642618 0.820326 0.271293 0.231766
H39   H     H_    0.477118 0.816133 0.360042 0.200367
C44   C     C_3   0.598731 0.983165 0.355404 -0.919160
H40   H     H_    0.545307 0.007947 0.426324 0.251950
H41   H     H_    0.540565 0.031198 0.311187 0.255770
H42   H     H_    0.713344 0.015463 0.337635 0.263472

loop_
_geom_bond_atom_site_label_1
_geom_bond_atom_site_label_2
_ccdc_geom_bond_type
Cu1   O5    S    
C35   H20   S    
C34   H18   S    
C9    H11   S    
C42   H36   S    
C27   C29   A    
O11   C39   S    
C15   O11   S    
C40   H31   S    
Cu2   O6    S    
Cu1   O8    S    
C37   H25   S    
C33   C34   S    
C22   C24   A    
C16   N2    A    
C21   O9    S    
C40   C41   S    
C14   N1    A    
Cu1   N1    S    
C23   H6    S    
C43   C44   S    
C24   H5    S    
C33   H16   S    
C1    O3    A    
C18   O8    A    
C44   H40   S    
C37   C38   S    
C43   H39   S    
C10   H12   S    
Cu2   O7    S    
O10   C36   S    
C7    H9    S    
C17   O5    A    
C18   O6    A    
C40   H32   S    
C35   H19   S    
C34   C35   S    
O9    C33   S    
C42   H37   S    
C1    C12   S    
C2    C11   S    
C10   C12   A    
C5    C29   A    
C38   H27   S    
C7    C12   A    
Cu2   N2    S    
C37   H24   S    
C27   C31   A    
C20   C24   A    
C28   C32   A    
C4    C6    A    
C2    O4    A    
C13   H13   S    
C14   H14   S    
C38   H26   S    
C21   C29   A    
C13   N2    A    
C33   H15   S    
C19   C23   A    
C25   H4    S    
C9    C11   A    
C31   C32   A    
C41   H35   S    
C43   H38   S    
Cu1   Cu2   S    
C1    O1    A    
C2    O2    A    
C44   H41   S    
C41   H34   S    
C16   O12   S    
C42   C43   S    
C39   H30   S    
C13   C15   A    
C14   C16   A    
Cu1   O1    S    
C36   H23   S    
C38   H28   S    
Cu1   O4    S    
C7    C9    A    
C3    H7    S    
C22   C30   A    
C6    C30   A    
Cu2   O2    S    
C8    H10   S    
C3    C5    A    
C36   C37   S    
C26   H3    S    
C25   C27   A    
C39   C40   S    
C26   C28   A    
C21   C23   A    
C36   H22   S    
C20   C26   A    
C4    H8    S    
C8    C11   A    
C5    H1    S    
C28   C30   A    
O12   C42   S    
C17   C19   S    
C6    H2    S    
C18   C20   S    
C15   N1    A    
C3    C32   A    
C19   C25   A    
C4    C31   A    
C34   H17   S    
C35   H21   S    
C44   H42   S    
C41   H33   S    
Cu2   O3    S    
C8    C10   A    
C39   H29   S    
C22   O10   S    
C17   O7    A    
