data_mof_unit_64757.cif
_audit_creation_date              2012-12-10T17:48:49-0500
_audit_creation_method            fapswitch 2.2
_symmetry_space_group_name_H-M    P1
_symmetry_Int_Tables_number       1
_space_group_crystal_system       triclinic
_cell_length_a                    23.563974
_cell_length_b                    23.5641
_cell_length_c                    38.572642
_cell_angle_alpha                 89.980463
_cell_angle_beta                  90.025649
_cell_angle_gamma                 90.017451
_cell_volume                      21417.9889219

loop_
_atom_site_label
_atom_site_type_symbol
_atom_type_description
_atom_site_fract_x
_atom_site_fract_y
_atom_site_fract_z
_atom_type_partial_charge
C1    C     C_R   0.500008 0.109496 0.500001 0.911261
C2    C     C_R   0.000017 0.500025 0.394777 -0.063760
C3    C     C_R   0.521122 0.047700 0.840721 0.009642
C4    C     C_R   0.951860 0.480382 0.159310 0.005823
C5    C     C_R   0.478843 0.047588 0.159270 0.009656
C6    C     C_R   0.048263 0.519702 0.159304 0.005811
C7    C     C_R   0.520962 0.952283 0.159297 0.009642
C8    C     C_R   0.499904 0.999923 0.322638 -0.001668
C9    C     C_R   0.000076 0.500035 0.322366 -0.012359
C10   C     C_R   0.500062 0.000063 0.677363 -0.001730
C11   C     C_R   0.004440 0.498861 0.677561 -0.014705
C12   C     C_R   0.997358 0.489514 0.822733 -0.010225
C13   C     C_R   0.500035 0.000015 0.605219 -0.065582
C14   C     C_R   0.500063 0.000044 0.822366 -0.012382
C15   C     C_R   0.000071 0.500049 0.177362 -0.001666
C16   C     C_R   0.499890 0.999928 0.177634 -0.012364
C17   C     C_R   0.400327 0.040385 0.322579 0.115152
C18   C     C_R   0.367598 0.003427 0.302152 -0.130986
C19   C     C_R   0.318512 0.023054 0.285695 -0.140731
C20   C     C_R   0.301503 0.079457 0.289776 -0.134342
C21   C     C_R   0.333762 0.116441 0.310132 -0.136408
C22   C     C_R   0.382941 0.097002 0.326587 -0.140552
C23   C     C_R   0.953176 0.402691 0.323181 0.122880
C24   C     C_R   0.001826 0.499852 0.605159 -0.061008
C25   C     C_R   0.976502 0.348347 0.327774 -0.147884
C26   C     C_R   0.951971 0.301369 0.311470 -0.132273
C27   C     C_R   0.903773 0.308227 0.290769 -0.112403
C28   C     C_R   0.879985 0.362059 0.286379 -0.117690
C29   C     C_R   0.904530 0.409224 0.302463 -0.123828
C30   C     C_R   0.599485 0.959469 0.322617 0.115150
C31   C     C_R   0.632202 0.996416 0.302178 -0.130981
C32   C     C_R   0.681273 0.976776 0.285744 -0.140746
C33   C     C_R   0.698279 0.920373 0.289861 -0.134350
C34   C     C_R   0.666030 0.883401 0.310230 -0.136438
C35   C     C_R   0.999661 0.497261 0.894850 -0.061615
C36   C     C_R   0.616867 0.902852 0.326661 -0.140531
C37   C     C_R   0.046999 0.597366 0.323202 0.122879
C38   C     C_R   0.023713 0.651725 0.327769 -0.147881
C39   C     C_R   0.048286 0.698695 0.311471 -0.132247
C40   C     C_R   0.096482 0.691812 0.290802 -0.112373
C41   C     C_R   0.120231 0.637965 0.286438 -0.117669
C42   C     C_R   0.095647 0.590810 0.302517 -0.123853
C43   C     C_R   0.400433 0.959672 0.677408 0.115225
C44   C     C_R   0.367744 0.996672 0.697799 -0.131151
C45   C     C_R   0.318649 0.977083 0.714250 -0.140926
C46   C     C_R   0.500014 0.000026 0.894777 -0.063704
C47   C     C_R   0.301590 0.920677 0.710196 -0.134255
C48   C     C_R   0.333809 0.883653 0.689874 -0.136436
C49   C     C_R   0.382998 0.903054 0.673427 -0.140550
C50   C     C_R   0.942198 0.586495 0.677929 0.122229
C51   C     C_R   0.964499 0.641100 0.682919 -0.132223
C52   C     C_R   0.932139 0.682600 0.699660 -0.132599
C53   C     C_R   0.877190 0.669997 0.710967 -0.099296
C54   C     C_R   0.854583 0.615857 0.705588 -0.116113
C55   C     C_R   0.887123 0.573989 0.689403 -0.141137
C56   C     C_R   0.599677 0.040484 0.677400 0.115177
C57   C     C_R   0.000036 0.500012 0.105219 -0.065539
C58   C     C_R   0.632395 0.003530 0.697837 -0.131055
C59   C     C_R   0.681478 0.023172 0.714297 -0.140753
C60   C     C_R   0.698494 0.079587 0.710207 -0.134156
C61   C     C_R   0.666246 0.116565 0.689838 -0.136371
C62   C     C_R   0.617070 0.097111 0.673382 -0.140601
C63   C     C_R   0.069243 0.412861 0.675594 0.123783
C64   C     C_R   0.058065 0.354792 0.671034 -0.145098
C65   C     C_R   0.093369 0.314179 0.686330 -0.135986
C66   C     C_R   0.140365 0.331255 0.705836 -0.117891
C67   C     C_R   0.152010 0.388973 0.710189 -0.110174
C68   C     C_R   0.499965 0.999970 0.105223 -0.063766
C69   C     C_R   0.116477 0.429696 0.695303 -0.129417
C70   C     C_R   0.905889 0.546504 0.821716 0.120858
C71   C     C_R   0.870988 0.514851 0.799359 -0.130114
C72   C     C_R   0.824562 0.540469 0.783097 -0.133521
C73   C     C_R   0.812517 0.597695 0.789101 -0.114833
C74   C     C_R   0.847193 0.629565 0.811092 -0.125987
C75   C     C_R   0.893600 0.604109 0.827456 -0.143916
C76   C     C_R   0.453149 0.902708 0.823179 0.122970
C77   C     C_R   0.476460 0.848358 0.827773 -0.147986
C78   C     C_R   0.451921 0.801387 0.811464 -0.132792
C79   C     C_R   0.499883 0.999924 0.215512 0.272276
C80   C     C_R   0.403733 0.808259 0.790757 -0.112647
C81   C     C_R   0.379959 0.862097 0.786366 -0.117695
C82   C     C_R   0.404511 0.909254 0.802455 -0.123849
C83   C     C_R   0.087282 0.430734 0.824477 0.110961
C84   C     C_R   0.142727 0.452445 0.823566 -0.149850
C85   C     C_R   0.186674 0.420261 0.809215 -0.144597
C86   C     C_R   0.175576 0.366153 0.796004 -0.128666
C87   C     C_R   0.120412 0.344374 0.796777 -0.114028
C88   C     C_R   0.076355 0.376455 0.811055 -0.115505
C89   C     C_R   0.546994 0.097371 0.823202 0.122946
C90   C     C_R   0.000092 0.500054 0.214837 0.287742
C91   C     C_R   0.523713 0.151732 0.827772 -0.147944
C92   C     C_R   0.548283 0.198700 0.811472 -0.132610
C93   C     C_R   0.596472 0.191814 0.790796 -0.112569
C94   C     C_R   0.620217 0.137966 0.786429 -0.117771
C95   C     C_R   0.595635 0.090812 0.802511 -0.123905
C96   C     C_R   0.900469 0.459587 0.177407 0.115151
C97   C     C_R   0.867768 0.496554 0.197813 -0.130997
C98   C     C_R   0.818681 0.476930 0.214259 -0.140738
C99   C     C_R   0.801645 0.420522 0.210186 -0.134399
C100  C     C_R   0.833877 0.383529 0.189850 -0.136547
C101  C     C_R   0.500079 0.000056 0.784489 0.272356
C102  C     C_R   0.883056 0.402965 0.173408 -0.140535
C103  C     C_R   0.452973 0.097235 0.176778 0.122918
C104  C     C_R   0.476269 0.151607 0.172207 -0.147909
C105  C     C_R   0.451696 0.198554 0.188493 -0.132319
C106  C     C_R   0.403486 0.191634 0.209153 -0.112372
C107  C     C_R   0.379726 0.137774 0.213520 -0.117656
C108  C     C_R   0.404313 0.090641 0.197454 -0.123875
C109  C     C_R   0.099660 0.540537 0.177397 0.115130
C110  C     C_R   0.132391 0.503606 0.197843 -0.131019
C111  C     C_R   0.181470 0.523274 0.214295 -0.140762
C112  C     C_R   0.890504 0.499992 0.500002 0.911791
C113  C     C_R   0.999981 0.491457 0.785126 0.287379
C114  C     C_R   0.198469 0.579691 0.210190 -0.134375
C115  C     C_R   0.166208 0.616646 0.189814 -0.136470
C116  C     C_R   0.117037 0.597166 0.173364 -0.140581
C117  C     C_R   0.546780 0.902609 0.176837 0.122911
C118  C     C_R   0.523446 0.848257 0.172255 -0.147936
C119  C     C_R   0.547971 0.801280 0.188568 -0.132351
C120  C     C_R   0.596170 0.808149 0.209268 -0.112395
C121  C     C_R   0.619966 0.861989 0.213647 -0.117688
C122  C     C_R   0.595427 0.909152 0.197553 -0.123854
C123  C     C_R   0.002895 0.496373 0.715443 0.283031
C124  C     C_R   0.500082 0.000067 0.714837 0.287898
C125  C     C_R   0.000093 0.500045 0.284488 0.272282
C126  C     C_R   0.499888 0.999923 0.285164 0.287692
C127  C     C_R   0.391838 0.500001 0.499993 0.885009
C128  C     C_R   0.500001 0.391838 0.500005 0.884996
C129  C     C_R   0.608162 0.499999 0.500007 0.884958
C130  C     C_R   0.499999 0.608162 0.499995 0.884990
C131  C     C_R   0.891838 0.000001 0.999993 0.884918
C132  C     C_R   0.499992 0.890504 0.499999 0.911273
C133  C     C_R   0.000001 0.891838 0.000005 0.884923
C134  C     C_R   0.108162 0.999999 0.000007 0.885041
C135  C     C_R   0.999999 0.108162 0.999995 0.885048
C136  C     C_R   0.499988 0.999998 0.432442 0.887865
C137  C     C_R   0.000001 0.500008 0.432441 0.889003
C138  C     C_R   0.500011 0.000001 0.567558 0.887830
C139  C     C_R   0.000253 0.499984 0.567540 0.886547
C140  C     C_R   0.999964 0.499818 0.932455 0.885491
C141  C     C_R   0.500000 0.000009 0.932441 0.889097
C142  C     C_R   0.000012 0.500001 0.067558 0.887963
C143  C     C_R   0.109496 0.500007 0.500003 0.911529
C144  C     C_R   0.499997 0.999991 0.067558 0.889114
C145  C     C_1   0.500022 0.169981 0.500007 -0.198722
C146  C     C_1   0.830019 0.499978 0.500012 -0.198464
C147  C     C_1   0.499978 0.830019 0.499993 -0.198692
C148  C     C_1   0.169980 0.500021 0.499997 -0.197820
C149  C     C_1   0.000022 0.669981 0.000007 -0.199359
C150  C     C_1   0.330019 0.999978 0.000009 -0.198153
C151  C     C_1   0.999979 0.330019 0.999986 -0.197964
C152  C     C_1   0.669981 0.000022 0.999991 -0.198260
C153  C     C_1   0.500024 0.220901 0.500013 0.005546
C154  C     C_R   0.000008 0.609496 0.000000 0.910382
C155  C     C_1   0.779099 0.499977 0.500019 0.005901
C156  C     C_1   0.499976 0.779099 0.499987 0.005568
C157  C     C_1   0.220901 0.500022 0.499990 0.006377
C158  C     C_1   0.000023 0.720901 0.000012 0.005070
C159  C     C_1   0.279099 0.999976 0.000017 0.006268
C160  C     C_1   0.999977 0.279099 0.999981 0.006134
C161  C     C_1   0.720901 0.000024 0.999983 0.006116
C162  C     C_1   0.500018 0.280430 0.500017 0.006802
C163  C     C_1   0.719570 0.499982 0.500023 0.006897
C164  C     C_1   0.499981 0.719570 0.499984 0.006804
C165  C     C_R   0.390504 0.999992 0.000001 0.912589
C166  C     C_1   0.280430 0.500016 0.499982 0.007345
C167  C     C_1   0.000017 0.780430 0.000016 0.006487
C168  C     C_1   0.219570 0.999981 0.000022 0.007256
C169  C     C_1   0.999983 0.219570 0.999979 0.007201
C170  C     C_1   0.780430 0.000018 0.999978 0.007058
C171  C     C_1   0.500010 0.331351 0.500015 -0.185735
C172  C     C_1   0.668649 0.499990 0.500020 -0.185836
C173  C     C_1   0.499990 0.668649 0.499985 -0.185749
C174  C     C_1   0.331351 0.500008 0.499982 -0.185474
C175  C     C_1   0.000010 0.831351 0.000015 -0.185943
C176  C     C_R   0.999992 0.390504 0.999995 0.911301
C177  C     C_1   0.168649 0.999989 0.000019 -0.185525
C178  C     C_1   0.999990 0.168649 0.999984 -0.185490
C179  C     C_1   0.831351 0.000010 0.999980 -0.185732
C180  C     C_R   0.452317 0.019524 0.376772 -0.237481
C181  C     C_R   0.980306 0.452560 0.376797 -0.241319
C182  C     C_R   0.547573 0.980398 0.376790 -0.237458
C183  C     C_R   0.019760 0.547495 0.376806 -0.241334
C184  C     C_R   0.452390 0.980493 0.623223 -0.237576
C185  C     C_R   0.975648 0.543447 0.623659 -0.239895
C186  C     C_R   0.547693 0.019564 0.623217 -0.237527
C187  C     C_R   0.609496 0.000008 0.999999 0.912556
C188  C     C_R   0.030106 0.456284 0.622559 -0.238882
C189  C     C_R   0.955175 0.522074 0.876355 -0.239323
C190  C     C_R   0.480294 0.952566 0.876797 -0.241439
C191  C     C_R   0.042743 0.468194 0.877505 -0.236166
C192  C     C_R   0.519760 0.047496 0.876807 -0.241382
C193  C     C_R   0.952407 0.480454 0.123222 -0.237524
C194  C     C_R   0.480219 0.047414 0.123186 -0.241363
C195  C     C_R   0.047682 0.519591 0.123216 -0.237490
C196  C     C_R   0.519664 0.952500 0.123211 -0.241403
C197  C     C_R   0.451725 0.019589 0.340684 0.005829
C198  C     C_R   0.499959 0.999976 0.394781 -0.065542
C199  C     C_R   0.979000 0.452368 0.340712 0.009628
C200  C     C_R   0.548109 0.980281 0.340702 0.005805
C201  C     C_R   0.021128 0.547695 0.340721 0.009661
C202  C     C_R   0.451839 0.980428 0.659310 0.005737
C203  C     C_R   0.975718 0.542810 0.659753 0.006128
C204  C     C_R   0.548269 0.019679 0.659305 0.005737
C205  C     C_R   0.033027 0.456085 0.658639 0.010110
C206  C     C_R   0.953753 0.519046 0.840260 0.011530
C207  C     C_R   0.478983 0.952378 0.840711 0.009621
C208  C     C_R   0.041502 0.463180 0.841538 0.005816
H1    H     H_    0.415489 0.034781 0.390803 0.161074
H2    H     H_    0.464035 0.916221 0.890912 0.159555
H3    H     H_    0.076675 0.448169 0.892054 0.158658
H4    H     H_    0.536005 0.083831 0.890931 0.159582
H5    H     H_    0.915553 0.465197 0.109188 0.161058
H6    H     H_    0.463985 0.083754 0.109056 0.159650
H7    H     H_    0.084520 0.534840 0.109176 0.161037
H8    H     H_    0.535919 0.916173 0.109102 0.159621
H9    H     H_    0.379684 0.959353 0.299320 0.138890
H10   H     H_    0.293469 0.994447 0.269948 0.129469
H11   H     H_    0.263423 0.094559 0.277078 0.122421
H12   H     H_    0.964051 0.416214 0.390913 0.159669
H13   H     H_    0.320616 0.160156 0.313193 0.127726
H14   H     H_    0.407534 0.126012 0.342364 0.128908
H15   H     H_    0.013850 0.342496 0.343759 0.128887
H16   H     H_    0.970262 0.259625 0.314940 0.128256
H17   H     H_    0.884717 0.271804 0.278248 0.122407
H18   H     H_    0.842324 0.367129 0.270683 0.135036
H19   H     H_    0.885560 0.450692 0.298928 0.127462
H20   H     H_    0.620121 0.040491 0.299319 0.138905
H21   H     H_    0.706307 0.005375 0.269988 0.129476
H22   H     H_    0.736346 0.905262 0.277182 0.122435
H23   H     H_    0.584422 0.965160 0.390834 0.161108
H24   H     H_    0.679174 0.839686 0.313319 0.127744
H25   H     H_    0.592283 0.873852 0.342449 0.128925
H26   H     H_    0.986364 0.657596 0.343727 0.128899
H27   H     H_    0.030024 0.740450 0.314921 0.128275
H28   H     H_    0.115568 0.728228 0.278286 0.122409
H29   H     H_    0.157890 0.632873 0.270765 0.135007
H30   H     H_    0.114588 0.549330 0.299003 0.127437
H31   H     H_    0.379869 0.040748 0.700609 0.138702
H32   H     H_    0.293636 0.005723 0.729969 0.129269
H33   H     H_    0.263504 0.905605 0.722889 0.122414
H34   H     H_    0.035999 0.583832 0.390930 0.159667
H35   H     H_    0.320624 0.839937 0.686835 0.127847
H36   H     H_    0.407560 0.874013 0.657677 0.128902
H37   H     H_    0.006873 0.651318 0.674013 0.128814
H38   H     H_    0.949524 0.724598 0.703697 0.127297
H39   H     H_    0.852040 0.702223 0.723739 0.118829
H40   H     H_    0.811769 0.606345 0.713855 0.120390
H41   H     H_    0.869282 0.532116 0.685457 0.125490
H42   H     H_    0.620300 0.959449 0.700679 0.138760
H43   H     H_    0.706513 0.994568 0.730053 0.129352
H44   H     H_    0.736570 0.094701 0.722907 0.122365
H45   H     H_    0.415526 0.965259 0.609189 0.161126
H46   H     H_    0.679398 0.160288 0.686770 0.127693
H47   H     H_    0.592484 0.126117 0.657597 0.128864
H48   H     H_    0.021977 0.341080 0.655783 0.128611
H49   H     H_    0.084466 0.269468 0.682913 0.127817
H50   H     H_    0.167821 0.299785 0.717520 0.117140
H51   H     H_    0.188706 0.402215 0.724987 0.130575
H52   H     H_    0.126146 0.474286 0.698727 0.126270
H53   H     H_    0.879165 0.470215 0.794965 0.131152
H54   H     H_    0.797733 0.515883 0.765970 0.122979
H55   H     H_    0.776406 0.617409 0.776623 0.114190
H56   H     H_    0.953270 0.576878 0.609981 0.157335
H57   H     H_    0.837953 0.673943 0.815588 0.125155
H58   H     H_    0.919955 0.629249 0.844592 0.127098
H59   H     H_    0.513801 0.842496 0.843762 0.128720
H60   H     H_    0.470202 0.759638 0.814935 0.127859
H61   H     H_    0.384673 0.771841 0.778232 0.122312
H62   H     H_    0.342306 0.867178 0.770664 0.135012
H63   H     H_    0.385552 0.950728 0.798919 0.127459
H64   H     H_    0.151869 0.494043 0.834125 0.132421
H65   H     H_    0.229388 0.437115 0.808522 0.128531
H66   H     H_    0.209661 0.341212 0.785000 0.118303
H67   H     H_    0.584542 0.034788 0.609178 0.161131
H68   H     H_    0.111858 0.302526 0.786465 0.127003
H69   H     H_    0.033945 0.358796 0.812060 0.132430
H70   H     H_    0.486370 0.157604 0.843735 0.128850
H71   H     H_    0.530026 0.240457 0.814924 0.127877
H72   H     H_    0.615556 0.228230 0.778277 0.122168
H73   H     H_    0.657869 0.132872 0.770750 0.134899
H74   H     H_    0.614572 0.049331 0.798994 0.127368
H75   H     H_    0.879873 0.540633 0.200637 0.138901
H76   H     H_    0.793659 0.505544 0.229989 0.129474
H77   H     H_    0.763565 0.405423 0.222874 0.122436
H78   H     H_    0.051882 0.423563 0.607940 0.155544
H79   H     H_    0.820709 0.339811 0.186796 0.127723
H80   H     H_    0.907627 0.373949 0.157646 0.128901
H81   H     H_    0.513627 0.157506 0.156255 0.128852
H82   H     H_    0.469965 0.240320 0.185040 0.128214
H83   H     H_    0.384398 0.228033 0.221659 0.122389
H84   H     H_    0.342057 0.132654 0.229184 0.134996
H85   H     H_    0.385365 0.049149 0.200970 0.127419
H86   H     H_    0.120311 0.459523 0.200695 0.138892
H87   H     H_    0.206515 0.494688 0.230057 0.129465
H88   H     H_    0.236543 0.594824 0.222884 0.122406
H89   H     H_    0.921606 0.544100 0.890081 0.154961
H90   H     H_    0.179347 0.660371 0.186734 0.127711
H91   H     H_    0.092441 0.626155 0.157573 0.128916
H92   H     H_    0.486098 0.842398 0.156271 0.128838
H93   H     H_    0.529674 0.759530 0.185107 0.128197
H94   H     H_    0.615221 0.771727 0.221796 0.122390
H95   H     H_    0.657628 0.867068 0.229342 0.135012
H96   H     H_    0.614403 0.950627 0.201079 0.127438
N1    N     N_R   0.483733 0.952930 0.267631 -0.173929
N2    N     N_R   0.483543 0.046889 0.766753 -0.162756
N3    N     N_R   0.011005 0.541227 0.768931 -0.156959
N4    N     N_R   0.516621 0.953230 0.766776 -0.162806
N5    N     N_R   0.983931 0.547032 0.232363 -0.173936
N6    N     N_R   0.483363 0.953078 0.233242 -0.162693
N7    N     N_R   0.016257 0.453073 0.232387 -0.173938
N8    N     N_R   0.516405 0.046769 0.233232 -0.162690
N9    N     N_R   0.983564 0.546880 0.266751 -0.162685
N10   N     N_R   0.516040 0.046916 0.267620 -0.173925
N11   N     N_R   0.016625 0.453216 0.266775 -0.162702
N12   N     N_R   0.483910 0.047042 0.732364 -0.174082
N13   N     N_R   0.991582 0.446650 0.731750 -0.163509
N14   N     N_R   0.516255 0.953089 0.732388 -0.174060
N15   N     N_R   0.012646 0.543603 0.734566 -0.164568
N16   N     N_R   0.990185 0.444197 0.766125 -0.185844
O1    O     O_R   0.546640 0.082440 0.499910 -0.613305
O2    O     O_R   0.417560 0.046640 0.999910 -0.613409
O3    O     O_R   0.953360 0.417560 0.999910 -0.613385
O4    O     O_R   0.582440 0.953360 0.999910 -0.613546
O5    O     O_R   0.046640 0.417560 0.000090 -0.613286
O6    O     O_R   0.417560 0.953360 0.000090 -0.613631
O7    O     O_R   0.953360 0.582440 0.000090 -0.613539
O8    O     O_R   0.582440 0.046640 0.000090 -0.613543
O9    O     O_R   0.546640 0.999670 0.448980 -0.623503
O10   O     O_R   0.000330 0.546640 0.448980 -0.624442
O11   O     O_R   0.453360 0.000330 0.448980 -0.623514
O12   O     O_R   0.917560 0.546640 0.499910 -0.613766
O13   O     O_R   0.999670 0.453360 0.448980 -0.624433
O14   O     O_R   0.546640 0.000330 0.551020 -0.623520
O15   O     O_R   0.000330 0.453360 0.551020 -0.622981
O16   O     O_R   0.453360 0.999670 0.551020 -0.623538
O17   O     O_R   0.999670 0.546640 0.551020 -0.621867
O18   O     O_R   0.046640 0.499670 0.948980 -0.622971
O19   O     O_R   0.500330 0.046640 0.948980 -0.624411
O20   O     O_R   0.953360 0.500330 0.948980 -0.621240
O21   O     O_R   0.499670 0.953360 0.948980 -0.624502
O22   O     O_R   0.046640 0.500330 0.051020 -0.623534
O23   O     O_R   0.453360 0.917560 0.499910 -0.613288
O24   O     O_R   0.500330 0.953360 0.051020 -0.624457
O25   O     O_R   0.953360 0.499670 0.051020 -0.623531
O26   O     O_R   0.499670 0.046640 0.051020 -0.624431
O27   O     O_R   0.418280 0.499620 0.470400 -0.609892
O28   O     O_R   0.500380 0.418280 0.470400 -0.609833
O29   O     O_R   0.581720 0.500380 0.470400 -0.609757
O30   O     O_R   0.499620 0.581720 0.470400 -0.609841
O31   O     O_R   0.418280 0.500380 0.529600 -0.609721
O32   O     O_R   0.500380 0.581720 0.529600 -0.609950
O33   O     O_R   0.581720 0.499620 0.529600 -0.610173
O34   O     O_R   0.082440 0.453360 0.499910 -0.614206
O35   O     O_R   0.499620 0.418280 0.529600 -0.609925
O36   O     O_R   0.918280 0.999620 0.970400 -0.610015
O37   O     O_R   0.000380 0.918280 0.970400 -0.610086
O38   O     O_R   0.081720 0.000380 0.970400 -0.609775
O39   O     O_R   0.999620 0.081720 0.970400 -0.609744
O40   O     O_R   0.918280 0.000380 0.029600 -0.609818
O41   O     O_R   0.000380 0.081720 0.029600 -0.609896
O42   O     O_R   0.081720 0.999620 0.029600 -0.609886
O43   O     O_R   0.999620 0.918280 0.029600 -0.609814
O44   O     O_R   0.546640 0.917560 0.500090 -0.613362
O45   O     O_R   0.917560 0.453360 0.500090 -0.613240
O46   O     O_R   0.453360 0.082440 0.500090 -0.613380
O47   O     O_R   0.082440 0.546640 0.500090 -0.613146
O48   O     O_R   0.046640 0.582440 0.999910 -0.613676
Zn1   Zn    Zn3+2 0.562320 0.000000 0.500000 0.958296
Zn2   Zn    Zn3+2 0.500000 0.500000 0.538280 0.968398
Zn3   Zn    Zn3+2 0.000000 1.000000 0.961720 0.968517
Zn4   Zn    Zn3+2 0.000000 0.000000 0.038280 0.968790
Zn5   Zn    Zn3+2 0.000000 0.562320 0.500000 0.956688
Zn6   Zn    Zn3+2 0.437680 0.000000 0.500000 0.958232
Zn7   Zn    Zn3+2 0.000000 0.437680 0.500000 0.955307
Zn8   Zn    Zn3+2 0.062320 0.500000 0.000000 0.957468
Zn9   Zn    Zn3+2 0.500000 0.062320 0.000000 0.954938
Zn10  Zn    Zn3+2 0.937680 0.500000 0.000000 0.958754
Zn11  Zn    Zn3+2 0.500000 0.937680 0.000000 0.954625
Zn12  Zn    Zn3+2 0.500000 0.500000 0.461720 0.968827

loop_
_geom_bond_atom_site_label_1
_geom_bond_atom_site_label_2
_ccdc_geom_bond_type
C96   C102  A    
C19   C20   A    
C79   N6    A    
C127  O31   A    
C125  N11   A    
C130  O32   A    
C114  C115  A    
O34   Zn7   S    
C101  N4    A    
C90   N7    A    
C100  H79   S    
C121  H95   S    
C21   H13   S    
C57   C195  A    
C122  H96   S    
C10   C124  S    
O28   Zn12  S    
C106  C107  A    
O31   Zn2   S    
N1    N6    A    
C73   C74   A    
C141  O21   A    
C37   C42   A    
C141  O19   A    
C110  C111  A    
O38   Zn3   S    
C4    C96   S    
C162  C171  T    
C55   H41   S    
C17   C197  S    
C183  H34   S    
C88   H69   S    
C136  C198  S    
C83   C88   A    
C138  O14   A    
C59   C60   A    
C21   C22   A    
C62   H47   S    
O11   Zn6   S    
C48   H35   S    
C104  C105  A    
C158  C167  S    
C46   C141  S    
C76   C77   A    
C45   C47   A    
C11   C123  S    
C188  C205  A    
C166  C174  T    
C150  C159  T    
C123  N15   A    
C51   C52   A    
C183  C201  A    
N3    N15   A    
N5    N9    A    
C50   C203  S    
C24   C185  A    
C91   H70   S    
C65   H49   S    
C43   C44   A    
C53   H39   S    
C194  H6    S    
C37   C38   A    
C110  H86   S    
C189  C206  A    
C13   C184  A    
C181  H12   S    
C164  C173  T    
C185  H56   S    
O19   Zn9   S    
C154  O7    A    
C10   C202  A    
O23   Zn6   S    
C69   H52   S    
C8    C126  S    
O27   Zn12  S    
C26   H16   S    
C56   C62   A    
C130  O30   A    
O45   Zn7   S    
O10   Zn5   S    
C151  C176  S    
C72   C73   A    
C108  H85   S    
C193  H5    S    
C30   C36   A    
O5    Zn8   S    
O12   Zn5   S    
C118  H92   S    
C97   H75   S    
C190  H2    S    
C137  O13   A    
C32   C33   A    
C81   H62   S    
C2    C183  A    
C134  C177  S    
C134  O42   A    
C180  C198  A    
C127  O27   A    
C20   C21   A    
C98   C99   A    
C57   C193  A    
C113  N16   A    
C7    C196  A    
C191  H3    S    
C5    C194  A    
C30   C200  S    
C5    C103  S    
N7    N11   A    
C123  N13   A    
C7    C117  S    
O7    Zn10  S    
C1    C145  S    
O29   Zn12  S    
O18   Zn8   S    
C97   C98   A    
C42   H30   S    
C85   C86   A    
C112  O45   A    
C57   C142  S    
C23   C29   A    
C51   H37   S    
C18   C19   A    
C134  O38   A    
C176  O3    A    
C38   C39   A    
C78   C80   A    
O20   Zn10  S    
C115  C116  A    
O17   Zn5   S    
C129  O29   A    
C102  H80   S    
C192  H4    S    
O40   Zn4   S    
O6    Zn11  S    
C63   C69   A    
N8    N10   A    
C107  C108  A    
C89   C91   A    
C149  C158  T    
C152  C161  T    
C127  C174  S    
C66   C67   A    
C31   H20   S    
C132  O44   A    
O32   Zn2   S    
C94   C95   A    
C143  C148  S    
C111  H87   S    
C126  N1    A    
C76   C82   A    
C91   C92   A    
O48   Zn8   S    
C27   H17   S    
C155  C163  S    
C25   C26   A    
C9    C125  S    
C82   H63   S    
C2    C181  A    
O44   Zn1   S    
C117  C122  A    
C83   C84   A    
C17   C18   A    
C135  O39   A    
C165  O6    A    
C133  C175  S    
C188  H78   S    
C59   H43   S    
C20   H11   S    
C8    C200  A    
C181  C199  A    
O3    Zn10  S    
C107  H84   S    
C142  O22   A    
C167  C175  T    
C104  H81   S    
C54   C55   A    
C35   C191  A    
C132  C147  S    
O1    Zn1   S    
O13   Zn7   S    
C72   H54   S    
C170  C179  T    
C13   C138  S    
C71   C72   A    
C117  C118  A    
C64   C65   A    
C6    C109  S    
C85   H65   S    
C68   C144  S    
C34   C36   A    
C148  C157  T    
C61   C62   A    
C137  O10   A    
C63   C64   A    
C39   C40   A    
C190  C207  A    
C128  C171  S    
C70   C75   A    
C68   C194  A    
C11   C205  A    
C67   H51   S    
C73   H55   S    
O30   Zn12  S    
C87   C88   A    
C114  H88   S    
C1    O46   A    
C41   C42   A    
C128  O28   A    
C129  C172  S    
O46   Zn6   S    
O35   Zn2   S    
C41   H29   S    
C77   C78   A    
C52   C53   A    
C22   H14   S    
C26   C27   A    
C93   C94   A    
C28   C29   A    
C152  C187  S    
C30   C31   A    
C196  H8    S    
C74   H57   S    
C98   H76   S    
O25   Zn10  S    
C168  C177  T    
C80   H61   S    
O41   Zn4   S    
C109  C116  A    
C146  C155  T    
C116  H91   S    
C131  O40   A    
C160  C169  S    
C144  O26   A    
C70   C71   A    
C54   H40   S    
C195  H7    S    
C130  C173  S    
C35   C189  A    
C14   C207  A    
C139  O17   A    
O36   Zn3   S    
C120  H94   S    
C6    C195  A    
C136  O11   A    
C24   C139  S    
C4    C193  A    
C182  C200  A    
C84   C85   A    
O24   Zn11  S    
C86   C87   A    
C14   C101  S    
C66   H50   S    
C58   C59   A    
C53   C54   A    
C60   C61   A    
C12   C206  A    
C89   C95   A    
C149  C154  S    
C135  O41   A    
C35   C140  S    
C187  O8    A    
C43   C202  S    
C50   C51   A    
C68   C196  A    
C19   H10   S    
C11   C203  A    
C147  C156  T    
C121  C122  A    
C3    C14   A    
C9    C201  A    
C94   H73   S    
C7    C16   A    
O37   Zn3   S    
O26   Zn9   S    
O14   Zn1   S    
C12   C208  A    
C44   C45   A    
C32   H21   S    
C13   C186  A    
C186  H67   S    
C2    C137  S    
C34   H24   S    
C135  C178  S    
C46   C192  A    
C38   H26   S    
C1    O1    A    
C119  C120  A    
C142  O25   A    
C105  C106  A    
C17   C22   A    
C153  C162  S    
C24   C188  A    
C16   C79   S    
C165  O2    A    
C185  C203  A    
C140  O18   A    
C109  C110  A    
C92   H71   S    
C92   C93   A    
C112  C146  S    
O21   Zn11  S    
C111  C114  A    
C180  H1    S    
O43   Zn4   S    
C143  O34   A    
C154  O48   A    
C182  H23   S    
C63   C205  S    
C103  C104  A    
C37   C201  S    
O33   Zn2   S    
C3    C192  A    
C75   H58   S    
C71   H53   S    
C61   H46   S    
O8    Zn9   S    
N13   N16   A    
O39   Zn3   S    
C182  C198  A    
C40   H28   S    
C81   C82   A    
C115  H90   S    
C86   H66   S    
C136  O9    A    
C126  N10   A    
C189  H89   S    
C23   C199  S    
O9    Zn1   S    
C159  C168  S    
C124  N12   A    
C144  O24   A    
C118  C119  A    
C93   H72   S    
C180  C197  A    
C6    C15   A    
C105  H82   S    
C56   C58   A    
C5    C16   A    
O15   Zn7   S    
C103  C108  A    
C76   C207  S    
C176  O5    A    
C145  C153  T    
C132  O23   A    
C8    C197  A    
C46   C190  A    
O4    Zn11  S    
C99   H77   S    
C3    C89   S    
O16   Zn6   S    
C184  C202  A    
C74   C75   A    
C84   H64   S    
C47   C48   A    
C79   N8    A    
C140  O20   A    
C125  N9    A    
C28   H18   S    
C47   H33   S    
C131  C179  S    
C43   C49   A    
C101  N2    A    
C36   H25   S    
C150  C165  S    
C131  O36   A    
C77   H59   S    
O42   Zn4   S    
C67   C69   A    
C78   H60   S    
C83   C208  S    
C163  C172  T    
C99   C100  A    
C95   H74   S    
C96   C97   A    
C100  C102  A    
C33   C34   A    
O2    Zn9   S    
C186  C204  A    
C184  H45   S    
C119  H93   S    
C161  C170  S    
C40   C41   A    
C128  O35   A    
C133  O37   A    
C58   H42   S    
C87   H68   S    
C29   H19   S    
C33   H22   S    
C44   H31   S    
C143  O47   A    
C169  C178  T    
C49   H36   S    
C12   C113  S    
C129  O33   A    
C138  O16   A    
C48   C49   A    
C31   C32   A    
C80   C81   A    
C52   H38   S    
C157  C166  S    
C90   N5    A    
C56   C204  S    
C187  O4    A    
C70   C206  S    
C50   C55   A    
O47   Zn5   S    
N2    N12   A    
C151  C160  T    
C4    C15   A    
C124  N14   A    
C45   H32   S    
N4    N14   A    
C106  H83   S    
C15   C90   S    
C39   H27   S    
C139  O15   A    
C113  N3    A    
C25   H15   S    
C191  C208  A    
C23   C25   A    
C112  O12   A    
C9    C199  A    
C156  C164  S    
C65   C66   A    
C133  O43   A    
C27   C28   A    
C60   H44   S    
C120  C121  A    
O22   Zn8   S    
C18   H9    S    
C10   C204  A    
C64   H48   S    
