data_mof_unit_36376.cif
_audit_creation_date              2012-12-11T14:29:24-0500
_audit_creation_method            fapswitch 2.2
_symmetry_space_group_name_H-M    P1
_symmetry_Int_Tables_number       1
_space_group_crystal_system       triclinic
_cell_length_a                    6.940134
_cell_length_b                    14.737719
_cell_length_c                    16.244262
_cell_angle_alpha                 90.4404
_cell_angle_beta                  90.018994
_cell_angle_gamma                 90.023492
_cell_volume                      1661.44214504

loop_
_atom_site_label
_atom_site_type_symbol
_atom_type_description
_atom_site_fract_x
_atom_site_fract_y
_atom_site_fract_z
_atom_type_partial_charge
O1    O     O_R   0.494400 0.416610 0.413880 -0.541618
O2    O     O_R   0.823920 0.406790 0.585520 -0.543137
O3    O     O_R   0.994250 0.583390 0.586120 -0.536278
C1    C     C_R   0.654713 0.385224 0.613657 0.746707
O4    O     O_R   0.824110 0.405730 0.414490 -0.546773
O5    O     O_R   0.994440 0.582310 0.413870 -0.536590
C2    C     C_R   0.654437 0.381394 0.388265 0.632940
O6    O     O_R   0.494210 0.417690 0.586130 -0.542945
O7    O     O_3   0.660810 0.557940 0.500000 -0.366244
V1    V     V_3+5 0.935650 0.489250 0.500000 1.411743
O8    O     O_R   0.324160 0.593210 0.414480 -0.546241
C3    C     C_R   0.155451 0.614962 0.386322 0.738046
O9    O     O_R   0.323970 0.594270 0.585510 -0.539076
C4    C     C_R   0.155111 0.616079 0.613968 0.695619
V2    V     V_3+5 0.435660 0.510750 0.500000 1.412767
O10   O     O_3   0.160630 0.442060 0.500000 -0.374647
H1    H     H_    0.380422 0.914023 0.520393 0.118874
C5    C     C_R   0.015747 0.566752 0.775744 -0.140261
C6    C     C_R   0.947045 0.540680 0.852567 -0.125828
C7    C     C_R   0.935638 0.603583 0.916495 -0.120828
C8    C     C_R   0.992591 0.693092 0.904088 -0.134654
C9    C     C_R   0.060551 0.722067 0.826426 0.069105
C10   C     C_R   0.072627 0.657463 0.760799 0.070089
C11   C     C_R   0.120093 0.813096 0.814098 -0.184387
C12   C     C_R   0.191859 0.839306 0.735929 0.070781
C13   C     C_R   0.204001 0.774695 0.670313 0.069116
C14   C     C_R   0.144533 0.683663 0.682648 -0.184938
C15   C     C_R   0.248460 0.930042 0.720944 -0.141089
C16   C     C_R   0.317032 0.956124 0.644102 -0.121269
C17   C     C_R   0.328585 0.893207 0.580197 -0.114875
C18   C     C_R   0.271859 0.803676 0.592638 -0.135163
H2    H     H_    0.025178 0.514610 0.728723 0.108467
H3    H     H_    0.903909 0.471040 0.862695 0.118029
H4    H     H_    0.883708 0.582776 0.976288 0.113570
H5    H     H_    0.984083 0.738792 0.956352 0.106111
H6    H     H_    0.238864 0.982194 0.767948 0.107450
H7    H     H_    0.359954 0.025782 0.633935 0.116634
H8    H     H_    0.280421 0.757967 0.540383 0.106369
C19   C     C_2   0.985501 0.709149 0.282530 -0.128682
C20   C     C_2   0.150322 0.682683 0.319444 -0.313305
H9    H     H_    0.849652 0.680622 0.303127 0.136607
H10   H     H_    0.287811 0.710559 0.300906 0.128078
C21   C     C_2   0.973114 0.776605 0.214537 -0.136958
C22   C     C_2   0.126268 0.814468 0.177084 -0.307162
H11   H     H_    0.829148 0.795056 0.194492 0.135392
H12   H     H_    0.271364 0.796588 0.195262 0.130503
C23   C     C_2   0.779639 0.209744 0.782802 -0.129751
C24   C     C_2   0.614178 0.179756 0.816727 -0.312653
H13   H     H_    0.915972 0.183192 0.804927 0.135011
H14   H     H_    0.475944 0.204928 0.796224 0.124868
C25   C     C_2   0.791701 0.278226 0.715823 -0.141797
C26   C     C_2   0.638285 0.317764 0.680110 -0.308161
H15   H     H_    0.935521 0.296332 0.695320 0.132654
H16   H     H_    0.493270 0.301182 0.699306 0.127749
C27   C     C_2   0.776606 0.213750 0.210966 -0.099813
C28   C     C_2   0.613987 0.186808 0.172574 -0.268529
H17   H     H_    0.913755 0.184271 0.192901 0.133971
H18   H     H_    0.478445 0.220495 0.185699 0.180245
C29   C     C_2   0.781695 0.287732 0.273988 -0.149524
C30   C     C_2   0.638350 0.304993 0.328155 0.199937
H19   H     H_    0.913137 0.327670 0.277110 0.096525
O11   O     O_R   0.770210 0.079270 0.910680 -0.538514
O12   O     O_R   0.440150 0.091160 0.082270 -0.543095
O13   O     O_R   0.269970 0.914530 0.082860 -0.540083
C31   C     C_R   0.608973 0.114424 0.109345 0.723337
O14   O     O_R   0.440480 0.090100 0.911240 -0.549587
O15   O     O_R   0.270310 0.913460 0.910610 -0.536926
C32   C     C_R   0.609168 0.111830 0.883185 0.742593
O16   O     O_R   0.769870 0.080340 0.082930 -0.538281
O17   O     O_3   0.603660 0.938980 0.996790 -0.368757
V3    V     V_3+5 0.328750 0.007610 0.996740 1.409442
O18   O     O_R   0.940600 0.902510 0.911180 -0.539506
C33   C     C_R   0.109489 0.880699 0.882769 0.693894
O19   O     O_R   0.940270 0.903570 0.082200 -0.542764
C34   C     C_R   0.109539 0.881841 0.110327 0.740822
V4    V     V_3+5 0.828770 0.986010 0.996670 1.420023
O20   O     O_3   0.103730 0.054750 0.996710 -0.375346
O21   O     O_3   0.478771 0.248604 0.329663 -0.648635
H20   H     H_    0.395976 0.265482 0.377016 0.290598

loop_
_geom_bond_atom_site_label_1
_geom_bond_atom_site_label_2
_ccdc_geom_bond_type
O14   C32   A    
C27   C28   D    
O12   C31   A    
C27   C29   S    
C6    C7    A    
O18   V4    S    
C19   H9    S    
C12   C15   A    
C30   O21   S    
C13   C14   A    
O19   V4    S    
C1    C26   S    
C15   C16   A    
O5    C3    A    
C17   C18   A    
C11   C33   S    
V2    O10   S    
O16   V4    S    
C5    C6    A    
O13   V3    S    
O8    V2    S    
C23   C24   D    
C22   H12   S    
C11   C12   A    
O17   V3    S    
O15   C33   A    
C10   C14   A    
C4    C14   S    
O7    V1    S    
C1    O6    A    
C7    H4    S    
C20   H10   S    
C29   C30   D    
O9    C4    A    
H1    C17   S    
O11   V4    S    
C26   H16   S    
C29   H19   S    
O19   C34   A    
C5    C10   A    
V4    O20   S    
C23   H13   S    
C6    H3    S    
C19   C20   D    
O4    C2    A    
O21   H20   S    
C19   C21   S    
C12   C13   A    
C25   C26   D    
C25   H15   S    
C3    C20   S    
C22   C34   S    
O2    C1    A    
C21   C22   D    
C16   C17   A    
O14   V3    S    
C24   C32   S    
C21   H11   S    
O3    C4    A    
O1    V2    S    
O12   V3    S    
O6    V2    S    
C27   H17   S    
O17   V4    S    
C9    C11   A    
C5    H2    S    
O2    V1    S    
C2    C30   S    
V3    O20   S    
O1    C2    A    
O18   C33   A    
O5    V1    S    
C23   C25   S    
O8    C3    A    
C8    H5    S    
C18   H8    S    
O11   C32   A    
O9    V2    S    
O7    V2    S    
O4    V1    S    
O3    V1    S    
V1    O10   S    
C31   O16   A    
C24   H14   S    
O13   C34   A    
C28   H18   S    
O15   V3    S    
C13   C18   A    
C7    C8    A    
C15   H6    S    
C16   H7    S    
C9    C10   A    
C8    C9    A    
C28   C31   S    
