data_mof_unit_56283.cif
_audit_creation_date              2012-12-10T18:43:06-0500
_audit_creation_method            fapswitch 2.2
_symmetry_space_group_name_H-M    P1
_symmetry_Int_Tables_number       1
_space_group_crystal_system       triclinic
_cell_length_a                    10.696586
_cell_length_b                    9.837843
_cell_length_c                    10.743166
_cell_angle_alpha                 89.97064
_cell_angle_beta                  89.860466
_cell_angle_gamma                 90.022808
_cell_volume                      1130.51409537

loop_
_atom_site_label
_atom_site_type_symbol
_atom_type_description
_atom_site_fract_x
_atom_site_fract_y
_atom_site_fract_z
_atom_type_partial_charge
C1    C     C_R   0.259917 0.499923 0.500182 0.842710
C2    C     C_R   0.740083 0.499933 0.500054 0.849479
C3    C     C_R   0.497913 0.499620 0.262575 0.996059
C4    C     C_R   0.495193 0.499548 0.737648 0.988230
C5    C     C_2   0.473475 0.383635 0.935640 0.423686
C6    C     C_2   0.447259 0.393677 0.068075 0.402126
C7    C     C_2   0.471596 0.498624 0.868371 -0.536742
C8    C     C_2   0.499434 0.496989 0.130681 -0.523526
C9    C     C_R   0.063888 0.382180 0.536214 -0.200143
C10   C     C_R   0.935809 0.382184 0.536220 -0.196947
C11   C     C_R   0.872508 0.499814 0.499970 -0.008891
C12   C     C_R   0.127489 0.499830 0.500102 -0.006937
C13   C     C_R   0.936125 0.617305 0.463530 -0.205381
C14   C     C_R   0.064184 0.617288 0.463533 -0.194457
C15   C     C_R   0.583839 0.071891 0.570401 -0.048813
C16   C     C_R   0.416297 0.071996 0.429340 -0.053676
C17   C     C_R   0.583741 0.928031 0.570561 -0.078512
C18   C     C_R   0.416311 0.928069 0.429327 -0.074658
H1    H     H_    0.448130 0.595990 0.910071 0.130352
H2    H     H_    0.550479 0.578435 0.084945 0.120248
H3    H     H_    0.887223 0.708254 0.434177 0.157117
H4    H     H_    0.113327 0.708190 0.434098 0.150526
N1    N     N_R   0.500000 0.857200 0.500000 -0.079228
N2    N     N_R   0.500000 0.142810 0.500000 -0.080565
O1    O     O_R   0.316770 0.614620 0.499990 -0.628820
O2    O     O_R   0.683230 0.614620 0.500010 -0.630004
O3    O     O_R   0.316800 0.385290 0.500000 -0.638411
O4    O     O_R   0.683200 0.385290 0.500000 -0.640506
O5    O     O_R   0.500000 0.614630 0.319080 -0.631949
O6    O     O_R   0.500000 0.614630 0.680920 -0.626923
O7    O     O_R   0.500030 0.385300 0.319080 -0.561282
O8    O     O_R   0.499970 0.385300 0.680920 -0.559165
Zn1   Zn    Zn3+2 0.500000 0.653120 0.500000 0.938583
Zn2   Zn    Zn3+2 0.500000 0.346880 0.500000 0.971535
O9    O     O_3   0.491812 0.257132 0.880655 -0.606889
C19   C     C_3   0.599326 0.192727 0.929964 0.121167
H5    H     H_    0.599848 0.086765 0.894231 0.157795
H6    H     H_    0.596061 0.184772 0.033262 0.161329
C20   C     C_3   0.720572 0.263315 0.887490 -0.399627
H7    H     H_    0.718314 0.280492 0.785372 0.234787
H8    H     H_    0.729079 0.363734 0.934055 0.210029
C21   C     C_3   0.835275 0.178194 0.919365 -0.975324
H9    H     H_    0.839151 0.159030 0.021160 0.270039
H10   H     H_    0.921240 0.233417 0.890742 0.269710
H11   H     H_    0.832178 0.079499 0.869274 0.260886
O10   O     O_3   0.387925 0.286815 0.128887 -0.625171
C22   C     C_3   0.260108 0.282368 0.095333 0.097465
H12   H     H_    0.230121 0.174262 0.097607 0.159952
H13   H     H_    0.240921 0.319696 0.999108 0.135203
C23   C     C_3   0.182079 0.361877 0.190226 -0.365243
H14   H     H_    0.198270 0.318896 0.284364 0.236736
H15   H     H_    0.211615 0.470197 0.190447 0.208881
C24   C     C_3   0.042779 0.353988 0.161078 -0.952149
H16   H     H_    0.023712 0.397026 0.067428 0.265652
H17   H     H_    0.989419 0.413232 0.231285 0.280668
H18   H     H_    0.010531 0.246745 0.164367 0.262356
H19   H     H_    0.112820 0.291159 0.565321 0.158600
H20   H     H_    0.886656 0.291234 0.565562 0.151850
H21   H     H_    0.651144 0.126213 0.626305 0.122820
H22   H     H_    0.349456 0.126536 0.372801 0.143257
H23   H     H_    0.650708 0.873526 0.626993 0.126558
H24   H     H_    0.349441 0.873540 0.372800 0.123548

loop_
_geom_bond_atom_site_label_1
_geom_bond_atom_site_label_2
_ccdc_geom_bond_type
C23   H15   S    
C1    O1    A    
C13   C14   A    
C4    O8    A    
C5    C7    D    
C9    C10   A    
C16   N2    A    
O2    Zn1   S    
C7    H1    S    
C22   H12   S    
C1    O3    A    
C14   H4    S    
C19   H6    S    
C23   H14   S    
O7    Zn2   S    
O4    Zn2   S    
C2    O2    A    
C8    H2    S    
C24   H16   S    
C3    O7    A    
C11   C13   A    
C3    O5    A    
C17   N1    A    
C1    C12   S    
C21   H10   S    
C4    C7    S    
C6    C8    D    
C2    C11   S    
C5    O9    S    
C16   C18   A    
C19   H5    S    
C10   H20   S    
C12   C14   A    
C22   C23   S    
C9    H19   S    
C10   C11   A    
C24   H17   S    
O3    Zn2   S    
C5    C6    S    
C9    C12   A    
C4    O6    A    
C23   C24   S    
C21   H9    S    
C13   H3    S    
C18   N1    A    
O5    Zn1   S    
C18   H24   S    
C20   H8    S    
C22   H13   S    
C3    C8    S    
C16   H22   S    
C24   H18   S    
C20   H7    S    
C15   C17   A    
C20   C21   S    
C15   N2    A    
C2    O4    A    
C6    O10   S    
O6    Zn1   S    
C17   H23   S    
O10   C22   S    
C15   H21   S    
C19   C20   S    
N2    Zn2   S    
O9    C19   S    
O1    Zn1   S    
N1    Zn1   S    
C21   H11   S    
O8    Zn2   S    
