data_mof_unit_6026.cif
_audit_creation_date              2012-12-10T16:56:34-0500
_audit_creation_method            fapswitch 2.2
_symmetry_space_group_name_H-M    P1
_symmetry_Int_Tables_number       1
_space_group_crystal_system       triclinic
_cell_length_a                    10.742323
_cell_length_b                    10.924276
_cell_length_c                    9.688328
_cell_angle_alpha                 89.660975
_cell_angle_beta                  90.01796
_cell_angle_gamma                 90.297414
_cell_volume                      1136.91038321

loop_
_atom_site_label
_atom_site_type_symbol
_atom_type_description
_atom_site_fract_x
_atom_site_fract_y
_atom_site_fract_z
_atom_type_partial_charge
C1    C     C_R   0.492680 0.265433 0.500509 0.761813
C2    C     C_3   0.878085 0.506595 0.498856 0.075519
C3    C     C_3   0.927615 0.603049 0.603196 -0.361119
C4    C     C_3   0.927037 0.539738 0.352273 -0.388135
C5    C     C_2   0.493110 0.933811 0.389825 -0.054952
C6    C     C_2   0.522340 0.865527 0.499594 -0.228117
C7    C     C_2   0.505322 0.066701 0.395330 -0.325533
C8    C     C_2   0.466553 0.134765 0.502566 0.290276
C9    C     C_2   0.422589 0.435093 0.922515 -0.022199
C10   C     C_2   0.424991 0.432353 0.078268 -0.033131
C11   C     C_R   0.260104 0.507164 0.499622 0.841642
C12   C     C_R   0.505808 0.734380 0.499601 0.878226
C13   C     C_R   0.740137 0.502828 0.499832 0.760069
C14   C     C_3   0.072601 0.381410 0.531920 -0.434972
C15   C     C_3   0.929376 0.379578 0.539081 -0.398142
C16   C     C_3   0.071327 0.600182 0.609489 -0.308172
C17   C     C_3   0.070080 0.552578 0.352797 0.312403
C18   C     C_3   0.121965 0.512168 0.497854 -0.023231
Cu1   Cu    Cu3+1 0.500030 0.500020 0.638630 0.999774
Cu2   Cu    Cu3+1 0.499970 0.499980 0.361370 0.986786
H1    H     H_    0.109874 0.350215 0.633113 0.227957
H2    H     H_    0.881389 0.624917 0.314928 0.220915
H3    H     H_    0.110127 0.693920 0.595658 0.238215
H4    H     H_    0.895670 0.695937 0.572421 0.205068
H5    H     H_    0.465108 0.892276 0.292998 0.200411
H6    H     H_    0.558925 0.907023 0.592555 0.188553
H7    H     H_    0.551159 0.109939 0.307604 0.159998
H8    H     H_    0.352888 0.379259 0.871515 0.180705
H9    H     H_    0.567151 0.549285 0.893638 0.194164
H10   H     H_    0.359897 0.371332 0.130076 0.149199
H11   H     H_    0.104700 0.315675 0.452246 0.185098
H12   H     H_    0.558004 0.559402 0.105645 0.196180
H13   H     H_    0.892265 0.308272 0.468254 0.170421
H14   H     H_    0.898996 0.354694 0.645511 0.191305
H15   H     H_    0.100653 0.568405 0.713879 0.181872
H16   H     H_    0.890056 0.584287 0.708286 0.179727
H17   H     H_    0.107066 0.489371 0.273110 0.086382
H18   H     H_    0.900162 0.466528 0.278281 0.145293
N1    N     N_2   0.498630 0.498660 0.846910 -0.281189
N2    N     N_2   0.498590 0.498630 0.153040 -0.273489
O1    O     O_R   0.500020 0.321960 0.617040 -0.519491
O2    O     O_R   0.499980 0.321920 0.382900 -0.605685
O3    O     O_R   0.317710 0.500000 0.617070 -0.571281
O4    O     O_R   0.317670 0.499960 0.382930 -0.559574
O5    O     O_R   0.500020 0.678080 0.617100 -0.565457
O6    O     O_R   0.499980 0.678040 0.382960 -0.554288
O7    O     O_R   0.682330 0.500040 0.617070 -0.592716
O8    O     O_R   0.682290 0.500000 0.382930 -0.590852
S1    S     S_3+6 0.368165 0.079214 0.637858 0.003153
O9    O     O_2   0.287378 0.975414 0.588736 -0.257552
O10   O     O_2   0.446508 0.037082 0.757431 -0.302031
O11   O     O_3   0.276190 0.193109 0.692103 -0.577250
H19   H     H_    0.228498 0.157896 0.770434 0.368653
S2    S     S_3+6 0.113493 0.706364 0.298698 -0.013151
O12   O     O_2   0.246971 0.734442 0.331993 -0.281282
O13   O     O_2   0.095257 0.716409 0.145242 -0.285169
O14   O     O_3   0.022840 0.810406 0.376481 -0.560643
H20   H     H_    0.053083 0.890701 0.341861 0.389026

loop_
_geom_bond_atom_site_label_1
_geom_bond_atom_site_label_2
_ccdc_geom_bond_type
C13   O8    A    
C2    C4    S    
Cu1   O5    S    
C11   C18   S    
C11   O3    A    
C1    C8    S    
C4    H2    S    
C9    C10   S    
C14   C18   S    
C15   H14   S    
Cu2   O2    S    
Cu1   Cu2   S    
C9    N1    D    
C14   H11   S    
S1    O11   S    
H9    N1    S    
C17   C18   S    
O14   H20   S    
C11   O4    A    
C16   C18   S    
C17   H17   S    
C2    C15   S    
C3    H4    S    
C6    H6    S    
Cu1   N1    S    
C3    H16   S    
C5    H5    S    
C4    C17   S    
C17   S2    S    
C14   H1    S    
C10   N2    D    
Cu2   O4    S    
C4    H18   S    
C2    C3    S    
C16   H3    S    
S2    O13   D    
H12   N2    S    
C16   H15   S    
C6    C12   S    
C5    C6    D    
Cu2   N2    S    
Cu1   O7    S    
C1    O2    A    
C7    C8    D    
C7    H7    S    
O11   H19   S    
C12   O6    A    
S1    O9    D    
C1    O1    A    
C5    C7    S    
C2    C13   S    
C10   H10   S    
C14   C15   S    
Cu2   O8    S    
S2    O12   D    
C13   O7    A    
C8    S1    S    
C15   H13   S    
Cu2   O6    S    
C3    C16   S    
Cu1   O1    S    
C9    H8    S    
Cu1   O3    S    
C12   O5    A    
S1    O10   D    
S2    O14   S    
