data_mof_unit_13555.cif
_audit_creation_date              2012-10-26T20:33:40-0400
_audit_creation_method            fapswitch 2.2
_symmetry_space_group_name_H-M    P1
_symmetry_Int_Tables_number       1
_space_group_crystal_system       triclinic
_cell_length_a                    10.763362
_cell_length_b                    9.091551
_cell_length_c                    7.783454
_cell_angle_alpha                 90.003088
_cell_angle_beta                  90.109849
_cell_angle_gamma                 89.984928
_cell_volume                      761.653558597

loop_
_atom_site_label
_atom_site_type_symbol
_atom_type_description
_atom_site_fract_x
_atom_site_fract_y
_atom_site_fract_z
_atom_type_partial_charge
C1    C     C_R   0.499992 0.220030 0.499996 0.557828
C2    C     C_1   0.500059 0.934644 0.500009 -0.051245
C3    C     C_3   0.070198 0.640696 0.532049 -0.325924
C4    C     C_3   0.927109 0.639156 0.521701 -0.306291
C5    C     C_3   0.122078 0.484002 0.498372 0.076150
C6    C     C_3   0.877572 0.479181 0.499713 0.058298
C7    C     C_R   0.259580 0.493039 0.499622 0.595816
C8    C     C_R   0.740091 0.489036 0.499997 0.535796
C9    C     C_R   0.500042 0.779979 0.500004 0.547448
C10   C     C_1   0.500045 0.065397 0.500000 -0.044810
C11   C     C_3   0.073932 0.383447 0.648146 0.026219
C12   C     C_3   0.071462 0.435110 0.317417 0.033278
C13   C     C_3   0.928445 0.386810 0.655637 -0.003080
C14   C     C_3   0.927735 0.418615 0.322999 0.005896
Cu1   Cu    Cu3+1 0.500000 0.500010 0.669080 1.008649
Cu2   Cu    Cu3+1 0.500000 0.500010 0.330920 1.017787
H1    H     H_    0.106577 0.434677 0.770589 0.124181
H2    H     H_    0.132088 0.193105 0.767458 0.224557
H3    H     H_    0.119746 0.211290 0.308578 0.250806
H4    H     H_    0.106962 0.293890 0.116279 0.231538
H5    H     H_    0.776715 0.248294 0.680793 0.252831
H6    H     H_    0.903043 0.191786 0.783550 0.232541
H7    H     H_    0.917469 0.192255 0.370242 0.267328
H8    H     H_    0.788758 0.263963 0.280311 0.257549
H9    H     H_    0.090926 0.528473 0.228220 0.120477
H10   H     H_    0.902522 0.446923 0.775502 0.124133
H11   H     H_    0.890894 0.490896 0.218957 0.138893
H12   H     H_    0.099803 0.680654 0.661028 0.125976
H13   H     H_    0.107508 0.720256 0.436376 0.118306
H14   H     H_    0.888527 0.690213 0.640233 0.133508
H15   H     H_    0.896350 0.708462 0.411567 0.123436
H16   H     H_    0.075823 0.162655 0.570487 0.250057
N1    N     N_1   0.500000 0.499970 0.076820 -0.081808
N2    N     N_1   0.500000 0.499970 0.923180 -0.084145
N3    N     N_3   0.129347 0.235482 0.642550 -0.616411
N4    N     N_3   0.137378 0.308449 0.242903 -0.585651
N5    N     N_3   0.872975 0.239488 0.668449 -0.669907
N6    N     N_3   0.885670 0.268758 0.281104 -0.652078
O1    O     O_R   0.500000 0.288400 0.642760 -0.496989
O2    O     O_R   0.500000 0.288400 0.357240 -0.493808
O3    O     O_R   0.317700 0.499990 0.642790 -0.507314
O4    O     O_R   0.317700 0.499990 0.357210 -0.482138
O5    O     O_R   0.682300 0.499990 0.642790 -0.519542
O6    O     O_R   0.682300 0.499990 0.357210 -0.521572
O7    O     O_R   0.500000 0.711620 0.642810 -0.497349
O8    O     O_R   0.500000 0.711620 0.357190 -0.499221

loop_
_geom_bond_atom_site_label_1
_geom_bond_atom_site_label_2
_ccdc_geom_bond_type
C2    C9    S    
H8    N6    S    
C9    O7    A    
Cu2   N1    S    
C6    C14   S    
H7    N6    S    
H2    N3    S    
Cu2   O6    S    
Cu1   N2    S    
C13   N5    S    
C8    O5    A    
C12   H9    S    
C11   N3    S    
N1    N2    T    
Cu1   O5    S    
C9    O8    A    
C6    C13   S    
C11   C13   S    
Cu1   O1    S    
Cu2   O2    S    
C3    H12   S    
C12   C14   S    
C5    C11   S    
C5    C7    S    
H3    N4    S    
C7    O3    A    
C8    O6    A    
C14   H11   S    
C13   H10   S    
C4    H15   S    
C12   N4    S    
Cu1   O7    S    
C14   N6    S    
Cu1   Cu2   S    
C2    C10   T    
H16   N3    S    
Cu2   O4    S    
H5    N5    S    
Cu1   O3    S    
C5    C12   S    
C4    C6    S    
C7    O4    A    
Cu2   O8    S    
C3    H13   S    
C1    O1    A    
C11   H1    S    
C6    C8    S    
C1    O2    A    
H6    N5    S    
C4    H14   S    
C1    C10   S    
C3    C4    S    
C3    C5    S    
H4    N4    S    
