data_mof_unit_44081.cif
_audit_creation_date              2012-12-10T18:47:01-0500
_audit_creation_method            fapswitch 2.2
_symmetry_space_group_name_H-M    P1
_symmetry_Int_Tables_number       1
_space_group_crystal_system       triclinic
_cell_length_a                    10.689822
_cell_length_b                    9.837976
_cell_length_c                    14.924576
_cell_angle_alpha                 90.738671
_cell_angle_beta                  88.987542
_cell_angle_gamma                 89.473747
_cell_volume                      1569.11612061

loop_
_atom_site_label
_atom_site_type_symbol
_atom_type_description
_atom_site_fract_x
_atom_site_fract_y
_atom_site_fract_z
_atom_type_partial_charge
C1    C     C_R   0.259996 0.500995 0.499967 0.983129
C2    C     C_R   0.739891 0.499493 0.500042 0.969778
C3    C     C_R   0.277973 0.615162 0.044844 -0.103261
C4    C     C_R   0.625800 0.282788 0.952310 -0.107377
C5    C     C_R   0.067332 0.423596 0.433727 0.159714
C6    C     C_R   0.932369 0.581702 0.563274 0.130601
C7    C     C_R   0.937703 0.421805 0.434470 0.094466
C8    C     C_R   0.061673 0.588086 0.560086 0.119554
C9    C     C_R   0.872197 0.499091 0.500141 -0.236053
C10   C     C_R   0.127574 0.504061 0.498054 -0.222591
C11   C     C_R   0.540899 0.072807 0.572534 -0.026776
C12   C     C_R   0.459046 0.927243 0.427563 -0.027852
C13   C     C_R   0.459103 0.070974 0.427488 -0.019131
C14   C     C_R   0.540829 0.929042 0.572557 -0.033031
C15   C     C_R   0.494753 0.498926 0.326571 0.931225
C16   C     C_R   0.505275 0.500287 0.673238 0.933724
C17   C     C_R   0.588226 0.416007 0.815778 -0.059616
C18   C     C_R   0.393169 0.574739 0.185787 -0.040276
C19   C     C_R   0.503224 0.497700 0.769402 -0.141161
C20   C     C_R   0.479489 0.492081 0.230603 -0.142533
C21   C     C_R   0.403845 0.563188 0.813286 -0.193726
C22   C     C_R   0.547236 0.390754 0.185207 -0.195926
C23   C     C_R   0.386437 0.551308 0.905394 0.046751
C24   C     C_R   0.543254 0.378194 0.092772 0.075380
C25   C     C_R   0.468928 0.466483 0.952580 0.067204
C26   C     C_R   0.461745 0.464577 0.046011 0.078125
C27   C     C_R   0.562028 0.387510 0.906476 0.020988
C28   C     C_R   0.376251 0.552565 0.092842 -0.001997
C29   C     C_R   0.285775 0.618125 0.950616 -0.104256
C30   C     C_R   0.619229 0.281100 0.046512 -0.231481
H1    H     H_    0.340960 0.624536 0.774625 0.176833
H2    H     H_    0.608752 0.325979 0.222789 0.180837
H3    H     H_    0.573609 0.127563 0.630641 0.199653
H4    H     H_    0.426298 0.872479 0.369649 0.173550
H5    H     H_    0.426405 0.124387 0.369406 0.173105
H6    H     H_    0.573420 0.875638 0.630662 0.162165
N1    N     N_R   0.500000 0.857200 0.500000 -0.096218
N2    N     N_R   0.500000 0.142800 0.500000 -0.099787
O1    O     O_R   0.316770 0.614620 0.499990 -0.587836
O2    O     O_R   0.683230 0.385380 0.500010 -0.579131
O3    O     O_R   0.683230 0.614620 0.500010 -0.603873
O4    O     O_R   0.316770 0.385380 0.499990 -0.611749
O5    O     O_R   0.499980 0.614680 0.367850 -0.619302
O6    O     O_R   0.500020 0.385320 0.632150 -0.582729
O7    O     O_R   0.500020 0.614680 0.632150 -0.624964
O8    O     O_R   0.499980 0.385320 0.367850 -0.618338
Zn1   Zn    Zn3+2 0.500000 0.653120 0.500000 1.012439
Zn2   Zn    Zn3+2 0.500000 0.346880 0.500000 1.027006
C31   C     C_2   0.714044 0.383568 0.775476 0.911899
O9    O     O_2   0.807813 0.408625 0.818297 -0.552252
O10   O     O_R   0.726303 0.324064 0.690312 -0.793941
H7    H     H_    0.816843 0.307488 0.671559 0.353737
C32   C     C_2   0.329619 0.689356 0.234345 0.915144
O11   O     O_2   0.341389 0.805268 0.206969 -0.582927
O12   O     O_R   0.254771 0.664397 0.309947 -0.782606
H8    H     H_    0.215083 0.750315 0.336255 0.350675
C33   C     C_2   0.184605 0.683756 0.899616 0.958290
O13   O     O_2   0.107076 0.613462 0.862168 -0.553835
O14   O     O_R   0.178192 0.825412 0.895055 -0.709950
H9    H     H_    0.104448 0.858154 0.859106 0.381700
C34   C     C_2   0.688903 0.175584 0.096498 0.999982
O15   O     O_2   0.631630 0.083808 0.132515 -0.526223
O16   O     O_R   0.818811 0.181289 0.104360 -0.674748
H10   H     H_    0.855799 0.264216 0.074668 0.345432
C35   C     C_2   0.159172 0.657963 0.091208 0.954081
O17   O     O_2   0.112903 0.769793 0.077660 -0.519335
O18   O     O_R   0.100860 0.569136 0.150876 -0.757168
H11   H     H_    0.021409 0.609100 0.178899 0.365136
C36   C     C_2   0.683168 0.165526 0.901546 0.954993
O19   O     O_2   0.786369 0.121387 0.920870 -0.552278
O20   O     O_R   0.618318 0.106842 0.830461 -0.789080
H12   H     H_    0.666529 0.029135 0.800313 0.353882
I1    I     I_    0.171511 0.315088 0.330106 -0.160526
I2    I     I_    0.828811 0.691523 0.666810 -0.232117
I3    I     I_    0.841643 0.308567 0.333164 -0.219244
I4    I     I_    0.154671 0.727822 0.648059 -0.243983

loop_
_geom_bond_atom_site_label_1
_geom_bond_atom_site_label_2
_ccdc_geom_bond_type
O12   H8    S    
C6    C9    A    
C32   O11   D    
C21   H1    S    
C22   H2    S    
C23   C29   A    
C3    C28   A    
C19   C21   A    
C24   C26   A    
C13   H5    S    
C36   O19   D    
C14   H6    S    
C11   C14   A    
C33   O14   S    
C2    O3    A    
C8    I4    S    
C36   O20   S    
C12   N1    A    
C34   O16   S    
O2    Zn2   S    
C18   C32   S    
C35   O18   S    
N1    Zn1   S    
C16   O6    A    
N2    Zn2   S    
O7    Zn1   S    
O14   H9    S    
C3    C35   S    
C4    C36   S    
C6    I2    S    
C32   O12   S    
C15   C20   S    
O8    Zn2   S    
O18   H11   S    
C17   C27   A    
C11   H3    S    
C18   C28   A    
C17   C31   S    
C5    C7    A    
C7    I3    S    
C31   O10   S    
C25   C26   A    
O10   H7    S    
C11   N2    A    
O3    Zn1   S    
O4    Zn2   S    
C13   N2    A    
C20   C22   A    
C35   O17   D    
C21   C23   A    
C22   C24   A    
C12   H4    S    
C4    C27   A    
O1    Zn1   S    
C7    C9    A    
C1    C10   S    
C29   C33   S    
C16   O7    A    
C6    C8    A    
C25   C27   A    
C26   C28   A    
C15   O5    A    
C5    C10   A    
C14   N1    A    
C3    C29   A    
C33   O13   D    
C16   C19   S    
C17   C19   A    
C18   C20   A    
C23   C25   A    
C5    I1    S    
C34   O15   D    
C24   C30   A    
C1    O1    A    
O16   H10   S    
C2    O2    A    
C1    O4    A    
O20   H12   S    
C12   C13   A    
C8    C10   A    
C31   O9    D    
C30   C34   S    
C15   O8    A    
C2    C9    S    
O5    Zn1   S    
C4    C30   A    
O6    Zn2   S    
