data_mof_unit_28559.cif
_audit_creation_date              2012-10-26T18:50:24-0400
_audit_creation_method            fapswitch 2.2
_symmetry_space_group_name_H-M    P1
_symmetry_Int_Tables_number       1
_space_group_crystal_system       triclinic
_cell_length_a                    9.630453
_cell_length_b                    10.857987
_cell_length_c                    15.410617
_cell_angle_alpha                 85.10276
_cell_angle_beta                  74.14684
_cell_angle_gamma                 89.011291
_cell_volume                      1544.46575266

loop_
_atom_site_label
_atom_site_type_symbol
_atom_type_description
_atom_site_fract_x
_atom_site_fract_y
_atom_site_fract_z
_atom_type_partial_charge
C1    C     C_R   0.003910 0.262445 0.496178 0.545155
C2    C     C_R   0.220279 0.492182 0.039941 0.074714
C3    C     C_R   0.319080 0.527814 0.087037 0.012995
C4    C     C_R   0.917959 0.501997 0.672079 0.539388
C5    C     C_R   0.074799 0.464889 0.086749 0.229234
C6    C     C_R   0.028697 0.471225 0.180865 -0.121399
C7    C     C_R   0.271863 0.520775 0.182010 -0.105870
C8    C     C_R   0.272734 0.107439 0.492411 -0.105742
C9    C     C_R   0.377951 0.040963 0.522843 -0.097694
C10   C     C_R   0.346291 0.922802 0.567227 0.257234
C11   C     C_R   0.214143 0.868292 0.571899 -0.030878
C12   C     C_R   0.665752 0.541997 0.901693 0.022176
C13   C     C_R   0.112801 0.930257 0.532335 -0.028431
C14   C     C_R   0.132537 0.057477 0.505797 0.010339
C15   C     C_R   0.011277 0.127483 0.493617 0.006331
C16   C     C_R   0.996249 0.736160 0.507730 0.553523
C17   C     C_R   0.886610 0.065855 0.489801 -0.155617
C18   C     C_R   0.880457 0.938298 0.497464 -0.145610
C19   C     C_R   0.993699 0.869233 0.516887 -0.000475
C20   C     C_R   0.675869 0.700505 0.393711 0.023421
C21   C     C_R   0.604584 0.801911 0.363688 -0.167065
C22   C     C_R   0.465557 0.790328 0.359858 -0.156921
C23   C     C_R   0.759891 0.596113 0.944029 0.032176
C24   C     C_R   0.392862 0.681312 0.392776 -0.053060
C25   C     C_R   0.444877 0.590455 0.446939 0.122824
C26   C     C_R   0.594771 0.594120 0.447021 0.134350
C27   C     C_R   0.555351 0.413442 0.549590 0.062132
C28   C     C_R   0.082137 0.496614 0.327958 0.567353
C29   C     C_R   0.407873 0.413942 0.551585 0.323658
C30   C     C_R   0.870770 0.521093 0.768948 0.003277
C31   C     C_R   0.127467 0.496537 0.228749 -0.031817
C32   C     C_R   0.907311 0.611762 0.898918 -0.080527
C33   C     C_R   0.962343 0.575119 0.811655 -0.123639
C34   C     C_R   0.515700 0.531203 0.946666 -0.007851
C35   C     C_R   0.725454 0.500215 0.815458 -0.107564
C36   C     C_1   0.826304 0.712977 0.346230 0.251568
C37   C     C_R   0.464604 0.560179 0.038343 0.071665
C38   C     C_R   0.559061 0.624035 0.076446 0.225739
C39   C     C_R   0.705644 0.638276 0.029504 -0.118248
C40   C     C_R   0.414172 0.496945 0.901724 -0.148278
C41   C     C_R   0.269158 0.481232 0.946985 -0.102593
Cu1   Cu    Cu3+1 0.140660 0.499990 0.500010 0.928792
Cu2   Cu    Cu3+1 0.859340 0.500010 0.499990 0.955212
H1    H     H_    0.777602 0.685049 0.059376 0.107985
H2    H     H_    0.417090 0.863179 0.325548 0.141925
H3    H     H_    0.294903 0.674469 0.374700 0.202998
H4    H     H_    0.917023 0.451343 0.217046 0.117845
H5    H     H_    0.196096 0.456116 0.908880 0.177492
H6    H     H_    0.979526 0.654935 0.930482 0.137578
H7    H     H_    0.074838 0.593081 0.776568 0.131208
H8    H     H_    0.660903 0.451309 0.782313 0.123137
H9    H     H_    0.442442 0.486040 0.830169 0.125827
H10   H     H_    0.884043 0.413136 0.082646 0.324693
H11   H     H_    0.531805 0.907584 0.593832 0.320818
H12   H     H_    0.793860 0.116256 0.478982 0.129707
H13   H     H_    0.222115 0.344461 0.617006 0.383808
H14   H     H_    0.584551 0.723781 0.170885 0.324631
H15   H     H_    0.306825 0.195025 0.454866 0.167736
H16   H     H_    0.483154 0.082579 0.512971 0.101970
H17   H     H_    0.191643 0.777589 0.607630 0.165066
H18   H     H_    0.786705 0.893911 0.487709 0.137946
H19   H     H_    0.594798 0.343012 0.590810 0.141376
H20   H     H_    0.662413 0.885670 0.330358 0.117695
H21   H     H_    0.347865 0.527865 0.221303 0.193950
N1    N     N_R   0.648320 0.501210 0.499140 -0.281167
N2    N     N_R   0.352470 0.501290 0.499110 -0.261179
N3    N     N_1   0.944836 0.733085 0.305117 -0.307866
O1    O     O_R   0.118810 0.319640 0.500010 -0.521028
O2    O     O_3   0.443745 0.856451 0.603311 -0.697380
O3    O     O_3   0.323825 0.323348 0.608792 -0.728364
O4    O     O_3   0.504840 0.683071 0.154603 -0.732528
O5    O     O_R   0.881240 0.319660 0.500000 -0.515637
O6    O     O_R   0.055570 0.499980 0.629840 -0.524601
O7    O     O_R   0.818000 0.500010 0.629830 -0.499365
O8    O     O_R   0.118760 0.680340 0.500000 -0.537289
O9    O     O_R   0.881190 0.680360 0.499990 -0.489179
O10   O     O_R   0.182000 0.499990 0.370170 -0.533229
O11   O     O_R   0.944430 0.500020 0.370160 -0.489586
O12   O     O_3   0.980844 0.429001 0.039875 -0.720973

loop_
_geom_bond_atom_site_label_1
_geom_bond_atom_site_label_2
_ccdc_geom_bond_type
Cu2   O5    S    
C27   C29   A    
C16   O8    A    
C36   N3    T    
Cu2   O11   S    
C12   C23   A    
Cu1   O8    S    
C30   C35   A    
C34   C40   A    
H10   O12   S    
C3    C7    A    
C5    C6    A    
C2    C41   A    
C34   C37   A    
C1    O1    A    
C18   C19   A    
C8    H15   S    
C8    C9    A    
C1    C15   S    
C5    O12   S    
C28   O11   A    
C9    C10   A    
C17   H12   S    
C4    O7    A    
Cu2   O7    S    
C6    C31   A    
C13   C14   A    
Cu1   O1    S    
C7    H21   S    
C1    O5    A    
C7    C31   A    
C6    H4    S    
C13   C19   A    
C24   C25   A    
C33   H7    S    
C40   H9    S    
C9    H16   S    
C37   C38   A    
C27   N1    A    
C27   H19   S    
Cu2   N1    S    
C17   C18   A    
H14   O4    S    
C12   C35   A    
C28   O10   A    
C4    O6    A    
C40   C41   A    
H13   O3    S    
C35   H8    S    
C22   C24   A    
C2    C5    A    
Cu1   Cu2   S    
C12   C34   A    
C11   H17   S    
C29   O3    S    
Cu2   O9    S    
C15   C17   A    
C38   O4    S    
Cu1   O6    S    
C8    C14   A    
C30   C33   A    
C16   O9    A    
C26   N1    A    
C28   C31   S    
C25   N2    A    
C18   H18   S    
C39   H1    S    
C24   H3    S    
C23   C32   A    
C2    C3    A    
C25   C26   A    
C32   C33   A    
C11   C13   A    
C38   C39   A    
H11   O2    S    
C20   C26   A    
C16   C19   S    
C23   C39   A    
C41   H5    S    
C32   H6    S    
C21   H20   S    
C10   C11   A    
C29   N2    A    
C20   C36   S    
C10   O2    S    
C22   H2    S    
C20   C21   A    
C3    C37   A    
Cu1   O10   S    
Cu1   N2    S    
C14   C15   A    
C21   C22   A    
C4    C30   S    
