data_mof_unit_8319.cif
_audit_creation_date              2012-12-10T17:47:50-0500
_audit_creation_method            fapswitch 2.2
_symmetry_space_group_name_H-M    P1
_symmetry_Int_Tables_number       1
_space_group_crystal_system       triclinic
_cell_length_a                    14.713178
_cell_length_b                    14.664551
_cell_length_c                    14.331605
_cell_angle_alpha                 76.46232
_cell_angle_beta                  102.228875
_cell_angle_gamma                 116.120417
_cell_volume                      2678.24012342

loop_
_atom_site_label
_atom_site_type_symbol
_atom_type_description
_atom_site_fract_x
_atom_site_fract_y
_atom_site_fract_z
_atom_type_partial_charge
C1    C     C_R   0.879497 0.310525 0.515644 0.815827
C2    C     C_R   0.509414 0.099853 0.607033 0.104847
C3    C     C_R   0.611957 0.879587 0.593407 0.094300
C4    C     C_R   0.404232 0.077231 0.596716 0.095748
C5    C     C_R   0.715221 0.660016 0.328006 0.364810
C6    C     C_R   0.293212 0.353355 0.677457 0.365020
C7    C     C_R   0.799446 0.635450 0.364289 -0.047474
C8    C     C_R   0.204269 0.367712 0.637085 -0.059560
C9    C     C_R   0.714230 0.516610 0.494041 0.364410
C10   C     C_R   0.287039 0.492058 0.508332 0.373679
C11   C     C_R   0.634023 0.549209 0.468630 -0.069023
C12   C     C_R   0.120666 0.688701 0.488412 0.828377
C13   C     C_R   0.374559 0.469355 0.537912 -0.139551
C14   C     C_R   0.626199 0.605700 0.374987 -0.121993
C15   C     C_R   0.383154 0.413319 0.631985 -0.065941
C16   C     C_R   0.000106 0.499844 0.668800 0.798610
C17   C     C_R   0.000026 0.500269 0.331208 0.804724
C18   C     C_R   0.553125 0.511779 0.526638 -0.059403
C19   C     C_R   0.456119 0.506477 0.481066 -0.158227
C20   C     C_R   0.442756 0.532799 0.378624 0.426853
C21   C     C_R   0.568589 0.483320 0.628723 0.487838
C22   C     C_R   0.527470 0.594356 0.328753 0.099836
C23   C     C_R   0.645747 0.061702 0.568846 0.042154
C24   C     C_R   0.482227 0.427278 0.680084 0.049469
C25   C     C_1   0.000780 0.500242 0.771225 -0.203236
C26   C     C_1   0.000165 0.500534 0.228795 -0.206531
C27   C     C_1   0.001345 0.500647 0.856709 -0.016990
C28   C     C_1   0.000722 0.500719 0.143410 -0.011902
C29   C     C_1   0.001748 0.500979 0.957416 0.000123
C30   C     C_1   0.001452 0.500935 0.042825 0.003052
C31   C     C_R   0.812718 0.197901 0.532778 -0.109066
C32   C     C_R   0.190040 0.796587 0.500379 -0.132975
C33   C     C_R   0.786741 0.016537 0.565507 0.117883
C34   C     C_R   0.365379 0.912420 0.551249 0.030362
C35   C     C_R   0.224075 0.962908 0.539566 0.135902
C36   C     C_R   0.851203 0.122494 0.544024 0.117111
C37   C     C_R   0.154591 0.867988 0.510906 0.145991
C38   C     C_R   0.710513 0.165776 0.543021 -0.252964
C39   C     C_R   0.294805 0.823439 0.513649 -0.234837
C40   C     C_3   0.309469 0.393368 0.323266 0.051191
C41   C     C_3   0.198301 0.355545 0.276969 -0.307748
C42   C     C_3   0.150944 0.239799 0.276458 -0.935529
C43   C     C_3   0.700130 0.463774 0.748442 0.119793
C44   C     C_3   0.724504 0.499533 0.846742 -0.309134
C45   C     C_R   0.682123 0.984850 0.575550 0.039794
C46   C     C_3   0.729355 0.414363 0.929823 -0.906594
C47   C     C_3   0.787714 0.829089 0.254618 0.049168
C48   C     C_3   0.743488 0.881190 0.302686 -0.354361
C49   C     C_3   0.814739 0.994413 0.304167 -0.927302
C50   C     C_3   0.222834 0.186489 0.759457 0.033434
C51   C     C_3   0.147951 0.151776 0.833244 -0.331813
C52   C     C_3   0.073308 0.039345 0.833649 -0.925203
C53   C     C_R   0.330862 0.985716 0.562121 0.041989
C54   C     C_R   0.542510 0.033131 0.580842 0.004585
C55   C     C_R   0.470880 0.932090 0.572664 -0.014873
C56   C     C_R   0.507580 0.853973 0.592011 0.128134
Cu1   Cu    Cu3+1 0.081740 0.475690 0.523180 0.951370
Cu2   Cu    Cu3+1 0.918260 0.524310 0.476820 0.930961
H1    H     H_    0.320831 0.773607 0.493032 0.200402
H2    H     H_    0.354956 0.379420 0.279544 0.149629
H3    H     H_    0.153545 0.373284 0.318104 0.233893
H4    H     H_    0.194173 0.396415 0.201410 0.229928
H5    H     H_    0.194294 0.219854 0.235782 0.257393
H6    H     H_    0.070881 0.215410 0.241107 0.260613
H7    H     H_    0.150743 0.197441 0.351642 0.254661
H8    H     H_    0.773079 0.470189 0.731684 0.148146
H9    H     H_    0.647409 0.380876 0.751138 0.141180
H10   H     H_    0.799217 0.567378 0.849412 0.207444
H11   H     H_    0.666373 0.524246 0.856694 0.245961
H12   H     H_    0.680260 0.222844 0.527379 0.183439
H13   H     H_    0.652895 0.349389 0.933369 0.260510
H14   H     H_    0.754285 0.444656 0.999328 0.261410
H15   H     H_    0.784312 0.385593 0.919646 0.255489
H16   H     H_    0.034905 0.899728 0.438574 0.220340
H17   H     H_    0.024399 0.847044 0.556667 0.234849
H18   H     H_    0.957814 0.121523 0.474268 0.217541
H19   H     H_    0.993131 0.127216 0.594697 0.209156
H20   H     H_    0.857497 0.949440 0.514218 0.227795
H21   H     H_    0.887662 0.955095 0.634699 0.217747
H22   H     H_    0.218128 0.103442 0.501564 0.238002
H23   H     H_    0.136798 0.328031 0.673662 0.150358
H24   H     H_    0.190377 0.041496 0.617118 0.241438
H25   H     H_    0.468357 0.726403 0.694456 0.244218
H26   H     H_    0.444782 0.702509 0.579957 0.237148
H27   H     H_    0.566870 0.160554 0.730866 0.219030
H28   H     H_    0.570546 0.247989 0.630017 0.219377
H29   H     H_    0.539278 0.604016 0.187485 0.251606
H30   H     H_    0.541094 0.711844 0.216553 0.248974
H31   H     H_    0.469214 0.317362 0.799733 0.248365
H32   H     H_    0.462685 0.426698 0.817155 0.263844
H33   H     H_    0.365292 0.636617 0.432263 0.195326
H34   H     H_    0.865770 0.670797 0.326035 0.149785
H35   H     H_    0.249156 0.564171 0.375017 0.269118
H36   H     H_    0.758000 0.414700 0.595132 0.258863
H37   H     H_    0.664808 0.365670 0.504914 0.204681
H38   H     H_    0.804377 0.873721 0.181458 0.174770
H39   H     H_    0.862225 0.832539 0.295473 0.124119
H40   H     H_    0.668491 0.875901 0.262297 0.222287
H41   H     H_    0.731862 0.841389 0.378159 0.212317
H42   H     H_    0.891151 0.002147 0.342505 0.245689
H43   H     H_    0.782585 0.029227 0.342177 0.263536
H44   H     H_    0.823116 0.036981 0.229194 0.259215
H45   H     H_    0.697325 0.803203 0.673302 0.261385
H46   H     H_    0.265433 0.136885 0.778472 0.167961
H47   H     H_    0.179728 0.173688 0.686126 0.125313
H48   H     H_    0.191048 0.161222 0.906629 0.230654
H49   H     H_    0.104302 0.200336 0.815833 0.211402
H50   H     H_    0.028410 0.028362 0.761316 0.245569
H51   H     H_    0.019887 0.016587 0.887604 0.260177
H52   H     H_    0.115105 0.988916 0.853182 0.258753
H53   H     H_    0.668471 0.792685 0.551631 0.253212
H54   H     H_    0.401138 0.156525 0.694260 0.217511
H55   H     H_    0.403679 0.218768 0.577840 0.215732
H56   H     H_    0.312085 0.348264 0.397331 0.135414
N1    N     N_R   0.795420 0.560790 0.441960 -0.214573
N2    N     N_3   0.581566 0.180999 0.658916 -0.614222
N3    N     N_3   0.508228 0.631529 0.227992 -0.530100
N4    N     N_3   0.497768 0.397497 0.782798 -0.592538
N5    N     N_3   0.290772 0.583188 0.441420 -0.534015
N6    N     N_3   0.692969 0.418428 0.552685 -0.626288
N7    N     N_R   0.204580 0.439210 0.558040 -0.201959
N8    N     N_3   0.642220 0.795621 0.612675 -0.585164
N9    N     N_3   0.373319 0.147488 0.622119 -0.639651
N10   N     N_3   0.047320 0.843944 0.493636 -0.563623
N11   N     N_3   0.955596 0.153488 0.531236 -0.572835
N12   N     N_3   0.828631 0.942149 0.577390 -0.632337
N13   N     N_3   0.182248 0.033037 0.545084 -0.627245
N14   N     N_3   0.441316 0.748854 0.623280 -0.574469
O1    O     O_R   0.977910 0.338120 0.530560 -0.536871
O2    O     O_3   0.667267 0.530838 0.675754 -0.599968
O3    O     O_3   0.716439 0.727835 0.242294 -0.632302
O4    O     O_3   0.294455 0.289182 0.765340 -0.629240
O5    O     O_R   0.022090 0.661880 0.469440 -0.543614
O6    O     O_R   0.839850 0.379180 0.491410 -0.598900
O7    O     O_R   0.160150 0.620820 0.508590 -0.545297
O8    O     O_R   0.069040 0.479460 0.643530 -0.554889
O9    O     O_R   0.930960 0.520540 0.356470 -0.559153
O10   O     O_R   0.930990 0.520530 0.604380 -0.571049
O11   O     O_R   0.069010 0.479470 0.395620 -0.565692
O12   O     O_3   0.347285 0.499864 0.325090 -0.611794

loop_
_geom_bond_atom_site_label_1
_geom_bond_atom_site_label_2
_ccdc_geom_bond_type
H26   N14   S    
C22   N3    S    
H16   N10   S    
C55   C56   A    
C38   H12   S    
C11   C18   A    
C50   H46   S    
C23   C45   A    
C4    C53   A    
C35   C53   A    
C18   C21   A    
C33   C45   A    
C41   C42   S    
C36   N11   S    
C41   H3    S    
H25   N14   S    
C10   N7    A    
Cu2   O6    S    
C40   H2    S    
C17   C26   S    
H32   N4    S    
Cu1   O1    S    
C35   C37   A    
H29   N3    S    
C1    O1    A    
C43   H8    S    
C49   H43   S    
C11   C14   A    
C8    N7    A    
C27   C29   S    
C1    C31   S    
C33   C36   A    
Cu1   O11   S    
H28   N2    S    
C18   C19   A    
C32   C39   A    
C7    N1    A    
C10   N5    S    
C6    C15   A    
C2    N2    S    
C34   C39   A    
C40   H56   S    
C19   C20   A    
C12   O7    A    
C50   H47   S    
C47   H38   S    
Cu1   O8    S    
C46   H14   S    
C3    N8    S    
Cu2   O10   S    
C34   C55   A    
C12   C32   S    
H53   N8    S    
H18   N11   S    
H36   N6    S    
C41   H4    S    
C44   C46   S    
C43   O2    S    
Cu2   O5    S    
C21   O2    S    
C13   C19   A    
C8    H23   S    
C9    N1    A    
H54   N9    S    
C6    O4    S    
C2    C54   A    
C49   H44   S    
C5    C7    A    
C6    C8    A    
C3    C45   A    
H17   N10   S    
C4    N9    S    
C47   O3    S    
C2    C4    A    
C43   C44   S    
C29   C30   T    
C42   H7    S    
C37   N10   S    
C3    C56   A    
C47   C48   S    
H55   N9    S    
C52   H52   S    
C39   H1    S    
C50   C51   S    
C5    C14   A    
C44   H11   S    
C17   O11   A    
C32   C37   A    
C35   N13   S    
C9    C11   A    
C46   H13   S    
C50   O4    S    
Cu2   O9    S    
C51   H49   S    
C15   C24   A    
H21   N12   S    
C20   C22   A    
C12   O5    A    
C13   C15   A    
Cu2   N1    S    
H33   N5    S    
C44   H10   S    
C1    O6    A    
H20   N12   S    
C42   H6    S    
H19   N11   S    
C23   C54   A    
C16   C25   S    
C48   H41   S    
C54   C55   A    
C48   C49   S    
C24   N4    S    
H27   N2    S    
C16   O10   A    
C10   C13   A    
C17   O9    A    
H22   N13   S    
H37   N6    S    
C25   C27   T    
C23   C38   A    
C48   H40   S    
C26   C28   T    
C47   H39   S    
C31   C38   A    
C14   C22   A    
C28   C30   S    
C51   C52   S    
C49   H42   S    
C20   O12   S    
Cu1   Cu2   S    
C52   H51   S    
C51   H48   S    
C7    H34   S    
C40   O12   S    
C33   N12   S    
C56   N14   S    
H24   N13   S    
Cu1   N7    S    
C5    O3    S    
H31   N4    S    
C52   H50   S    
C34   C53   A    
C43   H9    S    
C21   C24   A    
C9    N6    S    
C31   C36   A    
Cu1   O7    S    
C40   C41   S    
H35   N5    S    
H30   N3    S    
H45   N8    S    
C42   H5    S    
C46   H15   S    
C16   O8    A    
