data_mof_unit_43823.cif
_audit_creation_date              2012-12-11T15:39:11-0500
_audit_creation_method            fapswitch 2.2
_symmetry_space_group_name_H-M    P1
_symmetry_Int_Tables_number       1
_space_group_crystal_system       triclinic
_cell_length_a                    17.368575
_cell_length_b                    24.260166
_cell_length_c                    15.048328
_cell_angle_alpha                 89.651181
_cell_angle_beta                  126.105115
_cell_angle_gamma                 90.576749
_cell_volume                      5122.73443152

loop_
_atom_site_label
_atom_site_type_symbol
_atom_type_description
_atom_site_fract_x
_atom_site_fract_y
_atom_site_fract_z
_atom_type_partial_charge
C1    C     C_R   0.357256 0.346366 0.908536 -0.142284
C2    C     C_R   0.689550 0.375107 0.092862 -0.147925
C3    C     C_R   0.859086 0.845409 0.911506 -0.134537
C4    C     C_R   0.189819 0.875347 0.093329 -0.145627
C5    C     C_R   0.378295 0.682088 0.995944 0.071822
C6    C     C_R   0.675091 0.655669 0.004509 0.071674
C7    C     C_R   0.881653 0.182413 0.999803 0.070456
C8    C     C_R   0.187160 0.146488 0.007923 0.062184
C9    C     C_R   0.454360 0.499181 0.278000 0.058042
C10   C     C_R   0.444543 0.498663 0.640040 0.079178
C11   C     C_R   0.952266 0.998765 0.275219 0.055545
C12   C     C_R   0.946252 0.000191 0.640850 0.077301
C13   C     C_R   0.173909 0.500083 0.723815 0.077983
C14   C     C_R   0.802765 0.500411 0.368621 0.079115
C15   C     C_R   0.674110 0.999521 0.724474 0.069508
C16   C     C_R   0.302400 0.999963 0.369289 0.081032
C17   C     C_R   0.019787 0.550694 0.630885 0.166561
C18   C     C_R   0.925665 0.550471 0.540406 0.167593
C19   C     C_R   0.519863 0.049248 0.632346 0.171840
C20   C     C_R   0.425299 0.049152 0.542876 0.162928
C21   C     C_R   0.070988 0.501197 0.669401 0.030644
C22   C     C_R   0.880719 0.501020 0.486108 0.030228
C23   C     C_R   0.571181 0.999954 0.669943 0.031355
C24   C     C_R   0.380420 0.999986 0.487081 0.032179
C25   C     C_R   0.018145 0.451651 0.635725 -0.206361
C26   C     C_R   0.922878 0.451506 0.543508 -0.207128
C27   C     C_R   0.518596 0.950275 0.635162 -0.204307
C28   C     C_R   0.423168 0.950233 0.543102 -0.208184
C29   C     C_3   0.935462 0.604485 0.499436 -0.527792
C30   C     C_3   0.038242 0.605052 0.598241 -0.525068
C31   C     C_3   0.434878 0.103555 0.503303 -0.531917
C32   C     C_3   0.538444 0.103375 0.599504 -0.527929
C33   C     C_R   0.351449 0.783503 0.967269 0.088303
C34   C     C_R   0.821330 0.717064 0.106744 0.075036
C35   C     C_R   0.856207 0.283906 0.973283 0.086334
C36   C     C_R   0.356406 0.192041 0.108904 0.088131
C37   C     C_R   0.807220 0.329748 0.975052 0.086514
C38   C     C_R   0.418529 0.223616 0.096493 0.104389
C39   C     C_R   0.308155 0.829783 0.977298 0.081145
C40   C     C_R   0.900306 0.734424 0.110956 0.125763
C41   C     C_R   0.742260 0.319866 0.001053 0.068576
C42   C     C_R   0.376990 0.253114 0.997717 0.070237
C43   C     C_R   0.242041 0.820034 0.001497 0.065033
C44   C     C_R   0.881118 0.753863 0.011483 0.054694
C45   C     C_R   0.440909 0.651795 0.089246 -0.175183
C46   C     C_R   0.589132 0.636592 0.910189 -0.129854
C47   C     C_R   0.942321 0.151303 0.091382 -0.156042
C48   C     C_R   0.097820 0.129686 0.912481 -0.131035
C49   C     C_R   0.723881 0.267400 0.021920 -0.225288
C50   C     C_R   0.297997 0.230195 0.901662 -0.210378
C51   C     C_R   0.217827 0.767241 0.013915 -0.197476
C52   C     C_R   0.810076 0.727125 0.914259 -0.210390
C53   C     C_R   0.262255 0.723030 0.008289 -0.223034
C54   C     C_R   0.746285 0.692502 0.914726 -0.191798
C55   C     C_R   0.772663 0.223675 0.023222 -0.215913
C56   C     C_R   0.245014 0.189983 0.908515 -0.201961
C57   C     C_R   0.332011 0.731103 0.991727 0.067343
C58   C     C_R   0.746918 0.690004 0.008676 0.059017
C59   C     C_R   0.837967 0.231612 0.999579 0.065322
C60   C     C_R   0.264949 0.175820 0.011016 0.067193
C61   C     C_R   0.358225 0.526671 0.443337 0.102816
C62   C     C_R   0.366373 0.531302 0.355297 0.089504
C63   C     C_R   0.852810 0.013243 0.437846 0.090154
C64   C     C_R   0.853469 0.010863 0.344262 0.082394
C65   C     C_R   0.431559 0.496000 0.355854 0.065352
C66   C     C_R   0.427183 0.494907 0.534999 0.062112
C67   C     C_R   0.940001 0.997292 0.360899 0.062171
C68   C     C_R   0.937818 0.999484 0.540998 0.063095
C69   C     C_R   0.486456 0.458242 0.440758 -0.207376
C70   C     C_R   0.486562 0.458998 0.530778 -0.219569
C71   C     C_R   0.021572 0.983465 0.463784 -0.206515
C72   C     C_R   0.019986 0.983791 0.552983 -0.217211
C73   C     C_R   0.479632 0.453442 0.246210 -0.135381
C74   C     C_R   0.455160 0.453403 0.700334 -0.171555
C75   C     C_R   0.981009 0.953124 0.248028 -0.144865
C76   C     C_R   0.957280 0.954151 0.700230 -0.170834
C77   C     C_R   0.232238 0.545860 0.753326 -0.157969
C78   C     C_R   0.753945 0.545867 0.304636 -0.155718
C79   C     C_R   0.732209 0.045611 0.753917 -0.158243
C80   C     C_R   0.253689 0.045563 0.305392 -0.163266
C81   C     C_R   0.485984 0.545793 0.254212 -0.147110
C82   C     C_R   0.458115 0.545411 0.699761 -0.129095
C83   C     C_R   0.982363 0.045478 0.250243 -0.126314
C84   C     C_R   0.957661 0.046148 0.700106 -0.142363
C85   C     C_R   0.230475 0.453816 0.749259 -0.122462
C86   C     C_R   0.755500 0.454450 0.304252 -0.136590
C87   C     C_R   0.730846 0.953503 0.749679 -0.119357
C88   C     C_R   0.255174 0.954241 0.304272 -0.137433
C89   C     C_R   0.349557 0.651033 0.906356 -0.145294
C90   C     C_R   0.684279 0.632333 0.094567 -0.158163
C91   C     C_R   0.851296 0.151808 0.908419 -0.155082
C92   C     C_R   0.186342 0.130009 0.096054 -0.148875
C93   C     C_R   0.445913 0.346808 0.090448 -0.153590
C94   C     C_R   0.596379 0.374523 0.908440 -0.123088
C95   C     C_R   0.948072 0.847732 0.093327 -0.170842
C96   C     C_R   0.097223 0.875109 0.909009 -0.137330
C97   C     C_R   0.391545 0.313094 0.999183 0.064152
C98   C     C_R   0.685609 0.361888 0.000938 0.052439
C99   C     C_R   0.894868 0.813148 0.004704 0.064912
C100  C     C_R   0.186515 0.862553 0.001830 0.057292
H1    H     H_    0.323169 0.332658 0.824913 0.085844
H2    H     H_    0.746645 0.366543 0.177830 0.112684
H3    H     H_    0.823325 0.830505 0.828311 0.086270
H4    H     H_    0.246651 0.866654 0.178328 0.106795
H5    H     H_    0.927789 0.601117 0.420859 0.200262
H6    H     H_    0.054810 0.638375 0.657641 0.193556
H7    H     H_    0.424765 0.101404 0.423262 0.208025
H8    H     H_    0.557453 0.136604 0.659972 0.195372
H9    H     H_    0.892781 0.637468 0.501902 0.190142
H10   H     H_    0.087044 0.602855 0.573664 0.198242
H11   H     H_    0.394022 0.135897 0.510444 0.199674
H12   H     H_    0.585394 0.100261 0.572159 0.196488
H13   H     H_    0.669995 0.260295 0.035535 0.144195
H14   H     H_    0.269774 0.247505 0.821631 0.122740
H15   H     H_    0.163632 0.760310 0.027465 0.135425
H16   H     H_    0.798147 0.736795 0.836758 0.122982
H17   H     H_    0.241925 0.681943 0.016510 0.146531
H18   H     H_    0.692338 0.671538 0.839263 0.124865
H19   H     H_    0.758110 0.183007 0.040626 0.146799
H20   H     H_    0.182012 0.175765 0.831583 0.125054
H21   H     H_    0.537524 0.431533 0.443602 0.131439
H22   H     H_    0.537300 0.433199 0.600152 0.136004
H23   H     H_    0.087444 0.972944 0.475168 0.139650
H24   H     H_    0.084053 0.972922 0.632691 0.141438
H25   H     H_    0.483329 0.666505 0.173174 0.098019
H26   H     H_    0.558239 0.646727 0.825477 0.086062
H27   H     H_    0.984092 0.164976 0.176013 0.093704
H28   H     H_    0.070715 0.135579 0.827787 0.090809
H29   H     H_    0.468917 0.410595 0.256552 0.097536
H30   H     H_    0.438195 0.411098 0.672321 0.094639
H31   H     H_    0.975099 0.910462 0.264461 0.100421
H32   H     H_    0.943276 0.911913 0.671837 0.095624
H33   H     H_    0.213844 0.588172 0.750677 0.111109
H34   H     H_    0.759577 0.587444 0.333101 0.100715
H35   H     H_    0.713930 0.087943 0.751882 0.113776
H36   H     H_    0.259115 0.086946 0.334498 0.099579
H37   H     H_    0.483957 0.588165 0.274049 0.114592
H38   H     H_    0.448605 0.587835 0.673163 0.079066
H39   H     H_    0.978284 0.087730 0.269278 0.091555
H40   H     H_    0.944952 0.088466 0.672174 0.085612
H41   H     H_    0.209289 0.411005 0.739048 0.093093
H42   H     H_    0.764860 0.412247 0.331971 0.085534
H43   H     H_    0.710200 0.910599 0.739794 0.093495
H44   H     H_    0.264141 0.911982 0.331570 0.086468
H45   H     H_    0.307238 0.664536 0.821580 0.085659
H46   H     H_    0.743749 0.635008 0.180232 0.102376
H47   H     H_    0.809029 0.166090 0.824127 0.089265
H48   H     H_    0.235955 0.136427 0.182062 0.127307
H49   H     H_    0.491026 0.334267 0.175191 0.101579
H50   H     H_    0.566869 0.364646 0.824112 0.089576
H51   H     H_    0.995102 0.836479 0.178669 0.106876
H52   H     H_    0.068617 0.865626 0.824760 0.094912
H53   H     H_    0.052425 0.412402 0.669681 0.127542
H54   H     H_    0.887930 0.412105 0.510441 0.125017
H55   H     H_    0.553113 0.910988 0.668083 0.127269
H56   H     H_    0.388538 0.910861 0.509073 0.125206
N1    N     N_R   0.394180 0.396910 0.943210 -0.037761
N2    N     N_R   0.605820 0.396910 0.056790 -0.041879
N3    N     N_R   0.894180 0.896910 0.943210 -0.038807
N4    N     N_R   0.105820 0.896910 0.056790 -0.039458
N5    N     N_R   0.450950 0.603070 0.056740 -0.033854
N6    N     N_R   0.549050 0.603070 0.943260 -0.036517
N7    N     N_R   0.950950 0.103070 0.056740 -0.034937
N8    N     N_R   0.049050 0.103070 0.943260 -0.038150
N9    N     N_R   0.525650 0.471570 0.206150 -0.038865
N10   N     N_R   0.474350 0.471570 0.793850 -0.033762
N11   N     N_R   0.025650 0.971570 0.206150 -0.039041
N12   N     N_R   0.974350 0.971570 0.793850 -0.034106
N13   N     N_R   0.319480 0.528420 0.793810 -0.038730
N14   N     N_R   0.680520 0.528420 0.206190 -0.037349
N15   N     N_R   0.819480 0.028420 0.793810 -0.039001
N16   N     N_R   0.180520 0.028420 0.206190 -0.037691
N17   N     N_R   0.525640 0.528390 0.206120 -0.037791
N18   N     N_R   0.474360 0.528390 0.793880 -0.036813
N19   N     N_R   0.025640 0.028390 0.206120 -0.039666
N20   N     N_R   0.974360 0.028390 0.793880 -0.035316
N21   N     N_R   0.319490 0.471590 0.793840 -0.039914
N22   N     N_R   0.680510 0.471590 0.206160 -0.037149
N23   N     N_R   0.819490 0.971590 0.793840 -0.039591
N24   N     N_R   0.180510 0.971590 0.206160 -0.036635
N25   N     N_R   0.394130 0.603080 0.943110 -0.035728
N26   N     N_R   0.605870 0.603080 0.056890 -0.036432
N27   N     N_R   0.894130 0.103080 0.943110 -0.035435
N28   N     N_R   0.105870 0.103080 0.056890 -0.039541
N29   N     N_R   0.450990 0.396900 0.056840 -0.038174
N30   N     N_R   0.549010 0.396900 0.943160 -0.041188
N31   N     N_R   0.950990 0.896900 0.056840 -0.035678
N32   N     N_R   0.049010 0.896900 0.943160 -0.039056
Ni1   Ni    Ni4+2 0.434860 0.434850 0.869700 0.205093
Ni2   Ni    Ni4+2 0.565140 0.434850 0.130300 0.205081
Ni3   Ni    Ni4+2 0.934860 0.934850 0.869700 0.206404
Ni4   Ni    Ni4+2 0.065140 0.934850 0.130300 0.205835
Ni5   Ni    Ni4+2 0.565130 0.565140 0.130240 0.206228
Ni6   Ni    Ni4+2 0.434870 0.565140 0.869760 0.207756
Ni7   Ni    Ni4+2 0.065130 0.065140 0.130240 0.206408
Ni8   Ni    Ni4+2 0.934870 0.065140 0.869760 0.207112
C101  C     C_3   0.406681 0.788272 0.918151 -0.443749
C102  C     C_3   0.514511 0.784152 0.004215 -0.243005
C103  C     C_3   0.564708 0.790277 0.948796 -0.914395
H57   H     H_    0.538648 0.758496 0.883919 0.260432
H58   H     H_    0.552064 0.831887 0.911544 0.257603
H59   H     H_    0.642079 0.784838 0.010063 0.260289
H60   H     H_    0.539754 0.817232 0.066603 0.188806
H61   H     H_    0.533344 0.743644 0.046633 0.205213
H62   H     H_    0.382021 0.755539 0.855341 0.184279
H63   H     H_    0.390645 0.827324 0.872042 0.199551
C104  C     C_3   0.813121 0.735272 0.197980 -0.484816
C105  C     C_3   0.827215 0.798142 0.218669 -0.213975
C106  C     C_3   0.792688 0.817687 0.285852 -0.953678
H64   H     H_    0.714992 0.809904 0.240379 0.258082
H65   H     H_    0.831437 0.795858 0.366126 0.264228
H66   H     H_    0.806191 0.862684 0.301402 0.252229
H67   H     H_    0.903245 0.809802 0.264611 0.182527
H68   H     H_    0.788239 0.820988 0.139544 0.200069
H69   H     H_    0.740976 0.726298 0.174993 0.209711
H70   H     H_    0.865867 0.712861 0.275308 0.186232
C107  C     C_3   0.927514 0.289820 0.946046 -0.447596
C108  C     C_3   0.029110 0.297530 0.050676 -0.230299
C109  C     C_3   0.099636 0.307548 0.022886 -0.933428
H71   H     H_    0.103771 0.270544 0.982747 0.265775
H72   H     H_    0.077641 0.343581 0.967134 0.264373
H73   H     H_    0.171360 0.316418 0.099423 0.244639
H74   H     H_    0.031906 0.333320 0.098271 0.189765
H75   H     H_    0.050899 0.260173 0.103269 0.198419
H76   H     H_    0.924825 0.253034 0.900741 0.189979
H77   H     H_    0.908993 0.324735 0.889126 0.194978
C110  C     C_3   0.383968 0.186374 0.225018 -0.454881
C111  C     C_3   0.334305 0.231647 0.245143 -0.226339
C112  C     C_3   0.349083 0.224813 0.354799 -0.967931
H78   H     H_    0.321526 0.261620 0.370900 0.252514
H79   H     H_    0.308709 0.188260 0.351467 0.253196
H80   H     H_    0.425987 0.220412 0.422872 0.276111
H81   H     H_    0.363631 0.272473 0.244305 0.191821
H82   H     H_    0.256703 0.232131 0.178695 0.206339
H83   H     H_    0.374740 0.143555 0.242439 0.177726
H84   H     H_    0.461037 0.192455 0.289297 0.183611
C113  C     C_3   0.823205 0.388072 0.950878 -0.432997
C114  C     C_3   0.755896 0.401014 0.827381 -0.250396
C115  C     C_3   0.772094 0.459418 0.803070 -0.909385
H85   H     H_    0.758403 0.489986 0.846839 0.266298
H86   H     H_    0.846418 0.464426 0.829294 0.260362
H87   H     H_    0.722543 0.467497 0.713322 0.248682
H88   H     H_    0.766809 0.371408 0.779834 0.187298
H89   H     H_    0.680764 0.397112 0.798319 0.194259
H90   H     H_    0.811677 0.418454 0.996883 0.195519
H91   H     H_    0.898435 0.394363 0.981457 0.192599
C116  C     C_3   0.525620 0.225214 0.187912 -0.460170
C117  C     C_3   0.589334 0.237211 0.150299 -0.230060
C118  C     C_3   0.694411 0.235772 0.248595 -0.964963
H92   H     H_    0.710151 0.269120 0.307521 0.259358
H93   H     H_    0.712062 0.195430 0.291401 0.260390
H94   H     H_    0.740671 0.241927 0.221093 0.254451
H95   H     H_    0.575644 0.205682 0.089261 0.196165
H96   H     H_    0.574623 0.278294 0.111231 0.203453
H97   H     H_    0.542011 0.254190 0.253822 0.181624
H98   H     H_    0.546470 0.183392 0.225393 0.194271
C119  C     C_3   0.335993 0.888439 0.970337 -0.430674
C120  C     C_3   0.268588 0.912900 0.854465 -0.253773
C121  C     C_3   0.305395 0.968757 0.846476 -0.914261
H99   H     H_    0.376992 0.964384 0.864627 0.261087
H100  H     H_    0.256185 0.985529 0.762046 0.244133
H101  H     H_    0.309870 0.998336 0.905470 0.266680
H102  H     H_    0.261337 0.884749 0.791987 0.188314
H103  H     H_    0.196714 0.918602 0.834542 0.202440
H104  H     H_    0.336009 0.915067 0.030228 0.191555
H105  H     H_    0.410628 0.889727 0.996558 0.194076
C122  C     C_3   0.999842 0.729697 0.218210 -0.448294
C123  C     C_3   0.081314 0.729894 0.205330 -0.238433
C124  C     C_3   0.177532 0.730401 0.318194 -0.962242
H106  H     H_    0.181535 0.764864 0.369089 0.259093
H107  H     H_    0.188702 0.690746 0.361459 0.263152
H108  H     H_    0.235388 0.736758 0.308609 0.262523
H109  H     H_    0.075885 0.692634 0.159237 0.195825
H110  H     H_    0.078210 0.766667 0.159269 0.197944
H111  H     H_    0.012724 0.762157 0.276784 0.181743
H112  H     H_    0.003405 0.689797 0.257302 0.192428
C125  C     C_3   0.276412 0.552407 0.439714 -0.464587
C126  C     C_3   0.211254 0.507706 0.436037 -0.222022
C127  C     C_3   0.134826 0.533026 0.442751 -0.926385
H113  H     H_    0.169239 0.556064 0.521045 0.260958
H114  H     H_    0.089417 0.561460 0.372543 0.257645
H115  H     H_    0.089106 0.499963 0.440702 0.257219
H116  H     H_    0.176329 0.484001 0.358135 0.191401
H117  H     H_    0.253007 0.478499 0.505707 0.202936
H118  H     H_    0.304420 0.579713 0.511363 0.184630
H119  H     H_    0.230797 0.579156 0.367442 0.194960
C128  C     C_3   0.316347 0.577484 0.271852 -0.439454
C129  C     C_3   0.360525 0.633083 0.329967 -0.248086
C130  C     C_3   0.333759 0.679222 0.248460 -0.957848
H120  H     H_    0.365540 0.671023 0.204442 0.267640
H121  H     H_    0.255061 0.682011 0.189119 0.271921
H122  H     H_    0.362924 0.719039 0.292615 0.251077
H123  H     H_    0.336794 0.644179 0.381667 0.198273
H124  H     H_    0.439595 0.630224 0.385050 0.193766
H125  H     H_    0.321508 0.572599 0.202460 0.200118
H126  H     H_    0.238488 0.576494 0.231358 0.178473
C131  C     C_3   0.764615 0.029772 0.430129 -0.451846
C132  C     C_3   0.712409 0.979209 0.433177 -0.235378
C133  C     C_3   0.627942 0.996282 0.433049 -0.908996
H127  H     H_    0.652715 0.022023 0.506289 0.264597
H128  H     H_    0.575861 0.019965 0.357353 0.255911
H129  H     H_    0.591742 0.958993 0.435718 0.251020
H130  H     H_    0.686247 0.952757 0.360338 0.188512
H131  H     H_    0.761597 0.954427 0.508257 0.202274
H132  H     H_    0.785408 0.058085 0.498717 0.188499
H133  H     H_    0.714312 0.053836 0.354686 0.193953
C134  C     C_3   0.763541 0.018721 0.228252 -0.438244
C135  C     C_3   0.749224 0.079323 0.192515 -0.238308
C136  C     C_3   0.654257 0.087147 0.080286 -0.922059
H134  H     H_    0.651374 0.061602 0.017346 0.265244
H135  H     H_    0.594217 0.075420 0.084010 0.262078
H136  H     H_    0.646151 0.131007 0.055321 0.242601
H137  H     H_    0.750860 0.105748 0.253528 0.190932
H138  H     H_    0.807530 0.093193 0.187307 0.196876
H139  H     H_    0.766818 0.993498 0.169143 0.194072
H140  H     H_    0.700445 0.002546 0.221901 0.193095

loop_
_geom_bond_atom_site_label_1
_geom_bond_atom_site_label_2
_ccdc_geom_bond_type
C49   H13   S    
C55   C59   A    
C6    C58   S    
C19   C20   A    
C29   H5    S    
N29   Ni2   S    
C55   H19   S    
C122  H111  S    
C9    C73   A    
N14   N22   A    
N32   Ni3   S    
C29   H9    S    
C44   C99   S    
C95   C99   A    
C86   N22   A    
C12   C84   A    
N13   N21   A    
C45   N5    A    
C101  H62   S    
C82   N18   A    
C52   C54   A    
C8    C92   A    
C129  H124  S    
C107  H77   S    
C10   C66   S    
C103  H57   S    
C72   H24   S    
C17   C30   S    
C101  H63   S    
C7    C59   S    
C19   C32   S    
C41   C49   A    
C111  C112  S    
N10   N18   A    
N7    N27   A    
C119  H104  S    
C42   C97   S    
C10   C82   A    
C17   C21   A    
C16   C80   A    
C89   N25   A    
C19   C23   A    
C112  H78   S    
C110  C111  S    
C68   C72   A    
N9    Ni2   S    
C113  H90   S    
N25   Ni6   S    
C78   H34   S    
N18   Ni6   S    
C124  H107  S    
C102  H61   S    
C132  C133  S    
C80   N16   A    
C1    H1    S    
C3    H3    S    
C31   H7    S    
C120  H103  S    
C121  H100  S    
N14   Ni5   S    
C48   N8    A    
C34   C104  S    
C94   H50   S    
N28   Ni7   S    
C107  C108  S    
C82   H38   S    
C49   C55   A    
C66   C70   A    
C4    H4    S    
C104  H70   S    
C128  H125  S    
C76   N12   A    
C127  H114  S    
C69   C70   A    
C9    C65   S    
C135  H137  S    
C40   C122  S    
N23   Ni3   S    
C13   C85   A    
C34   C58   A    
C5    C89   A    
C105  H67   S    
C130  H122  S    
C91   H47   S    
C108  H74   S    
C89   H45   S    
C12   C68   S    
C118  H92   S    
C71   H23   S    
N1    N29   A    
C112  H80   S    
N2    Ni2   S    
C2    H2    S    
C96   H52   S    
C78   N14   A    
C119  C120  S    
N3    N31   A    
C15   C79   A    
C103  H59   S    
C33   C101  S    
C67   C71   A    
C116  H98   S    
C44   C52   A    
C125  C126  S    
C3    N3    A    
N15   N23   A    
C35   C107  S    
C131  H132  S    
C106  H64   S    
C136  H135  S    
C14   C86   A    
C73   N9    A    
C92   N28   A    
C85   H41   S    
C117  H95   S    
C25   C26   A    
C6    C90   A    
C125  H118  S    
C114  H88   S    
C50   C56   A    
C51   C53   A    
C81   N17   A    
C29   C30   S    
C70   H22   S    
C31   C32   S    
C17   C18   A    
N31   Ni4   S    
N5    Ni5   S    
C115  H86   S    
C18   C29   S    
C111  H81   S    
C42   C50   A    
C36   C110  S    
C134  C135  S    
C134  H139  S    
C123  H110  S    
C93   C97   A    
C103  H58   S    
N12   N20   A    
C21   C25   A    
C63   C68   A    
C118  H94   S    
C18   C22   A    
C61   C125  S    
C24   C28   A    
C122  C123  S    
N8    Ni8   S    
C47   H27   S    
C126  H116  S    
N10   Ni1   S    
C14   C22   S    
C54   H18   S    
C120  C121  S    
C71   C72   A    
C11   C75   A    
C109  H73   S    
C76   H32   S    
C96   C100  A    
C132  H130  S    
C37   C41   A    
C61   C62   A    
C133  H129  S    
C63   C64   A    
C3    C99   A    
C40   C44   A    
C31   H11   S    
C126  C127  S    
C107  H76   S    
C91   N27   A    
C92   H48   S    
C93   H49   S    
C115  H85   S    
C83   H39   S    
C95   N31   A    
C81   H37   S    
C110  H84   S    
C30   H10   S    
N11   N19   A    
N22   Ni2   S    
C94   C98   A    
C106  H66   S    
C35   C59   A    
C79   N15   A    
C105  C106  S    
C127  H113  S    
C47   N7    A    
N16   N24   A    
C124  H106  S    
N2    N30   A    
C75   H31   S    
C88   N24   A    
C52   H16   S    
C27   H55   S    
C73   H29   S    
C122  H112  S    
C63   C131  S    
C25   H53   S    
C104  C105  S    
N3    Ni3   S    
C43   C100  S    
N4    Ni4   S    
C109  H71   S    
C53   C57   A    
C11   C83   A    
C5    C45   A    
C51   H15   S    
C56   C60   A    
C7    C47   A    
C133  H127  S    
C8    C48   A    
C116  H97   S    
C48   H28   S    
C128  C129  S    
N7    Ni7   S    
C2    N2    A    
C7    C91   A    
C104  H69   S    
N26   Ni5   S    
C129  H123  S    
C135  H138  S    
C12   C76   A    
N17   Ni5   S    
C95   H51   S    
C74   H30   S    
C74   N10   A    
C117  C118  S    
C86   H42   S    
C114  C115  S    
C105  H68   S    
C32   H12   S    
C119  H105  S    
N15   Ni8   S    
C108  H75   S    
N13   Ni6   S    
C79   H35   S    
C80   H36   S    
C5    C57   S    
N30   Ni1   S    
C36   C38   A    
C112  H79   S    
C8    C60   S    
C43   C51   A    
C15   C87   A    
C65   C69   A    
C113  H91   S    
C53   H17   S    
C123  C124  S    
C85   N21   A    
C22   C26   A    
C124  H108  S    
C102  H60   S    
C16   C88   A    
N16   Ni7   S    
C50   H14   S    
C84   N20   A    
N19   Ni7   S    
C93   N29   A    
C83   N19   A    
C131  C132  S    
C96   N32   A    
C120  H102  S    
C121  H101  S    
C136  H134  S    
N11   Ni4   S    
C33   C39   A    
N12   Ni3   S    
C34   C40   A    
C35   C37   A    
N6    N26   A    
C117  H96   S    
C94   N30   A    
N9    N17   A    
C114  H89   S    
C128  H126  S    
C127  H115  S    
C64   C134  S    
C62   C128  S    
C39   C119  S    
C106  H65   S    
C61   C66   A    
C90   N26   A    
C45   H25   S    
C123  H109  S    
C102  C103  S    
C23   C27   A    
C111  H82   S    
C15   C23   S    
C16   C24   S    
C126  H117  S    
C30   H6    S    
N5    N25   A    
C56   H20   S    
C101  C102  S    
C77   H33   S    
C11   C67   S    
N27   Ni8   S    
C13   C77   A    
C118  H93   S    
N21   Ni1   S    
C13   C21   S    
C64   C67   A    
C20   C24   A    
N24   Ni4   S    
C1    C97   A    
C39   C43   A    
N8    N28   A    
C109  H72   S    
C37   C113  S    
C69   H21   S    
N6    Ni6   S    
C132  H131  S    
N20   Ni8   S    
C133  H128  S    
C84   H40   S    
C4    C100  A    
C46   N6    A    
C26   H54   S    
N4    N32   A    
C121  H99   S    
C131  H133  S    
C135  C136  S    
C130  H120  S    
C54   C58   A    
C136  H136  S    
C33   C57   A    
C6    C46   A    
C62   C65   A    
C46   H26   S    
C36   C60   A    
C116  C117  S    
C110  H83   S    
C125  H119  S    
C129  C130  S    
C1    N1    A    
C90   H46   S    
C10   C74   A    
C108  C109  S    
C4    N4    A    
C38   C116  S    
C130  H121  S    
C115  H87   S    
C14   C78   A    
N1    Ni1   S    
C87   N23   A    
C38   C42   A    
C2    C98   A    
C77   N13   A    
C32   H8    S    
C27   C28   A    
C28   H56   S    
C41   C98   S    
C75   N11   A    
C134  H140  S    
C87   H43   S    
C113  C114  S    
C88   H44   S    
C9    C81   A    
C20   C31   S    
