data_mof_unit_18391.cif
_audit_creation_date              2012-12-10T18:31:53-0500
_audit_creation_method            fapswitch 2.2
_symmetry_space_group_name_H-M    P1
_symmetry_Int_Tables_number       1
_space_group_crystal_system       triclinic
_cell_length_a                    10.636668
_cell_length_b                    14.983098
_cell_length_c                    15.216178
_cell_angle_alpha                 82.52485
_cell_angle_beta                  89.767459
_cell_angle_gamma                 103.935554
_cell_volume                      2332.05007865

loop_
_atom_site_label
_atom_site_type_symbol
_atom_type_description
_atom_site_fract_x
_atom_site_fract_y
_atom_site_fract_z
_atom_type_partial_charge
C1    C     C_R   0.485973 0.442240 0.662940 0.844528
C2    C     C_3   0.120293 0.496689 0.504130 0.143654
C3    C     C_3   0.096591 0.570081 0.428236 -0.470083
C4    C     C_3   0.077946 0.522064 0.595044 0.026255
C5    C     C_R   0.503363 0.409065 0.755996 -0.063868
C6    C     C_R   0.561454 0.593417 0.244404 -0.129856
C7    C     C_R   0.516318 0.287193 0.874561 -0.193468
C8    C     C_R   0.487564 0.314598 0.787166 -0.204449
C9    C     C_R   0.550053 0.475181 0.812225 -0.258822
C10   C     C_R   0.584422 0.449447 0.898551 0.081495
C11   C     C_R   0.562668 0.354081 0.930997 0.144673
C12   C     C_R   0.741819 0.499762 0.501035 0.837313
C13   C     C_R   0.630449 0.516603 0.955191 0.034212
C14   C     C_R   0.625665 0.487830 0.047236 0.060244
C15   C     C_R   0.622839 0.392787 0.078171 0.137550
C16   C     C_R   0.589150 0.327099 0.018895 -0.301864
C17   C     C_R   0.678908 0.611675 0.923297 -0.209319
C18   C     C_R   0.703074 0.677713 0.981298 -0.246177
C19   C     C_R   0.666932 0.651819 0.071549 0.093277
C20   C     C_R   0.621547 0.555656 0.103090 0.073454
C21   C     C_R   0.669156 0.718987 0.130073 0.166569
C22   C     C_R   0.618690 0.687573 0.217450 -0.197721
C23   C     C_R   0.521646 0.558051 0.337090 0.882184
C24   C     C_R   0.557331 0.529754 0.185407 -0.258692
C25   C     C_R   0.646993 0.830267 0.661565 -0.325953
C26   C     C_R   0.633707 0.746077 0.629873 0.017460
C27   C     C_R   0.527545 0.797739 0.503587 -0.090955
C28   C     C_R   0.523059 0.880213 0.537214 0.001324
C29   C     C_R   0.591809 0.897598 0.615544 0.190702
C30   C     C_R   0.458549 0.947125 0.494983 0.008596
C31   C     C_R   0.487999 0.037431 0.523098 0.050787
C32   C     C_R   0.558602 0.051630 0.600714 -0.225628
C33   C     C_R   0.606255 0.982101 0.647112 -0.216603
C34   C     C_R   0.257762 0.498947 0.501057 0.820340
C35   C     C_R   0.363540 0.928614 0.428473 0.151593
C36   C     C_R   0.321759 0.002046 0.381585 -0.237858
C37   C     C_R   0.360995 0.091554 0.402759 0.130909
C38   C     C_R   0.442576 0.110378 0.474585 -0.003399
C39   C     C_R   0.313692 0.161982 0.354779 -0.310870
C40   C     C_R   0.347083 0.250462 0.378748 0.006857
C41   C     C_R   0.475672 0.202648 0.494116 -0.057625
C42   C     C_3   0.894855 0.400428 0.490128 -0.385030
C43   C     C_3   0.037808 0.400684 0.486756 -0.376954
C44   C     C_3   0.952668 0.570285 0.426699 -0.412635
C45   C     C_3   0.932782 0.523211 0.593201 -0.395612
C46   C     C_3   0.877948 0.498582 0.502831 0.142329
H1    H     H_    0.851845 0.379331 0.427101 0.183634
H2    H     H_    0.132030 0.595411 0.597185 0.122634
H3    H     H_    0.941566 0.641073 0.433735 0.181790
H4    H     H_    0.153340 0.640084 0.438437 0.186227
H5    H     H_    0.582131 0.254326 0.041532 0.142652
H6    H     H_    0.499098 0.459949 0.202907 0.158625
H7    H     H_    0.622219 0.735608 0.265033 0.173052
H8    H     H_    0.741078 0.749385 0.953245 0.136588
H9    H     H_    0.501938 0.213889 0.898094 0.133295
H10   H     H_    0.453766 0.262229 0.744150 0.153466
H11   H     H_    0.556172 0.547205 0.788528 0.156039
H12   H     H_    0.843977 0.347801 0.545342 0.170289
H13   H     H_    0.701702 0.636105 0.853710 0.134525
H14   H     H_    0.658107 0.995622 0.707087 0.138729
H15   H     H_    0.541076 0.225224 0.544988 0.120280
H16   H     H_    0.309964 0.305353 0.342976 0.128266
H17   H     H_    0.251787 0.988200 0.330299 0.152401
H18   H     H_    0.697418 0.841905 0.722375 0.137513
H19   H     H_    0.669971 0.691561 0.667081 0.123168
H20   H     H_    0.494937 0.783749 0.439250 0.162927
H21   H     H_    0.057131 0.343761 0.534965 0.185840
H22   H     H_    0.575496 0.115217 0.629511 0.132755
H23   H     H_    0.250103 0.148445 0.300037 0.140730
H24   H     H_    0.063799 0.386357 0.419845 0.171483
H25   H     H_    0.913366 0.552847 0.361655 0.172291
H26   H     H_    0.128720 0.555664 0.362894 0.170599
H27   H     H_    0.923118 0.593679 0.602995 0.151722
H28   H     H_    0.873342 0.474664 0.647362 0.175577
N1    N     N_R   0.573860 0.731700 0.552730 -0.099376
N2    N     N_R   0.426060 0.268290 0.447230 -0.098362
O1    O     O_R   0.462770 0.383110 0.605620 -0.612176
O2    O     O_R   0.510160 0.531900 0.639510 -0.623107
O3    O     O_R   0.661510 0.425600 0.483070 -0.624332
O4    O     O_R   0.708900 0.574390 0.516960 -0.622675
O5    O     O_R   0.489840 0.468100 0.360490 -0.618901
O6    O     O_R   0.537230 0.616890 0.394380 -0.616707
O7    O     O_R   0.291100 0.425610 0.483040 -0.620695
O8    O     O_R   0.338490 0.574400 0.516930 -0.625408
Zn1   Zn    Zn3+2 0.468350 0.400660 0.477370 0.925608
Zn2   Zn    Zn3+2 0.531650 0.599340 0.522630 0.922285
C47   C     C_3   0.673335 0.360351 0.167590 -0.387450
C48   C     C_3   0.810819 0.415727 0.181702 -0.855333
H29   H     H_    0.876355 0.414483 0.125086 0.260447
H30   H     H_    0.812452 0.488732 0.188786 0.261305
H31   H     H_    0.847747 0.384408 0.243424 0.236632
H32   H     H_    0.608916 0.361160 0.224384 0.206271
H33   H     H_    0.677197 0.286446 0.171277 0.200509
C49   C     C_3   0.724224 0.822083 0.098123 -0.417979
C50   C     C_3   0.726465 0.888166 0.167136 -0.897368
H34   H     H_    0.626479 0.884377 0.191495 0.257402
H35   H     H_    0.786845 0.871601 0.223442 0.258725
H36   H     H_    0.769544 0.960504 0.136130 0.252427
H37   H     H_    0.825591 0.832172 0.072909 0.204491
H38   H     H_    0.666228 0.843650 0.042303 0.205384
C51   C     C_3   0.285402 0.833098 0.413283 -0.427585
C52   C     C_3   0.317235 0.810049 0.321628 -0.875000
H39   H     H_    0.272081 0.849476 0.269230 0.253345
H40   H     H_    0.423292 0.828099 0.306870 0.251025
H41   H     H_    0.278697 0.734999 0.318161 0.247922
H42   H     H_    0.293847 0.778078 0.467199 0.199348
H43   H     H_    0.180425 0.831763 0.416603 0.202184
C53   C     C_3   0.118222 0.467413 0.680782 -0.376690
C54   C     C_3   0.022908 0.377012 0.720952 -0.863600
H44   H     H_    0.944612 0.392041 0.760737 0.249816
H45   H     H_    0.979100 0.333905 0.670270 0.255191
H46   H     H_    0.074975 0.335669 0.766820 0.247001
H47   H     H_    0.213098 0.451751 0.669029 0.195560
H48   H     H_    0.134602 0.513904 0.733130 0.199901

loop_
_geom_bond_atom_site_label_1
_geom_bond_atom_site_label_2
_ccdc_geom_bond_type
C44   H3    S    
C24   H6    S    
C47   C48   S    
C51   H43   S    
C51   C52   S    
C23   O6    A    
C1    O1    A    
C47   H33   S    
C50   H34   S    
C16   H5    S    
C7    H9    S    
C42   H12   S    
C50   H36   S    
C7    C8    A    
C45   C46   S    
C7    C11   A    
C4    C53   S    
C30   C35   A    
C44   H25   S    
C1    C5    S    
C36   C37   A    
C19   C21   A    
O8    Zn2   S    
C54   H45   S    
C30   C31   A    
C21   C49   S    
C15   C16   A    
C6    C22   A    
C12   O3    A    
C29   C33   A    
C40   H16   S    
C53   C54   S    
C52   H41   S    
C45   H27   S    
C18   C19   A    
C42   C46   S    
C53   H48   S    
C20   C24   A    
O4    Zn2   S    
C13   C14   A    
C19   C20   A    
C41   H15   S    
C36   H17   S    
C9    C10   A    
C32   H22   S    
O2    Zn2   S    
O1    Zn1   S    
C21   C22   A    
C1    O2    A    
C8    H10   S    
C49   C50   S    
C34   O8    A    
C27   N1    A    
C3    H4    S    
C44   C46   S    
C17   C18   A    
C22   H7    S    
C4    C45   S    
C25   C29   A    
C3    C44   S    
C14   C20   A    
C38   C41   A    
C12   C46   S    
C54   H46   S    
C39   C40   A    
C25   C26   A    
O6    Zn2   S    
C40   N2    A    
C45   H28   S    
C35   C36   A    
C53   H47   S    
C2    C4    S    
C5    C9    A    
C37   C38   A    
C11   C16   A    
N1    Zn2   S    
C31   C32   A    
C48   H31   S    
C49   H38   S    
C2    C43   S    
C6    C24   A    
C26   N1    A    
C39   H23   S    
C52   H40   S    
C17   H13   S    
O7    Zn1   S    
C48   H30   S    
C43   H24   S    
C34   O7    A    
O3    Zn1   S    
C15   C47   S    
C4    H2    S    
C51   H42   S    
C28   C29   A    
C23   O5    A    
C26   H19   S    
C35   C51   S    
C10   C13   A    
C5    C8    A    
C50   H35   S    
C33   H14   S    
C31   C38   A    
C13   C17   A    
C32   C33   A    
C28   C30   A    
C2    C3    S    
C37   C39   A    
C27   H20   S    
C54   H44   S    
C41   N2    A    
C2    C34   S    
C49   H37   S    
C6    C23   S    
C12   O4    A    
C3    H26   S    
C9    H11   S    
C42   H1    S    
C52   H39   S    
C10   C11   A    
C18   H8    S    
C48   H29   S    
C43   H21   S    
C42   C43   S    
C27   C28   A    
C14   C15   A    
C47   H32   S    
N2    Zn1   S    
C25   H18   S    
O5    Zn1   S    
