data_mof_unit_13183.cif
_audit_creation_date              2012-12-10T17:08:44-0500
_audit_creation_method            fapswitch 2.2
_symmetry_space_group_name_H-M    P1
_symmetry_Int_Tables_number       1
_space_group_crystal_system       triclinic
_cell_length_a                    27.801969
_cell_length_b                    10.978464
_cell_length_c                    9.922515
_cell_angle_alpha                 111.468298
_cell_angle_beta                  97.463944
_cell_angle_gamma                 92.524244
_cell_volume                      2780.77637879

loop_
_atom_site_label
_atom_site_type_symbol
_atom_type_description
_atom_site_fract_x
_atom_site_fract_y
_atom_site_fract_z
_atom_type_partial_charge
C1    C     C_R   0.495700 0.253666 0.439826 0.780289
C2    C     C_R   0.502796 0.746218 0.560292 0.797606
C3    C     C_R   0.100627 0.492486 0.473634 -0.058999
C4    C     C_R   0.896786 0.506668 0.475828 -0.057725
C5    C     C_R   0.122751 0.374172 0.453214 -0.071229
C6    C     C_R   0.875742 0.628355 0.520179 -0.070516
C7    C     C_R   0.092577 0.255343 0.420293 0.094509
C8    C     C_R   0.906510 0.747987 0.560724 0.088126
C9    C     C_R   0.129712 0.608549 0.494602 -0.015091
C10   C     C_R   0.866724 0.387398 0.432537 -0.016989
C11   C     C_R   0.354728 0.498589 0.500523 -0.091162
C12   C     C_R   0.645095 0.501472 0.493431 -0.106457
C13   C     C_R   0.968398 0.380675 0.435205 0.055965
C14   C     C_R   0.028338 0.616281 0.499336 0.057884
C15   C     C_R   0.977822 0.620938 0.510096 0.004278
C16   C     C_R   0.019858 0.378518 0.444126 0.004264
C17   C     C_R   0.947788 0.502949 0.473772 0.073271
C18   C     C_R   0.049465 0.495546 0.472065 0.072752
C19   C     C_R   0.936550 0.263887 0.385960 -0.216409
C20   C     C_R   0.058564 0.728555 0.513350 -0.212052
C21   C     C_R   0.886866 0.267541 0.385187 -0.151729
C22   C     C_R   0.108196 0.724740 0.512427 -0.144750
C23   C     C_R   0.407684 0.500236 0.501173 0.803310
C24   C     C_R   0.592342 0.500302 0.498244 0.838717
C25   C     C_R   0.042474 0.262113 0.425079 -0.201458
C26   C     C_R   0.956757 0.740915 0.558199 -0.199503
C27   C     C_2   0.491702 0.112329 0.404257 0.121310
C28   C     C_2   0.502770 0.887181 0.596124 0.120249
C29   C     C_2   0.489806 0.068508 0.513014 -0.165928
C30   C     C_2   0.488388 0.929504 0.488230 -0.151609
C31   C     C_2   0.502674 0.523398 0.087930 0.379214
C32   C     C_2   0.488713 0.534639 0.940258 0.371281
C33   C     C_R   0.174492 0.380987 0.468532 0.549327
C34   C     C_R   0.824581 0.623956 0.522971 0.564476
C35   C     C_R   0.179965 0.606204 0.495615 0.591100
C36   C     C_R   0.816706 0.389648 0.435622 0.582560
C37   C     C_R   0.272600 0.422581 0.368227 -0.134446
C38   C     C_R   0.728229 0.519855 0.614646 -0.136983
C39   C     C_R   0.322839 0.423149 0.371740 -0.166266
C40   C     C_R   0.678356 0.518167 0.619672 -0.154394
C41   C     C_R   0.335481 0.574501 0.624952 -0.186557
C42   C     C_R   0.662692 0.486823 0.362269 -0.177024
C43   C     C_R   0.285145 0.571637 0.623341 0.325863
C44   C     C_R   0.712622 0.488971 0.357209 0.318194
C45   C     C_R   0.253379 0.496313 0.493589 0.280499
C46   C     C_R   0.745525 0.505259 0.483850 0.290017
Cu1   Cu    Cu3+1 0.508480 0.521810 0.644910 1.105461
Cu2   Cu    Cu3+1 0.491520 0.478190 0.355090 1.098103
H1    H     H_    0.359281 0.638770 0.722099 0.222439
H2    H     H_    0.637821 0.474050 0.263533 0.223843
H3    H     H_    0.665939 0.529866 0.722267 0.216789
H4    H     H_    0.336771 0.364400 0.273659 0.198795
H5    H     H_    0.753562 0.532415 0.712446 0.169939
H6    H     H_    0.248446 0.364657 0.267813 0.167235
H7    H     H_    0.864179 0.174949 0.346950 0.190797
H8    H     H_    0.129811 0.814490 0.527200 0.187732
H9    H     H_    0.948541 0.167015 0.343015 0.138519
H10   H     H_    0.044948 0.820969 0.521679 0.132736
H11   H     H_    0.021461 0.175089 0.417619 0.134050
H12   H     H_    0.979863 0.831294 0.599650 0.135884
H13   H     H_    0.476209 0.859212 0.377469 0.218785
H14   H     H_    0.490391 0.137754 0.624338 0.215678
N1    N     N_R   0.201400 0.494843 0.486926 -0.449153
N2    N     N_R   0.796910 0.506331 0.480386 -0.450043
N3    N     N_2   0.478780 0.445430 0.137360 -0.072234
N4    N     N_2   0.521220 0.554570 0.862640 -0.059926
O1    O     O_R   0.504520 0.332330 0.577400 -0.584686
O2    O     O_R   0.495480 0.667670 0.422600 -0.582276
O3    O     O_R   0.490210 0.295500 0.332650 -0.511420
O4    O     O_R   0.509790 0.704500 0.667350 -0.518777
O5    O     O_R   0.437420 0.518430 0.622370 -0.555898
O6    O     O_R   0.562580 0.481570 0.377630 -0.560353
O7    O     O_R   0.423110 0.481600 0.377610 -0.558000
O8    O     O_R   0.576890 0.518400 0.622390 -0.539572
O9    O     O_2   0.198294 0.276959 0.469564 -0.539227
O10   O     O_2   0.802084 0.734816 0.568211 -0.539120
O11   O     O_2   0.787842 0.275926 0.394777 -0.507786
O12   O     O_2   0.207424 0.714743 0.505907 -0.507445
Br1   Br    Br    0.524620 0.004592 0.796679 -0.332845
Br2   Br    Br    0.490754 0.996912 0.202805 -0.323407
Br3   Br    Br    0.425120 0.590652 0.920913 -0.402181
Br4   Br    Br    0.553664 0.657819 0.213618 -0.388828
Br5   Br    Br    0.581755 0.488084 0.896998 -0.324389
Br6   Br    Br    0.431650 0.310029 0.009510 -0.298279
Br7   Br    Br    0.261267 0.669192 0.800919 -0.394822
Br8   Br    Br    0.734922 0.470439 0.176551 -0.408499
C47   C     C_3   0.113069 0.121260 0.373205 -0.313781
C48   C     C_3   0.075663 0.998825 0.303677 -0.452622
C49   C     C_3   0.100477 0.874784 0.232707 -0.760343
H15   H     H_    0.115769 0.879157 0.136380 0.264837
H16   H     H_    0.130414 0.864414 0.312164 0.268997
H17   H     H_    0.073440 0.787002 0.195242 0.244466
H18   H     H_    0.056435 0.985407 0.389499 0.214072
H19   H     H_    0.048562 0.010531 0.217524 0.234196
H20   H     H_    0.136400 0.117279 0.289029 0.238951
H21   H     H_    0.135705 0.113106 0.469879 0.241386
C50   C     C_3   0.886055 0.882299 0.604838 -0.308105
C51   C     C_3   0.921864 0.003801 0.634711 -0.453696
C52   C     C_3   0.895566 0.128383 0.669223 -0.761622
H22   H     H_    0.866445 0.118265 0.576839 0.267267
H23   H     H_    0.879082 0.147582 0.770319 0.266822
H24   H     H_    0.921968 0.213701 0.686720 0.244484
H25   H     H_    0.950209 0.017914 0.730538 0.228555
H26   H     H_    0.939560 0.990605 0.536652 0.222637
H27   H     H_    0.857325 0.878300 0.513831 0.248997
H28   H     H_    0.869735 0.899410 0.705958 0.239094

loop_
_geom_bond_atom_site_label_1
_geom_bond_atom_site_label_2
_ccdc_geom_bond_type
C47   C48   S    
C27   C29   D    
C8    C26   A    
C14   C18   A    
Cu2   O3    S    
C50   C51   S    
C21   H7    S    
C19   H9    S    
C32   Br3   S    
C31   Br4   S    
C19   C21   A    
C23   O7    A    
C4    C10   A    
C2    O2    A    
C36   O11   S    
C9    C22   A    
C51   H25   S    
C3    C18   A    
C31   N3    D    
Cu1   O1    S    
C28   Br1   S    
C15   C26   A    
C12   C42   A    
N4    Br5   S    
C29   H14   S    
C33   O9    S    
C7    C47   S    
C31   C32   S    
C5    C33   A    
C47   H20   S    
Cu2   N3    S    
C49   H16   S    
Cu1   N4    S    
C50   H27   S    
C39   H4    S    
C41   C43   A    
C42   C44   A    
Cu2   O6    S    
C44   Br8   S    
C41   H1    S    
C44   C46   A    
C10   C21   A    
C48   H19   S    
C13   C19   A    
C43   Br7   S    
C14   C20   A    
C4    C6    A    
C27   Br2   S    
C5    C7    A    
N3    Br6   S    
C6    C8    A    
C45   N1    S    
C1    O3    A    
C6    C34   A    
C46   N2    S    
C12   C40   A    
C8    C50   S    
Cu1   O4    S    
C29   C30   S    
C3    C9    A    
C23   O5    A    
Cu1   Cu2   S    
C33   N1    A    
C47   H21   S    
C34   N2    A    
Cu2   O2    S    
C49   H17   S    
C11   C39   A    
C43   C45   A    
Cu1   O5    S    
C42   H2    S    
C37   H6    S    
C52   H23   S    
C20   C22   A    
C13   C16   A    
C1    C27   S    
C4    C17   A    
C20   H10   S    
C24   O6    A    
C32   N4    D    
C16   C25   A    
C15   C17   A    
C48   H18   S    
Cu2   O7    S    
Cu1   O8    S    
C3    C5    A    
C2    C28   S    
C13   C17   A    
C40   H3    S    
C12   C24   S    
C35   O12   S    
C7    C25   A    
C52   H22   S    
C22   H8    S    
C28   C30   D    
C37   C39   A    
C36   N2    A    
C38   C40   A    
C24   O8    A    
C38   H5    S    
C26   H12   S    
C51   H26   S    
C11   C23   S    
C1    O1    A    
C10   C36   A    
C11   C41   A    
C38   C46   A    
C52   H24   S    
C48   C49   S    
C16   C18   A    
C51   C52   S    
C30   H13   S    
C9    C35   A    
C14   C15   A    
C35   N1    A    
C25   H11   S    
C49   H15   S    
C2    O4    A    
C37   C45   A    
C34   O10   S    
C50   H28   S    
