data_mof_unit_34387.cif
_audit_creation_date              2012-12-10T18:47:47-0500
_audit_creation_method            fapswitch 2.2
_symmetry_space_group_name_H-M    P1
_symmetry_Int_Tables_number       1
_space_group_crystal_system       triclinic
_cell_length_a                    9.849967
_cell_length_b                    10.71562
_cell_length_c                    15.488508
_cell_angle_alpha                 90.129101
_cell_angle_beta                  67.508493
_cell_angle_gamma                 89.965368
_cell_volume                      1510.43492926

loop_
_atom_site_label
_atom_site_type_symbol
_atom_type_description
_atom_site_fract_x
_atom_site_fract_y
_atom_site_fract_z
_atom_type_partial_charge
C1    C     C_R   0.500006 0.740101 0.500020 0.863881
C2    C     C_R   0.367590 0.936189 0.519966 -0.173012
C3    C     C_R   0.500070 0.127440 0.499856 -0.019590
C4    C     C_R   0.500020 0.872545 0.499959 -0.018469
C5    C     C_R   0.965267 0.428672 0.436940 0.514159
C6    C     C_R   0.034784 0.571466 0.562978 0.517710
C7    C     C_R   0.109781 0.428984 0.437394 -0.305723
C8    C     C_R   0.890268 0.571151 0.562524 -0.299659
C9    C     C_R   0.407985 0.501348 0.676182 0.898175
C10   C     C_R   0.591876 0.501255 0.323810 0.894260
C11   C     C_R   0.348878 0.507141 0.777966 -0.102592
C12   C     C_R   0.500028 0.259895 0.499920 0.865090
C13   C     C_R   0.647484 0.521831 0.223260 -0.097341
C14   C     C_R   0.158256 0.462559 0.929395 0.485846
C15   C     C_R   0.810105 0.630926 0.085100 0.498658
C16   C     C_R   0.205656 0.469193 0.831693 -0.289804
C17   C     C_R   0.778191 0.586548 0.176235 -0.283214
C18   C     C_R   0.442013 0.546538 0.821032 -0.262639
C19   C     C_R   0.551764 0.496919 0.178966 -0.248367
C20   C     C_R   0.398511 0.543111 0.917905 0.023476
C21   C     C_R   0.572202 0.550239 0.092988 0.016501
C22   C     C_R   0.256124 0.496893 0.972331 0.120780
C23   C     C_R   0.317299 0.502178 0.109023 -0.261594
C24   C     C_R   0.706362 0.612918 0.043512 0.109620
C25   C     C_R   0.498089 0.574652 0.960804 0.105934
C26   C     C_R   0.462489 0.541039 0.055033 0.105840
C27   C     C_R   0.632359 0.637529 0.912620 -0.260275
C28   C     C_R   0.215529 0.482577 0.068495 -0.197414
C29   C     C_R   0.733333 0.657709 0.953889 -0.181267
C30   C     C_R   0.632484 0.935929 0.479868 -0.199959
C31   C     C_R   0.367623 0.064048 0.519891 -0.199008
C32   C     C_R   0.632515 0.063795 0.479803 -0.172975
H1    H     H_    0.106255 0.451633 0.112622 0.207342
H2    H     H_    0.264330 0.887569 0.536259 0.179273
H3    H     H_    0.966049 0.399124 0.942508 0.335288
H4    H     H_    0.998107 0.699261 0.076180 0.335557
H5    H     H_    0.277867 0.489337 0.183700 0.153831
H6    H     H_    0.660267 0.676644 0.843879 0.145234
H7    H     H_    0.020431 0.312396 0.332897 0.304537
H8    H     H_    0.979759 0.688124 0.666797 0.302237
H9    H     H_    0.195429 0.372464 0.387731 0.152113
H10   H     H_    0.804669 0.627799 0.612108 0.149240
H11   H     H_    0.833777 0.707302 0.914485 0.204725
H12   H     H_    0.458408 0.437917 0.214785 0.157029
H13   H     H_    0.552273 0.572688 0.776778 0.162945
H14   H     H_    0.851879 0.606732 0.211463 0.151952
H15   H     H_    0.133426 0.439502 0.797566 0.162452
H16   H     H_    0.735725 0.887095 0.463641 0.160867
H17   H     H_    0.264378 0.112874 0.536112 0.161438
H18   H     H_    0.735770 0.112420 0.463516 0.179719
N1    N     N_R   0.142780 0.500030 0.500020 -0.093336
N2    N     N_R   0.857220 0.499970 0.499980 -0.093397
O1    O     O_R   0.385370 0.683250 0.500010 -0.579642
O2    O     O_3   0.938373 0.695436 0.037220 -0.776058
O3    O     O_3   0.930986 0.357569 0.373840 -0.747002
O4    O     O_3   0.069129 0.642744 0.625975 -0.746663
O5    O     O_R   0.614630 0.316750 0.499990 -0.579056
O6    O     O_R   0.614700 0.683220 0.500000 -0.634546
O7    O     O_R   0.385300 0.316780 0.500000 -0.632830
O8    O     O_R   0.319830 0.500020 0.632250 -0.564630
O9    O     O_R   0.680170 0.499980 0.367750 -0.564023
O10   O     O_R   0.549160 0.499990 0.632240 -0.627069
O11   O     O_R   0.450840 0.500010 0.367760 -0.626018
O12   O     O_3   0.020333 0.417574 0.983356 -0.777479
Zn1   Zn    Zn3+2 0.346870 0.500020 0.500000 0.994853
Zn2   Zn    Zn3+2 0.653130 0.499980 0.500000 0.994090

loop_
_geom_bond_atom_site_label_1
_geom_bond_atom_site_label_2
_ccdc_geom_bond_type
C28   H1    S    
C2    C4    A    
C21   C26   A    
O11   Zn1   S    
C11   C18   A    
H3    O12   S    
C6    N1    A    
C27   C29   A    
O1    Zn1   S    
C11   C16   A    
C8    N2    A    
C10   O11   A    
C13   C17   A    
O5    Zn2   S    
C9    O8    A    
C14   O12   S    
C14   C22   A    
C17   H14   S    
C7    N1    A    
C5    N2    A    
H4    O2    S    
C22   C28   A    
C23   C28   A    
C29   H11   S    
C3    C31   A    
C9    C11   S    
C5    O3    S    
C2    H2    S    
C1    O6    A    
C31   H17   S    
C6    C8    A    
C12   O5    A    
C4    C30   A    
C16   H15   S    
C30   H16   S    
C15   C24   A    
C19   C21   A    
C8    H10   S    
O8    Zn1   S    
C32   H18   S    
C18   C20   A    
C7    H9    S    
C3    C32   A    
C14   C16   A    
C23   C26   A    
C10   O9    A    
C25   C27   A    
C20   C25   A    
O10   Zn2   S    
C27   H6    S    
C9    O10   A    
C30   C32   A    
C18   H13   S    
C1    C4    S    
N2    Zn2   S    
C19   H12   S    
C5    C7    A    
C15   O2    S    
N1    Zn1   S    
C21   C24   A    
C6    O4    S    
C15   C17   A    
C13   C19   A    
C24   C29   A    
C1    O1    A    
C3    C12   S    
H8    O4    S    
C25   C26   A    
C23   H5    S    
C12   O7    A    
O9    Zn2   S    
O6    Zn2   S    
O7    Zn1   S    
C20   C22   A    
C2    C31   A    
H7    O3    S    
C10   C13   S    
