data_mof_unit_10196.cif
_audit_creation_date              2012-10-26T19:33:59-0400
_audit_creation_method            fapswitch 2.2
_symmetry_space_group_name_H-M    P1
_symmetry_Int_Tables_number       1
_space_group_crystal_system       triclinic
_cell_length_a                    8.721148
_cell_length_b                    19.386403
_cell_length_c                    18.244632
_cell_angle_alpha                 88.800031
_cell_angle_beta                  97.125447
_cell_angle_gamma                 92.321358
_cell_volume                      3057.92184061

loop_
_atom_site_label
_atom_site_type_symbol
_atom_type_description
_atom_site_fract_x
_atom_site_fract_y
_atom_site_fract_z
_atom_type_partial_charge
C1    C     C_R   0.499565 0.367462 0.500677 0.543393
C2    C     C_R   0.593331 0.545552 0.280387 0.169486
C3    C     C_R   0.422533 0.452563 0.798065 -0.117990
C4    C     C_R   0.592566 0.542927 0.203387 -0.120349
C5    C     C_R   0.519074 0.499759 0.840158 0.000378
C6    C     C_R   0.496235 0.496114 0.160709 0.000733
C7    C     C_R   0.606563 0.547701 0.801886 -0.154787
C8    C     C_R   0.402497 0.450065 0.197993 -0.155164
C9    C     C_R   0.597004 0.546255 0.724000 0.038353
C10   C     C_R   0.405915 0.452991 0.275581 0.034357
C11   C     C_R   0.524377 0.560584 0.962361 -0.111533
C12   C     C_R   0.499419 0.632295 0.499297 0.541352
C13   C     C_R   0.495123 0.434880 0.038922 -0.112120
C14   C     C_R   0.512847 0.559431 0.038592 -0.114895
C15   C     C_R   0.507056 0.436020 0.962696 -0.115399
C16   C     C_R   0.203935 0.500020 0.481280 0.549395
C17   C     C_R   0.796044 0.500943 0.518594 0.547969
C18   C     C_R   0.498166 0.496567 0.078230 0.031944
C19   C     C_R   0.520885 0.498918 0.922937 0.032098
C20   C     C_2   0.038519 0.499532 0.470628 -0.161951
C21   C     C_2   0.961373 0.503112 0.528717 -0.163189
C22   C     C_R   0.416027 0.741860 0.437060 -0.125355
C23   C     C_R   0.624348 0.965953 0.488814 -0.127272
C24   C     C_R   0.488091 0.254865 0.568673 -0.125094
C25   C     C_R   0.409871 0.814019 0.435011 0.008859
C26   C     C_R   0.484991 0.182503 0.570840 0.010168
C27   C     C_R   0.487450 0.851894 0.495007 0.031271
C28   C     C_R   0.494067 0.146762 0.504763 0.032200
C29   C     C_R   0.566976 0.817244 0.555400 -0.137030
C30   C     C_R   0.505946 0.183611 0.438745 -0.138530
C31   C     C_R   0.569889 0.745580 0.557093 -0.140769
C32   C     C_R   0.507316 0.255349 0.437315 -0.141087
C33   C     C_R   0.495700 0.707635 0.497661 0.003143
C34   C     C_R   0.355106 0.032683 0.510328 -0.120895
C35   C     C_R   0.498325 0.291584 0.502226 -0.002435
C36   C     C_3   0.322720 0.848241 0.367878 -0.257816
C37   C     C_3   0.147538 0.836205 0.367186 -0.295937
C38   C     C_3   0.058476 0.872662 0.301250 -0.458082
C39   C     C_3   0.476764 0.145890 0.644494 -0.257872
C40   C     C_3   0.316024 0.151229 0.669384 -0.297166
C41   C     C_3   0.305419 0.112495 0.742340 -0.457398
C42   C     C_3   0.293954 0.401586 0.681950 -0.248424
C43   C     C_3   0.129972 0.410658 0.701267 -0.458470
C44   C     C_3   0.702004 0.600176 0.318906 -0.240056
C45   C     C_R   0.626074 0.037736 0.491359 -0.126599
C46   C     C_3   0.648325 0.672932 0.298162 -0.451108
C47   C     C_R   0.353361 0.960869 0.507751 -0.120296
C48   C     C_R   0.491741 0.071222 0.502550 0.020210
C49   C     C_R   0.487852 0.927406 0.496677 0.020320
C50   C     C_R   0.409519 0.453770 0.720394 0.169343
Cu1   Cu    Cu3+1 0.499960 0.500000 0.573360 0.919510
Cu2   Cu    Cu3+1 0.500040 0.500000 0.426640 0.917458
H1    H     H_    0.979915 0.495651 0.414582 0.125268
H2    H     H_    0.506258 0.387218 0.934866 0.095319
H3    H     H_    0.356339 0.712240 0.391720 0.113214
H4    H     H_    0.483165 0.282432 0.619290 0.117136
H5    H     H_    0.626141 0.845927 0.601601 0.109701
H6    H     H_    0.513024 0.156543 0.387969 0.109594
H7    H     H_    0.631814 0.719813 0.604385 0.114215
H8    H     H_    0.515769 0.282374 0.385325 0.127533
H9    H     H_    0.728888 0.940388 0.480504 0.103780
H10   H     H_    0.250384 0.058226 0.518202 0.103243
H11   H     H_    0.731971 0.067221 0.485060 0.105498
H12   H     H_    0.020082 0.508085 0.584385 0.127142
H13   H     H_    0.247875 0.931391 0.514670 0.103650
H14   H     H_    0.352399 0.415505 0.825763 0.095926
H15   H     H_    0.670198 0.577476 0.176744 0.094744
H16   H     H_    0.083281 0.929276 0.303890 0.150589
H17   H     H_    0.091146 0.853083 0.248762 0.148879
H18   H     H_    0.932416 0.862600 0.302043 0.138983
H19   H     H_    0.116917 0.780024 0.364248 0.157829
H20   H     H_    0.111120 0.856003 0.418814 0.159220
H21   H     H_    0.350640 0.904558 0.365822 0.155472
H22   H     H_    0.359574 0.826488 0.317197 0.129964
H23   H     H_    0.684009 0.585276 0.831890 0.091841
H24   H     H_    0.325664 0.056815 0.736226 0.150970
H25   H     H_    0.392281 0.134323 0.786312 0.147744
H26   H     H_    0.188322 0.117578 0.759099 0.139031
H27   H     H_    0.291011 0.206281 0.676599 0.154038
H28   H     H_    0.226589 0.129112 0.626709 0.160016
H29   H     H_    0.504494 0.090673 0.642145 0.155654
H30   H     H_    0.565589 0.169752 0.686379 0.132141
H31   H     H_    0.103009 0.466134 0.700789 0.158506
H32   H     H_    0.044648 0.383303 0.660546 0.141685
H33   H     H_    0.117113 0.388375 0.756804 0.137040
H34   H     H_    0.325689 0.412607 0.167439 0.092914
H35   H     H_    0.287013 0.403762 0.621930 0.211494
H36   H     H_    0.330008 0.348735 0.699115 0.098770
H37   H     H_    0.525535 0.677445 0.306844 0.163828
H38   H     H_    0.719991 0.711328 0.333081 0.135008
H39   H     H_    0.660392 0.685282 0.239414 0.129326
H40   H     H_    0.717112 0.595523 0.378955 0.209086
H41   H     H_    0.819551 0.594860 0.302529 0.102383
H42   H     H_    0.668126 0.582486 0.695881 0.119981
H43   H     H_    0.332471 0.417329 0.303107 0.122565
H44   H     H_    0.531911 0.609953 0.933924 0.099496
H45   H     H_    0.486918 0.385563 0.067412 0.099011
H46   H     H_    0.513758 0.608206 0.066511 0.096654
N1    N     N_R   0.499980 0.500020 0.683620 -0.215944
N2    N     N_R   0.500020 0.499980 0.316380 -0.215793
O1    O     O_R   0.499930 0.400180 0.561970 -0.522998
O2    O     O_R   0.500070 0.599820 0.438030 -0.515787
O3    O     O_R   0.500010 0.400190 0.438070 -0.504123
O4    O     O_R   0.499990 0.599810 0.561930 -0.502311
O5    O     O_R   0.274810 0.500000 0.547650 -0.509480
O6    O     O_R   0.725190 0.500000 0.452350 -0.516527
O7    O     O_R   0.274880 0.500000 0.423750 -0.500231
O8    O     O_R   0.725120 0.500000 0.576250 -0.499759

loop_
_geom_bond_atom_site_label_1
_geom_bond_atom_site_label_2
_ccdc_geom_bond_type
C11   H44   S    
C38   H18   S    
Cu2   O3    S    
C23   C45   A    
C27   C29   A    
C43   H31   S    
C14   C18   A    
C34   C47   A    
C47   C49   A    
C46   H37   S    
C15   C19   A    
C11   C19   A    
C50   N1    A    
C13   C18   A    
C36   C37   S    
C24   C26   A    
C12   O4    A    
C41   H25   S    
C11   C14   A    
C26   C39   S    
C23   C49   A    
C34   H10   S    
C31   H7    S    
C21   H12   S    
C44   H41   S    
C16   O7    A    
Cu2   O7    S    
C2    C44   S    
Cu1   O8    S    
C22   C25   A    
C31   C33   A    
C1    O3    A    
C44   H40   S    
C16   C20   S    
C38   H17   S    
Cu2   O6    S    
C9    N1    A    
C43   H32   S    
C3    C50   A    
C44   C46   S    
C14   H46   S    
Cu1   N1    S    
C6    C18   S    
C24   C35   A    
Cu1   Cu2   S    
C43   H33   S    
C32   C35   A    
C39   H29   S    
C4    C6    A    
C17   O8    A    
C41   H26   S    
C5    C7    A    
C6    C8    A    
C46   H39   S    
Cu1   O4    S    
Cu2   N2    S    
C17   C21   S    
C2    C4    A    
C15   H2    S    
C12   O2    A    
C37   C38   S    
Cu1   O5    S    
Cu2   O2    S    
C40   H28   S    
C40   H27   S    
C10   N2    A    
C36   H22   S    
C16   O5    A    
C42   C50   S    
C46   H38   S    
C40   C41   S    
C29   H5    S    
C13   C15   A    
C3    H14   S    
C25   C27   A    
C42   C43   S    
C32   H8    S    
C1    O1    A    
C39   C40   S    
C1    C35   S    
C45   C48   A    
C7    C9    A    
C22   C33   A    
C28   C48   S    
C39   H30   S    
C38   H16   S    
C20   H1    S    
C3    C5    A    
C4    H15   S    
C7    H23   S    
C22   H3    S    
C5    C19   S    
C24   H4    S    
C34   C48   A    
C26   C28   A    
C37   H19   S    
C29   C31   A    
C17   O6    A    
C41   H24   S    
C30   C32   A    
C10   H43   S    
C30   H6    S    
C28   C30   A    
C45   H11   S    
C8    H34   S    
C13   H45   S    
C36   H21   S    
C25   C36   S    
C2    N2    A    
C23   H9    S    
C42   H36   S    
C20   C21   D    
C8    C10   A    
C37   H20   S    
C42   H35   S    
C12   C33   S    
C9    H42   S    
C47   H13   S    
Cu1   O1    S    
C27   C49   S    
