data_mof_unit_21949.cif
_audit_creation_date              2013-03-05T16:01:45-0500
_audit_creation_method            fapswitch 2.2
_symmetry_space_group_name_H-M    P1
_symmetry_Int_Tables_number       1
_space_group_crystal_system       triclinic
_cell_length_a                    14.909545
_cell_length_b                    14.877708
_cell_length_c                    27.703851
_cell_angle_alpha                 74.488139
_cell_angle_beta                  102.652709
_cell_angle_gamma                 115.867878
_cell_volume                      5290.85164406

loop_
_atom_site_label
_atom_site_type_symbol
_atom_site_description
_atom_site_fract_x
_atom_site_fract_y
_atom_site_fract_z
_atom_type_partial_charge
O1    O     O_R   0.977900 0.338120 0.517190 -0.602151
O2    O     O_R   0.022100 0.661880 0.482810 -0.595267
O3    O     O_R   0.839850 0.379180 0.495160 -0.500887
O4    O     O_R   0.160150 0.620820 0.504840 -0.591291
C1    C     C_R   0.880458 0.312507 0.509138 0.838857
C2    C     C_R   0.119595 0.687536 0.490504 0.812048
O5    O     O_R   0.069030 0.479490 0.580750 -0.599479
O6    O     O_R   0.930970 0.520510 0.419250 -0.572978
O7    O     O_R   0.930970 0.520550 0.558720 -0.565751
O8    O     O_R   0.069030 0.479450 0.441280 -0.580568
C3    C     C_R   0.001748 0.502402 0.592215 0.870800
C4    C     C_R   0.998625 0.497935 0.407976 0.833820
Cu1   Cu    Cu3+1 0.081740 0.475690 0.513040 0.962564
Cu2   Cu    Cu3+1 0.918260 0.524310 0.486960 1.003077
C5    C     C_R   0.009964 0.426306 0.835979 0.533090
C6    C     C_R   0.997917 0.585339 0.165469 0.531841
O9    O     O_2   0.006001 0.342806 0.823560 -0.538801
O10   O     O_2   0.960772 0.643638 0.177402 -0.531407
N1    N     N_R   0.006026 0.506812 0.798892 -0.456601
N2    N     N_R   0.029018 0.520184 0.202827 -0.462934
C7    C     C_R   0.008646 0.592199 0.810046 0.548528
C8    C     C_R   0.067356 0.460163 0.192175 0.555333
C9    C     C_R   0.099090 0.543946 0.727440 0.098381
C10   C     C_R   0.931494 0.438540 0.275800 0.096410
C11   C     C_R   0.099029 0.547160 0.675885 -0.035030
C12   C     C_R   0.921926 0.431751 0.326664 -0.025302
C13   C     C_R   0.916064 0.468726 0.666088 -0.246262
C14   C     C_R   0.086362 0.572813 0.332998 -0.225974
C15   C     C_R   0.915302 0.467635 0.716560 0.167259
C16   C     C_R   0.096690 0.579684 0.283230 0.180402
C17   C     C_R   0.006735 0.505102 0.747350 0.363580
C18   C     C_R   0.018999 0.512915 0.254307 0.361322
C19   C     C_R   0.025103 0.519363 0.899246 -0.050423
C20   C     C_R   0.041935 0.529040 0.102935 -0.051046
C21   C     C_R   0.019926 0.431147 0.886897 -0.010251
C22   C     C_R   0.003979 0.591209 0.114801 -0.012288
C23   C     C_R   0.024654 0.350053 0.925546 -0.149394
C24   C     C_R   0.970243 0.655312 0.075854 -0.148033
C25   C     C_R   0.018047 0.600011 0.860476 -0.072685
C26   C     C_R   0.073994 0.463031 0.141954 -0.075958
C27   C     C_R   0.006317 0.507658 0.645294 -0.135660
C28   C     C_R   0.000503 0.500679 0.354891 -0.107894
H1    H     H_    0.845608 0.437167 0.643048 0.185929
H2    H     H_    0.146194 0.624734 0.355030 0.156176
H3    H     H_    0.016793 0.279756 0.917130 0.186756
H4    H     H_    0.937108 0.700952 0.083784 0.187452
C29   C     C_R   0.073911 0.461023 0.040108 0.025323
C30   C     C_R   0.032557 0.611255 0.962493 0.025754
C31   C     C_R   0.020796 0.603910 0.013140 0.055918
C32   C     C_R   0.052880 0.448791 0.989131 0.055294
C33   C     C_R   0.046247 0.531763 0.051992 0.035017
C34   C     C_R   0.037166 0.526708 0.950372 0.033915
C35   C     C_R   0.118447 0.404541 0.080012 0.152888
C36   C     C_R   0.037404 0.697203 0.923119 0.151982
C37   C     C_R   0.114424 0.403614 0.130184 -0.140779
C38   C     C_R   0.026167 0.688730 0.872792 -0.144502
O11   O     O_2   0.098195 0.397534 0.230073 -0.519472
O12   O     O_2   0.003773 0.669806 0.772417 -0.530545
C39   C     C_R   0.039759 0.358341 0.975818 -0.210992
C40   C     C_R   0.977443 0.660642 0.025857 -0.211692
H5    H     H_    0.145836 0.358003 0.160189 0.194832
H6    H     H_    0.027771 0.753860 0.843174 0.195746
H7    H     H_    0.037410 0.291618 0.004045 0.167373
H8    H     H_    0.944584 0.706449 0.997271 0.167292
C41   C     C_R   0.812089 0.204837 0.520528 -0.049190
C42   C     C_R   0.188105 0.795135 0.478380 -0.058743
C43   C     C_R   0.765052 0.041005 0.576724 -0.156292
C44   C     C_R   0.234703 0.958249 0.421457 -0.156691
C45   C     C_R   0.836388 0.138605 0.562022 -0.164109
C46   C     C_R   0.163311 0.860970 0.436824 -0.185209
C47   C     C_R   0.715923 0.172160 0.494022 -0.195438
C48   C     C_R   0.284954 0.827909 0.504131 -0.204527
C49   C     C_R   0.638254 0.079890 0.512553 0.080878
C50   C     C_R   0.362343 0.919732 0.485010 0.071345
C51   C     C_R   0.666612 0.011134 0.552145 0.101565
C52   C     C_R   0.333599 0.988195 0.445472 0.102528
C53   C     C_R   0.534894 0.051969 0.491938 0.009905
C54   C     C_R   0.465828 0.947562 0.505224 0.011026
C55   C     C_R   0.503813 0.875963 0.537939 0.171592
C56   C     C_R   0.496801 0.123404 0.459061 0.146550
C57   C     C_R   0.599204 0.911033 0.564580 -0.213861
C58   C     C_R   0.401134 0.088123 0.432625 -0.210476
H9    H     H_    0.624590 0.857025 0.592016 0.156996
H10   H     H_    0.375591 0.141951 0.405135 0.163582
H11   H     H_    0.297806 0.780573 0.539323 0.214678
H12   H     H_    0.704051 0.219985 0.458758 0.195137
H13   H     H_    0.089731 0.836964 0.415781 0.191795
H14   H     H_    0.909557 0.162575 0.583523 0.190509
H15   H     H_    0.786450 0.989247 0.607789 0.152526
H16   H     H_    0.212924 0.009733 0.390387 0.155216
N3    N     N_R   0.795430 0.560780 0.467350 -0.224154
N4    N     N_R   0.204570 0.439220 0.532650 -0.240523
C59   C     C_R   0.707248 0.656446 0.408671 -0.092371
C60   C     C_R   0.292787 0.342590 0.590098 -0.093353
C61   C     C_R   0.793511 0.635193 0.425437 0.106202
C62   C     C_R   0.206754 0.364299 0.574176 0.103864
C63   C     C_R   0.714966 0.511766 0.495366 0.142186
C64   C     C_R   0.283901 0.488179 0.503999 0.115211
C65   C     C_R   0.627668 0.534657 0.480348 -0.149741
C66   C     C_R   0.371164 0.465009 0.518043 -0.080818
C67   C     C_R   0.633302 0.619394 0.441264 0.111842
C68   C     C_R   0.365817 0.379846 0.556934 0.101081
C69   C     C_R   0.536257 0.479373 0.503687 0.026889
C70   C     C_R   0.462374 0.520456 0.494404 0.080797
C71   C     C_R   0.486020 0.619037 0.465146 -0.178261
C72   C     C_R   0.512433 0.380472 0.532410 -0.244738
C73   C     C_R   0.568863 0.668407 0.438302 0.223884
C74   C     C_R   0.429722 0.330667 0.559249 0.211888
H17   H     H_    0.442653 0.661454 0.463887 0.123127
H18   H     H_    0.555285 0.338098 0.532821 0.183132
C75   C     C_3   0.454522 0.761930 0.541252 -0.888674
H19   H     H_    0.418802 0.723502 0.576603 0.254742
H20   H     H_    0.399890 0.740665 0.507815 0.220166
H21   H     H_    0.511621 0.732260 0.542005 0.232780
C76   C     C_3   0.546105 0.237504 0.455462 -0.839330
H22   H     H_    0.599777 0.258876 0.489148 0.258462
H23   H     H_    0.582792 0.275476 0.420376 0.258517
H24   H     H_    0.488993 0.267610 0.454018 0.236268
C77   C     C_3   0.592877 0.778770 0.413341 -0.781356
H25   H     H_    0.586449 0.819691 0.439768 0.212698
H26   H     H_    0.670742 0.819958 0.403389 0.237087
H27   H     H_    0.538847 0.783475 0.379110 0.263075
C78   C     C_3   0.405270 0.219925 0.583530 -0.742752
H28   H     H_    0.410879 0.179615 0.556556 0.216560
H29   H     H_    0.459581 0.214254 0.617510 0.259528
H30   H     H_    0.327578 0.178861 0.593733 0.238941
C79   C     C_2   0.268322 0.546722 0.453120 0.418117
H31   H     H_    0.251841 0.612812 0.447769 0.063139
O13   O     O_2   0.275075 0.521462 0.416031 -0.530069
C80   C     C_2   0.729692 0.458829 0.547780 0.397620
H32   H     H_    0.727784 0.490431 0.578410 0.047658
O14   O     O_2   0.736369 0.376943 0.557412 -0.566049
C81   C     C_2   0.115280 0.294929 0.598924 0.325280
H33   H     H_    0.064504 0.320957 0.606977 0.117031
O15   O     O_2   0.094541 0.203480 0.610475 -0.582905
C82   C     C_2   0.885435 0.705066 0.401164 0.328143
H34   H     H_    0.936965 0.679580 0.393461 0.117665
O16   O     O_2   0.905568 0.796399 0.389518 -0.590507
C83   C     C_2   0.688004 0.702133 0.354415 0.386354
H35   H     H_    0.748494 0.744563 0.330997 0.120925
O17   O     O_2   0.602596 0.687258 0.334232 -0.521735
C84   C     C_2   0.312982 0.296209 0.644125 0.360506
H36   H     H_    0.253058 0.253637 0.667875 0.125284
O18   O     O_2   0.398620 0.310652 0.663777 -0.537707
C85   C     C_3   0.816787 0.426001 0.737557 -0.787930
H37   H     H_    0.751846 0.399386 0.708566 0.232569
H38   H     H_    0.812172 0.360533 0.769178 0.245448
H39   H     H_    0.810689 0.486138 0.751589 0.244185
C86   C     C_3   0.191873 0.659037 0.262451 -0.766003
H40   H     H_    0.257387 0.645756 0.285736 0.255674
H41   H     H_    0.194134 0.658113 0.222874 0.230040
H42   H     H_    0.199342 0.735896 0.263896 0.224915
C87   C     C_2   0.831722 0.349914 0.349690 0.336114
H43   H     H_    0.793034 0.278573 0.336468 0.088983
O19   O     O_2   0.797334 0.361566 0.382503 -0.554813
C88   C     C_2   0.196143 0.596743 0.654262 0.383640
H44   H     H_    0.262162 0.586132 0.675699 0.070580
O20   O     O_2   0.204337 0.653732 0.613115 -0.562759
C89   C     C_3   0.847664 0.367440 0.244401 -0.821592
H45   H     H_    0.775697 0.372059 0.245264 0.232612
H46   H     H_    0.859407 0.385556 0.204218 0.241143
H47   H     H_    0.840892 0.288055 0.259718 0.228530
C90   C     C_3   0.197761 0.585070 0.760485 -0.824723
H48   H     H_    0.241899 0.539943 0.762798 0.221998
H49   H     H_    0.241315 0.666107 0.744208 0.238290
H50   H     H_    0.188799 0.581730 0.799640 0.239776
C91   C     C_3   0.183536 0.356774 0.071844 -0.868378
H51   H     H_    0.253372 0.376171 0.098723 0.241994
H52   H     H_    0.143057 0.272594 0.078609 0.233104
H53   H     H_    0.208437 0.386342 0.033685 0.246398
C92   C     C_3   0.069726 0.803191 0.932357 -0.867118
H54   H     H_    0.126054 0.859307 0.906826 0.242152
H55   H     H_    0.004205 0.824005 0.924497 0.233590
H56   H     H_    0.107353 0.810928 0.971167 0.246024

loop_
_geom_bond_atom_site_label_1
_geom_bond_atom_site_label_2
_geom_bond_distance
_ccdc_geom_bond_type
C67   C73   1.416447 A    
C65   C69   1.440654 A    
C92   H54   1.111363 S    
C13   C15   1.396491 A    
C48   C50   1.408349 A    
C83   O17   1.221273 D    
C80   O14   1.218861 D    
C75   H19   1.110397 S    
N4    C62   1.377096 A    
N1    C17   1.437351 S    
C8    O11   1.349466 S    
C79   O13   1.221479 D    
C48   H11   1.073268 S    
C10   C89   1.516579 S    
N4    C64   1.381971 A    
C78   H28   1.111722 S    
C91   H52   1.110101 S    
C53   C54   1.439855 A    
C19   C34   1.415815 A    
C30   C36   1.427599 A    
C71   C73   1.391673 A    
C20   C33   1.415772 A    
C19   C25   1.405583 A    
C31   C40   1.410394 A    
C50   C52   1.414021 A    
O1    C1    1.313793 A    
C32   C39   1.410413 A    
C88   H44   1.084372 S    
C90   H49   1.110378 S    
C10   C12   1.419705 A    
C63   C80   1.475321 S    
C86   H41   1.108236 S    
C15   C85   1.505704 S    
C77   H27   1.110048 S    
C76   H22   1.105408 S    
C72   H18   1.072468 S    
C66   C70   1.442579 A    
C5    C21   1.403681 A    
O4    Cu1   1.931789 S    
O5    C3    1.311197 A    
C4    C28   1.466363 S    
C63   C65   1.434203 A    
C35   C91   1.510650 S    
C42   C48   1.397189 A    
C90   H48   1.109959 S    
C76   H23   1.110275 S    
C32   C34   1.418688 A    
C89   H46   1.107390 S    
C68   C74   1.415530 A    
C87   O19   1.218750 D    
C6    N2    1.367903 A    
C29   C35   1.427446 A    
C44   C46   1.390525 A    
C26   C37   1.398709 A    
C77   H26   1.108310 S    
C59   C61   1.408710 A    
Cu1   Cu2   2.733807 S    
C11   C88   1.486985 S    
C49   C51   1.415047 A    
C75   H21   1.111401 S    
O2    C2    1.314432 A    
C46   H13   1.077140 S    
C73   C77   1.513452 S    
C70   C71   1.403743 A    
C57   H9    1.085944 S    
C85   H37   1.110953 S    
C29   C32   1.421121 A    
C9    C90   1.516858 S    
C35   C37   1.400448 A    
C92   H56   1.108877 S    
C36   C38   1.400407 A    
C85   H38   1.110131 S    
C60   C84   1.496172 S    
C90   H50   1.107179 S    
C56   C58   1.393212 A    
C86   H42   1.110403 S    
C52   C58   1.385119 A    
C91   H51   1.111305 S    
C47   C49   1.409028 A    
C59   C67   1.405085 A    
C54   C55   1.435997 A    
C51   C57   1.384869 A    
C78   H30   1.108363 S    
C29   C33   1.417683 A    
C31   C33   1.418888 A    
C41   C47   1.397421 A    
C14   H2    1.085075 S    
C43   C45   1.389747 A    
C9    C17   1.414955 A    
C5    N1    1.367624 A    
O7    Cu2   1.943201 S    
C10   C18   1.417490 A    
C59   C83   1.496141 S    
C47   H12   1.074405 S    
C92   H55   1.110096 S    
C13   C27   1.399675 A    
C44   H16   1.083961 S    
C89   H45   1.110441 S    
C7    C25   1.404254 A    
C56   C76   1.511508 S    
C30   C34   1.418145 A    
O6    C4    1.310576 A    
C76   H24   1.111567 S    
C8    C26   1.404388 A    
C66   C68   1.411341 A    
C89   H47   1.109875 S    
C75   H20   1.105899 S    
C25   C38   1.398797 A    
N3    C63   1.383914 A    
C60   C62   1.407713 A    
O7    C3    1.316505 A    
C23   C39   1.391350 A    
C45   H14   1.077751 S    
O8    C4    1.311758 A    
C24   C40   1.391145 A    
C91   H53   1.108866 S    
C1    C41   1.466414 S    
C64   C79   1.475052 S    
C65   C67   1.409302 A    
N2    C8    1.368000 A    
C58   H10   1.085915 S    
Cu1   N4    2.053510 S    
C81   H33   1.071841 S    
C38   H6    1.084386 S    
O4    C2    1.310046 A    
O1    Cu1   1.945849 S    
C74   C78   1.513411 S    
C11   C27   1.420806 A    
C79   H31   1.079848 S    
C85   H39   1.110114 S    
C12   C28   1.419459 A    
C82   O16   1.221736 D    
C55   C57   1.392243 A    
N2    C18   1.436940 S    
C53   C56   1.436666 A    
C5    O9    1.349359 S    
C71   H17   1.073293 S    
C30   C31   1.421433 A    
O6    Cu2   1.944128 S    
C14   C28   1.396967 A    
C21   C23   1.399014 A    
C39   H7    1.079180 S    
C36   C92   1.510951 S    
C82   H34   1.071853 S    
O3    C1    1.310103 A    
O8    Cu1   1.943199 S    
C77   H25   1.111725 S    
C62   C81   1.482629 S    
O3    Cu2   1.931788 S    
C44   C52   1.403864 A    
C64   C66   1.435550 A    
C55   C75   1.511650 S    
C40   H8    1.079025 S    
C88   O20   1.219378 D    
C80   H32   1.085142 S    
C7    O12   1.349584 S    
C15   C17   1.406612 A    
C86   H40   1.110616 S    
C6    C22   1.403309 A    
C22   C24   1.398999 A    
C16   C18   1.409133 A    
C83   H35   1.083166 S    
C42   C46   1.395628 A    
C72   C74   1.390073 A    
C41   C45   1.395310 A    
C37   H5    1.084377 S    
C14   C16   1.392491 A    
C61   C82   1.482519 S    
C19   C21   1.409164 A    
C3    C27   1.478552 S    
C69   C72   1.402122 A    
C20   C22   1.408818 A    
C9    C11   1.416052 A    
O2    Cu2   1.945849 S    
Cu2   N3    2.053507 S    
C24   H4    1.083267 S    
C78   H29   1.110044 S    
N3    C61   1.378502 A    
C13   H1    1.080539 S    
O5    Cu1   1.944128 S    
C43   C51   1.403632 A    
C60   C68   1.405777 A    
C6    O10   1.349460 S    
C50   C54   1.433054 A    
C69   C70   1.425651 A    
C81   O15   1.221682 D    
C43   H15   1.083988 S    
C49   C53   1.433980 A    
C84   H36   1.083120 S    
C20   C26   1.406003 A    
C12   C87   1.493197 S    
C87   H43   1.083789 S    
C23   H3    1.083247 S    
C84   O18   1.221267 D    
C16   C86   1.507158 S    
C2    C42   1.467883 S    
N1    C7    1.368289 A    
