data_mof_unit_26163.cif
_audit_creation_date              2012-12-10T18:57:10-0500
_audit_creation_method            fapswitch 2.2
_symmetry_space_group_name_H-M    P1
_symmetry_Int_Tables_number       1
_space_group_crystal_system       triclinic
_cell_length_a                    9.038074
_cell_length_b                    11.064321
_cell_length_c                    9.678579
_cell_angle_alpha                 90.653851
_cell_angle_beta                  96.153438
_cell_angle_gamma                 93.033804
_cell_volume                      960.792017178

loop_
_atom_site_label
_atom_site_type_symbol
_atom_type_description
_atom_site_fract_x
_atom_site_fract_y
_atom_site_fract_z
_atom_type_partial_charge
C1    C     C_R   0.501881 0.262607 0.497805 0.755833
C2    C     C_R   0.575454 0.934236 0.400532 -0.238035
C3    C     C_R   0.495798 0.870026 0.495097 -0.144751
C4    C     C_R   0.412365 0.937281 0.577894 -0.059987
C5    C     C_3   0.408151 0.950023 0.733613 0.452630
C6    C     C_3   0.360240 0.080209 0.707052 0.209297
C7    C     C_R   0.595338 0.574548 0.082606 0.267491
C8    C     C_R   0.417543 0.413093 0.063416 0.114444
C9    C     C_R   0.419693 0.414111 0.915193 -0.073687
C10   C     C_R   0.599886 0.571000 0.938843 0.202788
C11   C     C_3   0.635003 0.702926 0.937679 -0.497158
C12   C     C_R   0.205181 0.501245 0.465214 0.765352
C13   C     C_3   0.630498 0.706539 0.095132 -0.493797
C14   C     C_R   0.498378 0.737072 0.499909 0.783304
C15   C     C_R   0.794897 0.503261 0.534642 0.788240
C16   C     C_2   0.041175 0.508746 0.444863 0.157553
C17   C     C_2   0.959106 0.504132 0.554408 0.141341
C18   C     C_R   0.399119 0.060529 0.562556 -0.070989
C19   C     C_R   0.495964 0.128643 0.486620 -0.149874
C20   C     C_R   0.581580 0.062464 0.397603 0.100738
Cu1   Cu    Cu3+1 0.499990 0.499980 0.640670 0.931733
Cu2   Cu    Cu3+1 0.500010 0.500020 0.359330 0.933928
H1    H     H_    0.354552 0.346891 0.850732 0.149449
H2    H     H_    0.747741 0.722826 0.905622 0.183862
H3    H     H_    0.543552 0.747640 0.879336 0.263864
H4    H     H_    0.741583 0.728334 0.153547 0.209802
H5    H     H_    0.538311 0.757477 0.129376 0.206829
H6    H     H_    0.642654 0.884748 0.335620 0.153297
H7    H     H_    0.430258 0.150322 0.770235 0.111493
N1    N     N_R   0.500980 0.500930 0.148050 -0.214523
N2    N     N_R   0.500990 0.500890 0.852140 -0.209264
O1    O     O_R   0.500000 0.319640 0.618810 -0.599139
O2    O     O_R   0.500020 0.319680 0.381230 -0.615861
O3    O     O_R   0.274830 0.499980 0.591380 -0.550363
O4    O     O_R   0.274850 0.500020 0.353800 -0.617253
O5    O     O_R   0.499980 0.680320 0.618770 -0.608559
O6    O     O_R   0.500000 0.680360 0.381190 -0.571218
O7    O     O_R   0.725150 0.499980 0.646200 -0.581578
O8    O     O_R   0.725170 0.500020 0.408620 -0.544208
O9    O     O_3   0.973064 0.534589 0.313423 -0.578338
C21   C     C_3   0.998584 0.443657 0.216318 0.072455
H8    H     H_    0.996485 0.352006 0.262178 0.126266
H9    H     H_    0.102630 0.465153 0.169794 0.199436
C22   C     C_3   0.879833 0.443147 0.096459 -0.816691
H10   H     H_    0.876762 0.535011 0.052623 0.250188
H11   H     H_    0.901827 0.378769 0.013582 0.209198
H12   H     H_    0.774784 0.415925 0.137524 0.261979
O10   O     O_3   0.026717 0.481480 0.686166 -0.587618
C23   C     C_3   0.021838 0.583934 0.773566 0.085957
H13   H     H_    0.911342 0.587569 0.812284 0.166207
H14   H     H_    0.047861 0.670222 0.720656 0.115432
C24   C     C_3   0.135083 0.571841 0.898801 -0.782560
H15   H     H_    0.133568 0.476991 0.931269 0.249256
H16   H     H_    0.247166 0.599037 0.871317 0.253380
H17   H     H_    0.109523 0.627080 0.988228 0.213563
C25   C     C_3   0.687382 0.120210 0.303218 -0.432608
C26   C     C_3   0.638858 0.080668 0.151383 -0.301435
C27   C     C_3   0.684509 0.175260 0.049663 -0.850100
H18   H     H_    0.635751 0.261310 0.070110 0.243499
H19   H     H_    0.807197 0.188331 0.058852 0.252908
H20   H     H_    0.640481 0.148458 0.942401 0.285713
H21   H     H_    0.688981 0.994167 0.128888 0.228623
H22   H     H_    0.516306 0.064121 0.133888 0.220053
H23   H     H_    0.698984 0.219774 0.314416 0.231896
H24   H     H_    0.801216 0.089337 0.333853 0.175545
C28   C     C_3   0.290006 0.860452 0.785246 -0.329789
C29   C     C_3   0.288943 0.864207 0.944394 -0.308662
C30   C     C_3   0.134470 0.879922 0.985579 -0.912848
H25   H     H_    0.102623 0.970307 0.951643 0.307271
H26   H     H_    0.052457 0.811889 0.933608 0.249765
H27   H     H_    0.134251 0.872227 0.099810 0.257153
H28   H     H_    0.328487 0.778782 0.989177 0.207008
H29   H     H_    0.362849 0.939315 0.993078 0.245416
H30   H     H_    0.177936 0.874372 0.730192 0.206776
H31   H     H_    0.314180 0.767882 0.753716 0.164812
O11   O     O_3   0.547634 0.953862 0.821752 -0.619050
C31   C     C_3   0.676971 0.950728 0.750883 0.051355
H32   H     H_    0.680306 0.022502 0.672643 0.166149
H33   H     H_    0.683871 0.859765 0.704108 0.168925
C32   C     C_3   0.818411 0.971991 0.847626 -0.885342
H34   H     H_    0.812925 0.923729 0.946613 0.274758
H35   H     H_    0.909806 0.938904 0.792127 0.226596
H36   H     H_    0.844217 0.069450 0.868649 0.252502
O12   O     O_3   0.204540 0.090270 0.711941 -0.608275
C33   C     C_3   0.149299 0.186536 0.629942 0.073443
H37   H     H_    0.164302 0.172593 0.518457 0.132815
H38   H     H_    0.204604 0.274371 0.666911 0.185869
C34   C     C_3   0.982775 0.191332 0.637935 -0.763713
H39   H     H_    0.961639 0.221254 0.743543 0.256487
H40   H     H_    0.934569 0.255627 0.560793 0.192822
H41   H     H_    0.927258 0.100763 0.612761 0.235847
C35   C     C_3   0.339223 0.306912 0.128483 -0.397459
C36   C     C_3   0.212664 0.232012 0.044979 -0.447395
C37   C     C_3   0.141657 0.143613 0.143177 -0.867107
H42   H     H_    0.218985 0.071329 0.172609 0.269636
H43   H     H_    0.118826 0.188096 0.241033 0.230252
H44   H     H_    0.033823 0.104149 0.093500 0.254081
H45   H     H_    0.126461 0.289997 0.997295 0.227549
H46   H     H_    0.256895 0.179348 0.962006 0.266552
H47   H     H_    0.423180 0.242664 0.162614 0.242819
H48   H     H_    0.292329 0.339046 0.219797 0.257752

loop_
_geom_bond_atom_site_label_1
_geom_bond_atom_site_label_2
_ccdc_geom_bond_type
C8    C9    A    
C7    C10   A    
C36   C37   S    
C21   H8    S    
C19   C20   A    
C17   O10   S    
C20   C25   S    
C1    O2    A    
C26   H21   S    
Cu1   O5    S    
C31   H32   S    
C24   H15   S    
Cu2   O4    S    
Cu1   N2    S    
C29   H28   S    
C14   O5    A    
C5    C6    S    
C32   H34   S    
C31   C32   S    
Cu2   O8    S    
C27   H19   S    
C25   H24   S    
C28   H30   S    
C11   H2    S    
C25   C26   S    
C18   C19   A    
C30   H25   S    
C10   N2    A    
Cu1   O7    S    
C12   C16   S    
C22   H11   S    
C16   C17   D    
C23   H14   S    
C25   H23   S    
C29   H29   S    
C36   H46   S    
C22   H12   S    
C4    C18   A    
C27   H20   S    
C33   H38   S    
C28   C29   S    
C7    N1    A    
Cu1   Cu2   S    
C21   H9    S    
C32   H36   S    
C24   H16   S    
C26   H22   S    
C31   H33   S    
C6    C18   S    
Cu1   O1    S    
C1    C19   S    
C6    O12   S    
C2    C20   A    
C29   C30   S    
O11   C31   S    
C32   H35   S    
C4    C5    S    
Cu1   O3    S    
C37   H44   S    
C27   H18   S    
C33   H37   S    
Cu2   O6    S    
C1    O1    A    
C15   O7    A    
C34   H41   S    
C23   C24   S    
O12   C33   S    
C12   O4    A    
C37   H43   S    
C15   O8    A    
C3    C14   S    
C35   H48   S    
C16   O9    S    
C8    C35   S    
O10   C23   S    
C34   H40   S    
C21   C22   S    
C13   H4    S    
C12   O3    A    
C3    C4    A    
C22   H10   S    
C35   H47   S    
C33   C34   S    
C15   C17   S    
Cu2   O2    S    
O9    C21   S    
Cu2   N1    S    
C9    H1    S    
C5    C28   S    
C24   H17   S    
C8    N1    A    
C5    O11   S    
C2    C3    A    
C14   O6    A    
C11   C13   S    
C26   C27   S    
C30   H27   S    
C28   H31   S    
C35   C36   S    
C37   H42   S    
C10   C11   S    
C9    N2    A    
C7    C13   S    
C6    H7    S    
C34   H39   S    
C30   H26   S    
C23   H13   S    
C11   H3    S    
C13   H5    S    
C2    H6    S    
C36   H45   S    
