data_mof_unit_44924.cif
_audit_creation_date              2012-12-11T14:33:56-0500
_audit_creation_method            fapswitch 2.2
_symmetry_space_group_name_H-M    P1
_symmetry_Int_Tables_number       1
_space_group_crystal_system       triclinic
_cell_length_a                    14.062367
_cell_length_b                    14.014614
_cell_length_c                    27.288221
_cell_angle_alpha                 90.097282
_cell_angle_beta                  90.042238
_cell_angle_gamma                 119.710424
_cell_volume                      4670.93639117

loop_
_atom_site_label
_atom_site_type_symbol
_atom_type_description
_atom_site_fract_x
_atom_site_fract_y
_atom_site_fract_z
_atom_type_partial_charge
C1    C     C_R   0.234737 0.787208 0.568854 0.540621
C2    C     C_R   0.212798 0.446712 0.568532 0.541441
C3    C     C_R   0.553395 0.765934 0.568532 0.542118
C4    C     C_3   0.684290 0.747743 0.785862 -0.088659
C5    C     C_3   0.271404 0.896637 0.792267 -0.092482
C6    C     C_3   0.050274 0.292298 0.782810 -0.085356
C7    C     C_3   0.649950 0.731862 0.730882 -0.210728
C8    C     C_3   0.282134 0.885126 0.736107 -0.258931
C9    C     C_3   0.072929 0.334608 0.729155 -0.217452
C10   C     C_1   0.770455 0.886637 0.852369 -0.054666
C11   C     C_1   0.136748 0.841821 0.860869 0.011765
C12   C     C_1   0.119176 0.229374 0.852370 -0.049859
C13   C     C_1   0.642891 0.823445 0.655698 -0.042981
C14   C     C_1   0.183501 0.811096 0.658805 -0.040828
C15   C     C_1   0.181654 0.356609 0.655584 -0.056834
C16   C     C_1   0.607741 0.800828 0.614647 0.013782
C17   C     C_1   0.203171 0.803806 0.616497 0.010477
C18   C     C_1   0.193699 0.392014 0.614588 0.008703
C19   C     C_R   0.108084 0.225375 0.086310 0.579750
C20   C     C_R   0.775348 0.883481 0.086635 0.580941
C21   C     C_R   0.116565 0.892252 0.086781 0.568029
C22   C     C_R   0.070090 0.160811 0.943493 0.522746
C23   C     C_R   0.839242 0.908792 0.943530 0.523921
C24   C     C_R   0.112777 0.893125 0.950877 0.544863
C25   C     C_R   0.638477 0.886339 0.359216 -0.077997
C26   C     C_R   0.114244 0.751275 0.358671 -0.078655
C27   C     C_R   0.248811 0.362930 0.358647 -0.076845
C28   C     C_R   0.658239 0.904186 0.308844 -0.029354
C29   C     C_R   0.096633 0.752051 0.308173 -0.036791
C30   C     C_R   0.246714 0.343285 0.308240 -0.027586
C31   C     C_R   0.686069 0.935852 0.207178 -0.026655
C32   C     C_R   0.065954 0.748371 0.206412 -0.033773
C33   C     C_R   0.249982 0.315273 0.206555 -0.024847
C34   C     C_R   0.238322 0.787254 0.429462 0.552690
C35   C     C_R   0.212877 0.451177 0.429417 0.553617
C36   C     C_R   0.549214 0.761745 0.429501 0.554805
C37   C     C_R   0.714966 0.026488 0.238244 0.188192
C38   C     C_R   0.975815 0.685574 0.237024 0.225250
C39   C     C_R   0.311049 0.285362 0.237439 0.192103
C40   C     C_R   0.716260 0.011377 0.289338 0.217526
C41   C     C_R   0.989827 0.701744 0.288187 0.238395
C42   C     C_R   0.294897 0.284154 0.288527 0.216225
C43   C     C_R   0.720308 0.951052 0.158291 -0.081511
C44   C     C_R   0.050542 0.768414 0.157687 -0.081431
C45   C     C_R   0.230716 0.280888 0.157659 -0.080296
C46   C     C_R   0.707739 0.862241 0.130189 -0.020024
C47   C     C_R   0.138649 0.845304 0.130034 -0.019050
C48   C     C_R   0.154455 0.293578 0.129814 -0.019662
C49   C     C_R   0.572371 0.691045 0.347436 0.235659
C50   C     C_R   0.308771 0.879401 0.347349 0.233839
C51   C     C_R   0.120282 0.430097 0.347285 0.225539
C52   C     C_R   0.569272 0.704908 0.296480 0.016302
C53   C     C_R   0.295337 0.861826 0.296406 0.012479
C54   C     C_R   0.137362 0.433692 0.296341 0.004784
C55   C     C_R   0.616818 0.812441 0.277231 -0.014593
C56   C     C_R   0.188347 0.802111 0.276857 -0.018310
C57   C     C_R   0.196835 0.385529 0.276848 -0.014974
C58   C     C_R   0.524806 0.614796 0.264001 -0.106004
C59   C     C_R   0.385335 0.907093 0.264186 -0.103333
C60   C     C_R   0.091933 0.478772 0.264087 -0.094853
C61   C     C_R   0.544717 0.630875 0.213939 -0.103775
C62   C     C_R   0.369516 0.911482 0.214101 -0.097719
C63   C     C_R   0.087966 0.458896 0.213971 -0.091114
C64   C     C_R   0.604669 0.737402 0.195398 0.043939
C65   C     C_R   0.263388 0.865540 0.195289 0.044689
C66   C     C_R   0.133874 0.398091 0.195186 0.039314
C67   C     C_3   0.610058 0.888151 0.736588 -0.079220
C68   C     C_3   0.113811 0.697979 0.735498 -0.077194
C69   C     C_3   0.274820 0.401015 0.737653 -0.069945
C70   C     C_R   0.634022 0.828519 0.226533 0.022113
C71   C     C_R   0.172652 0.803503 0.226115 0.018078
C72   C     C_R   0.195394 0.368196 0.226122 0.020563
C73   C     C_R   0.642779 0.754884 0.147247 -0.091627
C74   C     C_R   0.245772 0.887126 0.147243 -0.089948
C75   C     C_R   0.112645 0.359412 0.147037 -0.091266
C76   C     C_R   0.591840 0.781209 0.378745 -0.003286
C77   C     C_R   0.218878 0.809757 0.378508 -0.002290
C78   C     C_R   0.190401 0.409641 0.378436 -0.000870
C79   C     C_3   0.800630 0.922241 0.712586 -0.208743
C80   C     C_3   0.099629 0.871966 0.723528 -0.207711
C81   C     C_3   0.140166 0.202202 0.712914 -0.202169
C82   C     C_3   0.834184 0.938897 0.767252 -0.255742
C83   C     C_3   0.085542 0.876429 0.779589 -0.264815
C84   C     C_3   0.133660 0.172024 0.767869 -0.252894
C85   C     C_1   0.801198 0.897438 0.894173 0.002665
C86   C     C_1   0.126883 0.860690 0.902997 0.035916
C87   C     C_1   0.097745 0.198801 0.894146 0.009884
C88   C     C_3   0.675871 0.843030 0.707472 0.045745
C89   C     C_3   0.167910 0.815516 0.711966 0.052504
C90   C     C_3   0.168969 0.323735 0.707390 0.032028
C91   C     C_3   0.647966 0.909428 0.791816 -0.063799
C92   C     C_3   0.099775 0.705183 0.792482 -0.056210
C93   C     C_3   0.256649 0.369287 0.793704 -0.048346
C94   C     C_3   0.733970 0.871238 0.800894 0.023735
C95   C     C_3   0.148117 0.828297 0.807957 0.034000
C96   C     C_3   0.140656 0.265983 0.800881 0.015134
Cr1   Cr    Cr6+3 0.164410 0.584450 0.499910 1.101615
Cr2   Cr    Cr6+3 0.415550 0.579960 0.499910 1.101297
Cr3   Cr    Cr6+3 0.420040 0.835590 0.499910 1.102934
Cr4   Cr    Cr6+3 0.155170 0.075460 0.019960 1.082978
Cr5   Cr    Cr6+3 0.924540 0.079710 0.019960 1.088194
Cr6   Cr    Cr6+3 0.920290 0.844830 0.019960 1.072159
H1    H     H_    0.522934 0.821060 0.736742 0.080497
H2    H     H_    0.173291 0.667901 0.730724 0.076301
H3    H     H_    0.286725 0.485639 0.734982 0.089402
H4    H     H_    0.575050 0.857271 0.814758 0.192770
H5    H     H_    0.149231 0.673532 0.810694 0.230367
H6    H     H_    0.257784 0.439120 0.813541 0.220948
H7    H     H_    0.749823 0.725520 0.789910 0.090072
H8    H     H_    0.299369 0.984773 0.799944 0.114360
H9    H     H_    0.970939 0.214065 0.782787 0.075146
H10   H     H_    0.769598 0.032938 0.143753 0.205779
H11   H     H_    0.968767 0.735996 0.143061 0.206684
H12   H     H_    0.263087 0.231141 0.142956 0.207476
H13   H     H_    0.659834 0.954000 0.383942 0.215101
H14   H     H_    0.046866 0.705825 0.383274 0.216406
H15   H     H_    0.294867 0.341017 0.383212 0.215064
H16   H     H_    0.629272 0.685818 0.124420 0.158127
H17   H     H_    0.314412 0.942985 0.124702 0.158821
H18   H     H_    0.057156 0.373122 0.124376 0.159187
H19   H     H_    0.516741 0.560094 0.190056 0.165880
H20   H     H_    0.440118 0.954369 0.190452 0.167132
H21   H     H_    0.045518 0.487433 0.190232 0.176278
H22   H     H_    0.476823 0.531448 0.277133 0.157223
H23   H     H_    0.468378 0.942157 0.277574 0.158484
H24   H     H_    0.056737 0.527061 0.277460 0.170072
H25   H     H_    0.846236 0.887550 0.693073 0.118206
H26   H     H_    0.141903 0.957140 0.708737 0.115114
H27   H     H_    0.059683 0.147573 0.695196 0.112559
H28   H     H_    0.825372 0.002791 0.695268 0.181574
H29   H     H_    0.018210 0.828787 0.705464 0.178758
H30   H     H_    0.200820 0.186329 0.693972 0.182689
H31   H     H_    0.873127 0.027131 0.776570 0.104555
H32   H     H_    0.997295 0.831136 0.789004 0.102299
H33   H     H_    0.200564 0.154657 0.776812 0.122135
H34   H     H_    0.896686 0.913914 0.773346 0.104428
H35   H     H_    0.116431 0.962901 0.791009 0.103327
H36   H     H_    0.056417 0.094848 0.774795 0.098217
H37   H     H_    0.561385 0.671827 0.726241 0.141675
H38   H     H_    0.333148 0.846369 0.728195 0.093380
H39   H     H_    0.092615 0.421848 0.726897 0.138980
H40   H     H_    0.694800 0.696741 0.711024 0.137414
H41   H     H_    0.325389 0.968468 0.719365 0.131710
H42   H     H_    0.997430 0.286065 0.706877 0.135227
O1    O     O_R   0.137150 0.468200 0.553200 -0.495046
O2    O     O_R   0.531800 0.668950 0.553200 -0.496163
O3    O     O_R   0.331050 0.862850 0.553200 -0.494327
O4    O     O_R   0.179100 0.982980 0.967000 -0.507162
O5    O     O_R   0.017020 0.196120 0.967000 -0.485222
O6    O     O_R   0.803880 0.820900 0.967000 -0.482701
O7    O     O_R   0.173970 0.688730 0.549930 -0.495318
O8    O     O_R   0.311270 0.485240 0.549930 -0.496661
O9    O     O_R   0.514760 0.826030 0.549930 -0.494543
O10   O     O_R   0.140110 0.470540 0.446010 -0.426315
O11   O     O_R   0.529460 0.669570 0.446010 -0.427114
O12   O     O_R   0.330430 0.859890 0.446010 -0.426387
O13   O     O_R   0.176710 0.690910 0.450560 -0.473966
O14   O     O_R   0.309090 0.485800 0.450560 -0.475653
O15   O     O_R   0.514200 0.823290 0.450560 -0.474349
O16   O     O_3   0.333333 0.666667 0.499990 -0.323936
O17   O     O_R   0.176750 0.985260 0.074180 -0.486953
O18   O     O_R   0.014740 0.191490 0.074180 -0.486282
O19   O     O_R   0.808510 0.823250 0.074180 -0.484764
O20   O     O_R   0.146100 0.172630 0.068980 -0.487955
O21   O     O_R   0.827370 0.973470 0.068980 -0.488982
O22   O     O_R   0.026530 0.853900 0.068980 -0.493072
O23   O     O_3   0.000000 0.000000 0.020040 -0.291264
O24   O     O_R   0.148270 0.170520 0.969620 -0.472977
O25   O     O_R   0.829480 0.977750 0.969620 -0.485417
O26   O     O_R   0.022250 0.851730 0.969620 -0.523056
C97   C     C_2   0.689566 0.026795 0.808939 0.224359
H43   H     H_    0.758278 0.094989 0.790955 0.147100
O27   O     O_2   0.646087 0.045892 0.843370 -0.487732
C98   C     C_2   0.983153 0.634254 0.810606 0.252477
H44   H     H_    0.917270 0.645515 0.796543 0.141106
O28   O     O_2   0.962060 0.563828 0.841586 -0.454001
C99   C     C_2   0.346789 0.354940 0.817140 0.260385
H45   H     H_    0.363596 0.291291 0.804752 0.152181
O29   O     O_2   0.400960 0.414408 0.850893 -0.461271
S1    S     S_3+6 0.739126 0.153820 0.212804 0.034443
O30   O     O_2   0.853422 0.215325 0.192658 -0.264813
O31   O     O_2   0.659971 0.131693 0.171488 -0.270282
O32   O     O_3   0.722487 0.232432 0.254555 -0.416316
H46   H     H_    0.643885 0.190786 0.263204 0.399606
S2    S     S_3+6 0.851155 0.580833 0.210900 0.029907
O33   O     O_2   0.785740 0.630459 0.191012 -0.296905
O34   O     O_2   0.877723 0.527302 0.169381 -0.279119
O35   O     O_3   0.776404 0.483867 0.252304 -0.423990
H47   H     H_    0.721694 0.421240 0.232623 0.417592
S3    S     S_3+6 0.413201 0.260031 0.211860 0.018796
O36   O     O_2   0.360288 0.145386 0.191409 -0.265613
O37   O     O_2   0.470396 0.339530 0.170806 -0.278768
O38   O     O_3   0.507384 0.275596 0.253702 -0.454397
H48   H     H_    0.538372 0.352264 0.265315 0.381325
S4    S     S_3+6 0.813791 0.120104 0.326237 0.118084
O39   O     O_2   0.762196 0.183402 0.346496 -0.176181
O40   O     O_2   0.851235 0.077439 0.368211 -0.215394
O41   O     O_3   0.925485 0.200536 0.292675 -0.455774
H49   H     H_    0.914309 0.259811 0.279775 0.415758
S5    S     S_3+6 0.879260 0.688141 0.324431 0.129638
O42   O     O_2   0.818407 0.573489 0.344560 -0.150444
O43   O     O_2   0.918893 0.768241 0.366449 -0.221137
O44   O     O_3   0.797240 0.716841 0.290168 -0.459641
H50   H     H_    0.739619 0.645795 0.277313 0.409794
S6    S     S_3+6 0.305156 0.185516 0.325217 0.115535
O45   O     O_2   0.418815 0.236823 0.346129 -0.181036
O46   O     O_2   0.224465 0.147806 0.366742 -0.213874
O47   O     O_3   0.275040 0.073722 0.291328 -0.455030
H51   H     H_    0.345381 0.085013 0.278641 0.414780
C100  C     C_2   0.607104 0.983376 0.711534 0.211507
H52   H     H_    0.528864 0.978712 0.704823 0.106483
O48   O     O_2   0.690879 0.066189 0.699482 -0.509982
C101  C     C_2   0.011700 0.613344 0.708787 0.228812
H53   H     H_    0.007083 0.537763 0.696035 0.120044
O49   O     O_2   0.933731 0.627384 0.701922 -0.517572
C102  C     C_2   0.377852 0.409685 0.715436 0.230427
H54   H     H_    0.440512 0.487870 0.701110 0.112709
O50   O     O_2   0.391308 0.330251 0.712545 -0.516987
S7    S     S_3+6 0.584837 0.576919 0.370170 0.074433
O51   O     O_2   0.602653 0.513482 0.330368 -0.268128
O52   O     O_2   0.680536 0.621246 0.404855 -0.172596
O53   O     O_3   0.473054 0.487937 0.400884 -0.525901
H55   H     H_    0.492966 0.436532 0.416575 0.383360
S8    S     S_3+6 0.421766 0.005916 0.370062 0.075077
O54   O     O_2   0.484206 0.086501 0.330204 -0.256695
O55   O     O_2   0.376783 0.057333 0.404641 -0.170990
O56   O     O_3   0.511452 0.983746 0.401005 -0.526790
H56   H     H_    0.562082 0.055082 0.416668 0.382976
S9    S     S_3+6 0.993771 0.416894 0.369929 0.081537
O57   O     O_2   0.913317 0.399848 0.329981 -0.206586
O58   O     O_2   0.943066 0.320133 0.404023 -0.174477
O59   O     O_3   0.014935 0.527875 0.401555 -0.527034
H57   H     H_    0.943617 0.507195 0.417054 0.383352
C103  C     C_2   0.591827 0.669956 0.818998 0.245417
H58   H     H_    0.609614 0.631752 0.849535 0.163179
O60   O     O_2   0.498208 0.651851 0.813052 -0.488423
C104  C     C_2   0.350484 0.872079 0.819844 0.228146
H59   H     H_    0.436515 0.917501 0.810347 0.138796
O61   O     O_2   0.320932 0.804106 0.852602 -0.453880
C105  C     C_2   0.033405 0.368848 0.816284 0.244621
H60   H     H_    0.961154 0.336028 0.839328 0.158348
O62   O     O_2   0.100482 0.466565 0.818636 -0.490615

loop_
_geom_bond_atom_site_label_1
_geom_bond_atom_site_label_2
_ccdc_geom_bond_type
C8    H38   S    
Cr6   O26   S    
C15   C18   T    
C97   H43   S    
S8    O56   S    
C84   H33   S    
S3    O36   D    
C82   C94   S    
Cr3   O15   S    
C26   C29   A    
C51   S9    S    
C33   C45   A    
C6    H9    S    
C48   C75   A    
C35   O10   A    
C83   H35   S    
C4    H7    S    
C27   C78   A    
S8    O54   D    
C6    C9    S    
C53   C59   A    
C67   H1    S    
C10   C85   T    
Cr2   O8    S    
C101  H53   S    
C25   C28   A    
C20   O21   A    
C97   O27   D    
C50   S8    S    
C67   C88   S    
Cr6   O23   S    
C31   C43   A    
C42   S6    S    
Cr4   O23   S    
C1    O3    A    
Cr5   O18   S    
C102  O50   D    
C37   C40   A    
C69   C93   S    
C25   H13   S    
C34   C77   S    
C64   C70   A    
S6    O47   S    
C2    C18   S    
C5    H8    S    
C10   C94   S    
C11   C86   T    
S4    O40   D    
C30   C57   A    
C3    O9    A    
C67   C100  S    
C61   H19   S    
C84   C96   S    
C80   C89   S    
Cr5   O23   S    
C7    C88   S    
C22   O5    A    
C98   H44   S    
C105  H60   S    
C83   H32   S    
C79   H25   S    
C36   C76   S    
C33   C72   A    
C45   H12   S    
C28   C55   A    
C31   C70   A    
C66   C72   A    
S2    O33   D    
Cr2   O14   S    
S5    O42   D    
C99   O29   D    
S3    O37   D    
C64   C73   A    
Cr5   O25   S    
Cr4   O17   S    
C32   C38   A    
C39   C42   A    
C24   O26   A    
C36   O15   A    
C52   C55   A    
C22   C87   S    
C22   O24   A    
C56   C71   A    
C58   C61   A    
C101  O49   D    
C63   C66   A    
C84   H36   S    
Cr6   O22   S    
C80   H29   S    
Cr3   O16   S    
C27   C30   A    
C91   H4    S    
C69   C102  S    
C103  O60   D    
C41   S5    S    
C105  O62   D    
C79   C88   S    
C5    C95   S    
C9    H42   S    
S1    O31   D    
C32   C71   A    
C26   H14   S    
C27   H15   S    
C2    O8    A    
C26   C77   A    
C21   O17   A    
Cr6   O19   S    
C50   C53   A    
Cr1   O16   S    
C102  H54   S    
C38   C41   A    
C24   O4    A    
S7    O51   D    
C39   S3    S    
C69   H3    S    
C19   C48   S    
O47   H51   S    
C81   H30   S    
C54   C60   A    
Cr2   O2    S    
C92   C98   S    
S6    O45   D    
C79   H28   S    
C6    C105  S    
C92   C95   S    
C21   O22   A    
C31   C37   A    
O35   H47   S    
C2    O1    A    
C19   O18   A    
Cr1   O13   S    
C61   C64   A    
O32   H46   S    
C34   O13   A    
C14   C89   S    
S9    O57   D    
C74   H17   S    
S7    O52   D    
S1    O32   S    
C103  H58   S    
C92   H5    S    
C81   H27   S    
O56   H56   S    
C23   O25   A    
C7    H40   S    
C49   C52   A    
C83   C95   S    
Cr3   O12   S    
C67   C91   S    
C68   C89   S    
Cr1   O7    S    
C49   C76   A    
Cr4   O20   S    
C33   C39   A    
Cr1   O10   S    
Cr5   O21   S    
C68   C101  S    
O41   H49   S    
C52   C58   A    
Cr6   O6    S    
C4    C94   S    
C81   C90   S    
S5    O43   D    
C23   O6    A    
C49   S7    S    
C44   H11   S    
C99   H45   S    
C93   C96   S    
C6    C96   S    
C104  O61   D    
Cr1   O1    S    
S3    O38   S    
C5    C8    S    
C59   H23   S    
C43   H10   S    
C69   C90   S    
C50   C77   A    
C62   H20   S    
C81   C84   S    
S1    O30   D    
C80   C83   S    
C5    C104  S    
C45   C48   A    
C11   C95   S    
C37   S1    S    
Cr3   O3    S    
Cr2   O11   S    
C59   C62   A    
C9    H39   S    
C73   H16   S    
C62   C65   A    
C29   C41   A    
C4    C103  S    
C30   C42   A    
C75   H18   S    
C68   H2    S    
C47   C74   A    
Cr2   O16   S    
C58   H22   S    
S2    O35   S    
S8    O55   D    
C9    C90   S    
C79   C82   S    
C63   H21   S    
C44   C47   A    
C29   C56   A    
C34   O12   A    
S9    O59   S    
C38   S2    S    
C80   H26   S    
C35   C78   S    
C100  O48   D    
C91   C97   S    
Cr4   O24   S    
C51   C54   A    
C25   C76   A    
C82   H31   S    
C60   H24   S    
C51   C78   A    
C93   H6    S    
C65   C71   A    
S2    O34   D    
C91   C94   S    
C7    H37   S    
C4    C7    S    
C15   C90   S    
C12   C87   T    
Cr4   O4    S    
S5    O44   S    
C66   C75   A    
Cr3   O9    S    
C13   C88   S    
Cr5   O5    S    
O59   H57   S    
C68   C92   S    
C1    O7    A    
C8    H41   S    
C19   O20   A    
C100  H52   S    
C57   C72   A    
C82   H34   S    
O53   H55   S    
C43   C46   A    
C98   O28   D    
C35   O14   A    
C55   C70   A    
C60   C63   A    
C65   C74   A    
S4    O39   D    
S4    O41   S    
C1    C17   S    
C32   C44   A    
C3    O2    A    
S9    O58   D    
O38   H48   S    
C23   C85   S    
C13   C16   T    
C53   C56   A    
C28   C40   A    
C12   C96   S    
C8    C89   S    
O44   H50   S    
C93   C99   S    
C104  H59   S    
S6    O46   D    
C24   C86   S    
C54   C57   A    
C46   C73   A    
C20   C46   S    
C3    C16   S    
C36   O11   A    
C21   C47   S    
C20   O19   A    
S7    O53   S    
C40   S4    S    
C14   C17   T    
