data_mof_unit_10447.cif
_audit_creation_date              2012-12-10T18:48:43-0500
_audit_creation_method            fapswitch 2.2
_symmetry_space_group_name_H-M    P1
_symmetry_Int_Tables_number       1
_space_group_crystal_system       triclinic
_cell_length_a                    15.432501
_cell_length_b                    14.855475
_cell_length_c                    9.945129
_cell_angle_alpha                 89.999958
_cell_angle_beta                  90.240245
_cell_angle_gamma                 90.0
_cell_volume                      2279.97171664

loop_
_atom_site_label
_atom_site_type_symbol
_atom_type_description
_atom_site_fract_x
_atom_site_fract_y
_atom_site_fract_z
_atom_type_partial_charge
C1    C     C_R   0.119817 0.380014 0.500121 0.870577
C2    C     C_R   0.997761 0.420586 0.928026 0.013821
C3    C     C_R   0.002239 0.420586 0.071974 0.013817
C4    C     C_R   0.997761 0.579414 0.928026 0.013818
C5    C     C_R   0.502238 0.079414 0.071974 0.013820
C6    C     C_R   0.497762 0.920586 0.928026 0.013820
C7    C     C_R   0.502239 0.920586 0.071974 0.013817
C8    C     C_R   0.497761 0.079414 0.928026 0.013818
C9    C     C_R   0.792551 0.270149 0.379727 -0.165835
C10   C     C_R   0.207448 0.729852 0.620273 -0.165835
C11   C     C_R   0.228645 0.706162 0.379916 -0.138019
C12   C     C_R   0.880183 0.619986 0.499879 0.870576
C13   C     C_R   0.771356 0.293837 0.620084 -0.138020
C14   C     C_R   0.207445 0.270145 0.620272 -0.165835
C15   C     C_R   0.792555 0.729855 0.379728 -0.165835
C16   C     C_R   0.771351 0.706158 0.620082 -0.138014
C17   C     C_R   0.228648 0.293841 0.379918 -0.138015
C18   C     C_R   0.292552 0.770148 0.379727 -0.165835
C19   C     C_R   0.707449 0.229851 0.620273 -0.165835
C20   C     C_R   0.728644 0.206163 0.379916 -0.138020
C21   C     C_R   0.271355 0.793838 0.620084 -0.138019
C22   C     C_R   0.707445 0.770145 0.620271 -0.165835
C23   C     C_R   0.880183 0.380014 0.499879 0.870577
C24   C     C_R   0.292555 0.229855 0.379728 -0.165835
C25   C     C_R   0.271352 0.206159 0.620082 -0.138015
C26   C     C_R   0.728648 0.793842 0.379918 -0.138014
C27   C     C_R   0.186207 0.686212 0.500170 -0.042184
C28   C     C_R   0.813792 0.313788 0.499830 -0.042184
C29   C     C_R   0.813792 0.686212 0.499830 -0.042183
C30   C     C_R   0.186207 0.313788 0.500170 -0.042184
C31   C     C_R   0.686208 0.186212 0.500170 -0.042184
C32   C     C_R   0.313792 0.813788 0.499830 -0.042184
C33   C     C_R   0.313792 0.186212 0.499830 -0.042184
C34   C     C_R   0.119817 0.619986 0.500121 0.870576
C35   C     C_R   0.686207 0.813788 0.500170 -0.042183
C36   C     C_2   0.017888 0.665098 0.144543 0.499016
C37   C     C_2   0.982112 0.334902 0.855457 0.499014
C38   C     C_2   0.017889 0.334903 0.144544 0.499030
C39   C     C_2   0.982111 0.665097 0.855456 0.499030
C40   C     C_2   0.517888 0.165097 0.144543 0.499015
C41   C     C_2   0.482112 0.834902 0.855457 0.499016
C42   C     C_2   0.517889 0.834903 0.144544 0.499030
C43   C     C_2   0.482111 0.165097 0.855456 0.499030
C44   C     C_R   0.619816 0.880014 0.500121 0.870576
C45   C     C_R   0.380183 0.119986 0.499879 0.870577
C46   C     C_R   0.380183 0.880014 0.499879 0.870577
C47   C     C_R   0.619816 0.119986 0.500121 0.870577
C48   C     C_R   0.002238 0.579414 0.071974 0.013820
H1    H     H_    0.825366 0.284865 0.286178 0.166813
H2    H     H_    0.674634 0.215135 0.713822 0.166813
H3    H     H_    0.713037 0.172189 0.286498 0.189010
H4    H     H_    0.286961 0.827813 0.713500 0.189009
H5    H     H_    0.674627 0.784856 0.713819 0.166811
H6    H     H_    0.325372 0.215143 0.286181 0.166811
H7    H     H_    0.286956 0.172181 0.713498 0.189008
H8    H     H_    0.713044 0.827820 0.286502 0.189007
H9    H     H_    0.987583 0.679285 0.239200 0.101278
H10   H     H_    0.012417 0.320715 0.760800 0.101279
H11   H     H_    0.987582 0.320714 0.239198 0.101275
H12   H     H_    0.174632 0.715137 0.713821 0.166813
H13   H     H_    0.012418 0.679285 0.760802 0.101275
H14   H     H_    0.487583 0.179285 0.239200 0.101279
H15   H     H_    0.512416 0.820715 0.760800 0.101279
H16   H     H_    0.487582 0.820714 0.239198 0.101274
H17   H     H_    0.512418 0.179286 0.760802 0.101275
H18   H     H_    0.213039 0.672186 0.286500 0.189009
H19   H     H_    0.786963 0.327811 0.713501 0.189010
H20   H     H_    0.174627 0.284857 0.713819 0.166811
H21   H     H_    0.825373 0.715143 0.286181 0.166811
H22   H     H_    0.786956 0.672180 0.713498 0.189007
H23   H     H_    0.213044 0.327819 0.286502 0.189008
H24   H     H_    0.325368 0.784863 0.286179 0.166812
N1    N     N_R   1.000000 0.500000 0.857200 -0.189387
N2    N     N_R   1.000000 0.500000 0.142800 -0.189387
N3    N     N_R   0.500000 0.000000 0.857200 -0.189387
N4    N     N_R   0.500000 0.000000 0.142800 -0.189387
O1    O     O_R   0.091610 0.408380 0.614620 -0.647560
O2    O     O_R   0.408390 0.091620 0.385380 -0.647560
O3    O     O_R   0.408390 0.091620 0.614620 -0.641639
O4    O     O_R   0.591610 0.908380 0.385380 -0.641639
O5    O     O_R   0.408390 0.908380 0.385380 -0.647560
O6    O     O_R   0.591610 0.091620 0.614620 -0.647560
O7    O     O_R   0.591610 0.091620 0.385380 -0.641641
O8    O     O_R   0.408390 0.908380 0.614620 -0.641641
O9    O     O_2   0.067629 0.721256 0.099172 -0.577262
O10   O     O_2   0.932372 0.278744 0.900828 -0.577263
O11   O     O_2   0.067632 0.278746 0.099176 -0.577259
O12   O     O_R   0.908390 0.591620 0.385380 -0.647560
O13   O     O_2   0.932368 0.721254 0.900824 -0.577260
O14   O     O_2   0.567629 0.221256 0.099172 -0.577263
O15   O     O_2   0.432372 0.778744 0.900828 -0.577263
O16   O     O_2   0.567632 0.778746 0.099176 -0.577259
O17   O     O_2   0.432368 0.221254 0.900824 -0.577259
O18   O     O_R   0.908390 0.591620 0.614620 -0.641639
O19   O     O_R   0.091610 0.408380 0.385380 -0.641639
O20   O     O_R   0.908390 0.408380 0.385380 -0.647560
O21   O     O_R   0.091610 0.591620 0.614620 -0.647560
O22   O     O_R   0.091610 0.591620 0.385380 -0.641641
O23   O     O_R   0.908390 0.408380 0.614620 -0.641641
O24   O     O_R   0.591610 0.908380 0.614620 -0.647559
Zn1   Zn    Zn3+2 1.000000 0.500000 0.653120 0.933350
Zn2   Zn    Zn3+2 1.000000 0.500000 0.346880 0.933350
Zn3   Zn    Zn3+2 0.500000 0.000000 0.653120 0.933350
Zn4   Zn    Zn3+2 0.500000 0.000000 0.346880 0.933350

loop_
_geom_bond_atom_site_label_1
_geom_bond_atom_site_label_2
_ccdc_geom_bond_type
C10   C27   A    
N4    Zn4   S    
C23   O23   A    
C11   C18   A    
O20   Zn2   S    
C12   C29   S    
C1    O1    A    
O1    Zn1   S    
C2    C37   S    
C8    C43   S    
C19   C31   A    
C6    N3    A    
C22   C35   A    
O4    Zn4   S    
C20   H3    S    
C4    C48   A    
C7    C42   S    
C24   H6    S    
C34   O21   A    
C40   H14   S    
C23   O20   A    
C47   O6    A    
C3    N2    A    
C43   O17   D    
C3    C38   S    
C6    C41   S    
O6    Zn3   S    
C13   C28   A    
C45   O2    A    
C47   O7    A    
C37   H10   S    
C11   H18   S    
C43   H17   S    
N2    Zn2   S    
N1    Zn1   S    
C10   C21   A    
C31   C47   S    
N3    Zn3   S    
C17   C30   A    
O3    Zn3   S    
C14   C30   A    
C39   H13   S    
C15   C29   A    
C22   H5    S    
C27   C34   S    
C18   H24   S    
C15   H21   S    
C21   C32   A    
C17   C24   A    
O7    Zn4   S    
C13   C19   A    
O2    Zn4   S    
C48   N2    A    
C37   O10   D    
C44   O4    A    
C16   H22   S    
O18   Zn1   S    
C36   H9    S    
C12   O12   A    
C44   O24   A    
C15   C26   A    
C16   C29   A    
O22   Zn2   S    
O24   Zn3   S    
C10   H12   S    
C33   C45   S    
C46   O5    A    
C9    C20   A    
C4    C39   S    
C11   C27   A    
C1    O19   A    
C9    H1    S    
C45   O3    A    
C23   C28   S    
C35   C44   S    
C4    N1    A    
C7    N4    A    
C2    N1    A    
C46   O8    A    
C41   O15   D    
C17   H23   S    
C18   C32   A    
C41   H15   S    
C42   H16   S    
C13   H19   S    
C16   C22   A    
O23   Zn1   S    
C32   C46   S    
C25   H7    S    
C26   H8    S    
C5    C8    A    
O12   Zn2   S    
O19   Zn2   S    
C6    C7    A    
O5    Zn4   S    
C36   O9    D    
C24   C33   A    
C38   O11   D    
C5    N4    A    
C2    C3    A    
C12   O18   A    
C19   H2    S    
C1    C30   S    
C34   O22   A    
C36   C48   S    
C42   O16   D    
C8    N3    A    
C14   C25   A    
C38   H11   S    
C26   C35   A    
C5    C40   S    
O8    Zn3   S    
C14   H20   S    
C40   O14   D    
C39   O13   D    
C21   H4    S    
O21   Zn1   S    
C9    C28   A    
C25   C33   A    
C20   C31   A    
