data_mof_unit_37254.cif
_audit_creation_date              2012-12-10T19:09:26-0500
_audit_creation_method            fapswitch 2.2
_symmetry_space_group_name_H-M    P1
_symmetry_Int_Tables_number       1
_space_group_crystal_system       triclinic
_cell_length_a                    14.591998
_cell_length_b                    15.918831
_cell_length_c                    9.855814
_cell_angle_alpha                 89.860691
_cell_angle_beta                  89.849879
_cell_angle_gamma                 89.955358
_cell_volume                      2289.36757954

loop_
_atom_site_label
_atom_site_type_symbol
_atom_type_description
_atom_site_fract_x
_atom_site_fract_y
_atom_site_fract_z
_atom_type_partial_charge
C1    C     C_R   0.123028 0.381077 0.499283 0.930760
C2    C     C_R   0.125752 0.616457 0.500468 0.917511
C3    C     C_R   0.623028 0.881077 0.499283 0.930764
C4    C     C_R   0.625752 0.116457 0.500468 0.917524
C5    C     C_3   0.904641 0.504287 0.079758 -0.175860
C6    C     C_3   0.904683 0.494470 0.920606 -0.195294
C7    C     C_3   0.404641 0.004289 0.079758 -0.175873
C8    C     C_3   0.404683 0.994470 0.920606 -0.195285
C9    C     C_R   0.874667 0.382471 0.500206 0.824468
C10   C     C_R   0.875559 0.618279 0.500194 0.799944
C11   C     C_R   0.374668 0.882470 0.500206 0.824439
C12   C     C_R   0.375558 0.118279 0.500194 0.799936
C13   C     C_3   0.812470 0.265853 0.637683 -0.438410
C14   C     C_3   0.832077 0.250106 0.389459 -0.405231
C15   C     C_3   0.807470 0.730177 0.360173 -0.379835
C16   C     C_3   0.834991 0.753270 0.605481 -0.486199
C17   C     C_3   0.312464 0.765857 0.637690 -0.438407
C18   C     C_3   0.332085 0.750099 0.389473 -0.405228
C19   C     C_3   0.307473 0.230180 0.360176 -0.379823
C20   C     C_3   0.334987 0.253266 0.605487 -0.486191
C21   C     C_3   0.245933 0.691571 0.641900 -0.222214
C22   C     C_3   0.258807 0.682541 0.376832 -0.214316
C23   C     C_3   0.238722 0.302319 0.354284 -0.222593
C24   C     C_3   0.263235 0.323198 0.614555 -0.147280
C25   C     C_3   0.745936 0.191570 0.641898 -0.222214
C26   C     C_3   0.758805 0.182542 0.376830 -0.214331
C27   C     C_3   0.738719 0.802317 0.354282 -0.222599
C28   C     C_3   0.763238 0.823201 0.614550 -0.147277
C29   C     C_3   0.702205 0.345946 0.483062 -0.008902
C30   C     C_3   0.704854 0.653815 0.531903 -0.002765
C31   C     C_3   0.202208 0.845945 0.483051 -0.008888
C32   C     C_3   0.204853 0.153813 0.531895 -0.002764
C33   C     C_3   0.805237 0.314144 0.501026 0.028282
C34   C     C_3   0.805681 0.686120 0.500470 -0.062960
C35   C     C_3   0.305238 0.814142 0.501027 0.028298
C36   C     C_3   0.305681 0.186120 0.500470 -0.062961
C37   C     C_3   0.193253 0.685375 0.502804 -0.034986
C38   C     C_3   0.191633 0.313128 0.497365 -0.002478
C39   C     C_3   0.693253 0.185375 0.502803 -0.034967
C40   C     C_3   0.691633 0.813129 0.497365 -0.002473
C41   C     C_3   0.137226 0.767835 0.491164 -0.467148
C42   C     C_3   0.138272 0.230825 0.525088 -0.420914
C43   C     C_3   0.637226 0.267834 0.491168 -0.467176
C44   C     C_3   0.638274 0.730826 0.525095 -0.420925
C45   C     C_3   0.043200 0.422783 0.082875 -0.165502
C46   C     C_3   0.053297 0.427987 0.921733 -0.109701
C47   C     C_3   0.042464 0.577627 0.916901 -0.144997
C48   C     C_3   0.051738 0.572868 0.078208 -0.118283
C49   C     C_3   0.543199 0.922783 0.082875 -0.165501
C50   C     C_3   0.553297 0.927987 0.921733 -0.109700
C51   C     C_3   0.542464 0.077627 0.916901 -0.145004
C52   C     C_3   0.551739 0.072868 0.078208 -0.118279
N1    N     N_3   0.998760 0.500000 0.138610 -0.110400
N2    N     N_3   0.998760 0.500000 0.861390 -0.100235
N3    N     N_3   0.498760 1.000000 0.138610 -0.110398
N4    N     N_3   0.498760 1.000000 0.861390 -0.100235
O1    O     O_R   0.092530 0.407440 0.616040 -0.626357
O2    O     O_R   0.092530 0.407440 0.383960 -0.656129
O3    O     O_R   0.092530 0.592560 0.383960 -0.627166
O4    O     O_R   0.092530 0.592560 0.616040 -0.636805
O5    O     O_R   0.592530 0.907440 0.616040 -0.626361
O6    O     O_R   0.592530 0.907440 0.383960 -0.656125
O7    O     O_R   0.592530 0.092560 0.383960 -0.627158
O8    O     O_R   0.592530 0.092560 0.616040 -0.636807
O9    O     O_R   0.907330 0.407420 0.616040 -0.615092
O10   O     O_R   0.907330 0.407420 0.383960 -0.597034
O11   O     O_R   0.907330 0.592580 0.383960 -0.591126
O12   O     O_R   0.907330 0.592580 0.616040 -0.648084
O13   O     O_R   0.407330 0.907420 0.616040 -0.615086
O14   O     O_R   0.407330 0.907420 0.383960 -0.597046
O15   O     O_R   0.407330 0.092580 0.383960 -0.591128
O16   O     O_R   0.407330 0.092580 0.616040 -0.648083
Zn1   Zn    Zn3+2 0.999890 0.500000 0.654960 0.957301
Zn2   Zn    Zn3+2 0.999890 0.500000 0.345040 0.977003
Zn3   Zn    Zn3+2 0.499890 0.000000 0.654960 0.957300
Zn4   Zn    Zn3+2 0.499890 1.000000 0.345040 0.977000
H1    H     H_    0.797548 0.307598 0.725399 0.219984
H2    H     H_    0.839626 0.280279 0.289384 0.281134
H3    H     H_    0.792005 0.685498 0.276639 0.210169
H4    H     H_    0.841736 0.725274 0.707336 0.234327
H5    H     H_    0.297536 0.807605 0.725401 0.219976
H6    H     H_    0.339652 0.780265 0.289396 0.281137
H7    H     H_    0.292010 0.185502 0.276639 0.210174
H8    H     H_    0.341728 0.225268 0.707341 0.234328
H9    H     H_    0.884520 0.243944 0.649360 0.222000
H10   H     H_    0.900482 0.222537 0.413451 0.144889
H11   H     H_    0.878354 0.753884 0.343230 0.218520
H12   H     H_    0.903938 0.778401 0.577902 0.174286
H13   H     H_    0.384514 0.743950 0.649379 0.222014
H14   H     H_    0.400483 0.722523 0.413486 0.144876
H15   H     H_    0.378358 0.253887 0.343237 0.218515
H16   H     H_    0.403935 0.278398 0.577916 0.174288
C53   C     C_2   0.297459 0.614601 0.686561 0.537193
H17   H     H_    0.359866 0.596303 0.634665 0.104987
O17   O     O_2   0.273718 0.575602 0.787435 -0.560482
C54   C     C_2   0.302757 0.599575 0.344916 0.460004
H18   H     H_    0.354974 0.573340 0.410023 0.115332
O18   O     O_2   0.284798 0.564328 0.238640 -0.525045
C55   C     C_2   0.286847 0.377917 0.295218 0.549868
H19   H     H_    0.342068 0.408125 0.349324 0.121342
O19   O     O_2   0.271777 0.399495 0.178599 -0.549403
C56   C     C_2   0.309260 0.407151 0.624249 0.392376
H20   H     H_    0.364656 0.416520 0.695935 0.152624
O20   O     O_2   0.283721 0.465675 0.554831 -0.668045
C57   C     C_2   0.797459 0.114598 0.686560 0.537181
H21   H     H_    0.859868 0.096299 0.634668 0.104989
O21   O     O_2   0.773714 0.075599 0.787432 -0.560495
C58   C     C_2   0.802761 0.099578 0.344921 0.460036
H22   H     H_    0.854987 0.073352 0.410025 0.115329
O22   O     O_2   0.784797 0.064321 0.238654 -0.525053
C59   C     C_2   0.786844 0.877913 0.295210 0.549895
H23   H     H_    0.842067 0.908122 0.349312 0.121354
O23   O     O_2   0.771773 0.899490 0.178591 -0.549410
C60   C     C_2   0.809263 0.907155 0.624237 0.392370
H24   H     H_    0.864659 0.916526 0.695921 0.152621
O24   O     O_2   0.783723 0.965677 0.554816 -0.668044
H25   H     H_    0.194719 0.705164 0.723087 0.171938
H26   H     H_    0.217493 0.699419 0.286294 0.193252
H27   H     H_    0.184799 0.283885 0.280330 0.155751
H28   H     H_    0.226905 0.315312 0.712952 0.132651
H29   H     H_    0.694723 0.205166 0.723086 0.171939
H30   H     H_    0.717487 0.199412 0.286292 0.193227
H31   H     H_    0.684794 0.783882 0.280331 0.155748
H32   H     H_    0.726911 0.815316 0.712950 0.132653
C61   C     C_2   0.676939 0.407441 0.594830 0.346931
H33   H     H_    0.729660 0.437972 0.654204 0.057871
O25   O     O_2   0.596904 0.425730 0.616851 -0.510745
C62   C     C_2   0.682248 0.389931 0.349367 0.362612
H34   H     H_    0.613079 0.411900 0.329572 0.151523
O26   O     O_2   0.740006 0.400074 0.261773 -0.608382
C63   C     C_2   0.675375 0.588855 0.428318 0.366840
H35   H     H_    0.725332 0.559473 0.362190 0.070775
O27   O     O_2   0.595203 0.567393 0.419639 -0.536224
C64   C     C_2   0.697531 0.613833 0.671837 0.385883
H36   H     H_    0.757543 0.602481 0.732683 0.069712
O28   O     O_2   0.623120 0.593214 0.718277 -0.490792
C65   C     C_2   0.176938 0.907446 0.594809 0.346868
H37   H     H_    0.229657 0.937976 0.654187 0.057874
O29   O     O_2   0.096903 0.925739 0.616817 -0.510744
C66   C     C_2   0.182255 0.889923 0.349348 0.362580
H38   H     H_    0.113093 0.911909 0.329558 0.151533
O30   O     O_2   0.240010 0.900037 0.261738 -0.608344
C67   C     C_2   0.175378 0.088855 0.428304 0.366864
H39   H     H_    0.225341 0.059461 0.362200 0.070719
O31   O     O_2   0.095204 0.067404 0.419601 -0.536234
C68   C     C_2   0.197526 0.113828 0.671826 0.385880
H40   H     H_    0.257537 0.102466 0.732669 0.069700
O32   O     O_2   0.123112 0.093214 0.718264 -0.490799
H41   H     H_    0.089428 0.771973 0.579240 0.187237
H42   H     H_    0.090999 0.764390 0.401338 0.153705
H43   H     H_    0.085591 0.222881 0.444420 0.175694
H44   H     H_    0.097804 0.237287 0.620369 0.195102
H45   H     H_    0.589426 0.271969 0.579243 0.187240
H46   H     H_    0.591000 0.264390 0.401340 0.153702
H47   H     H_    0.585590 0.722880 0.444430 0.175687
H48   H     H_    0.597807 0.737290 0.620377 0.195101
C69   C     C_2   0.998759 0.342600 0.135816 0.472653
H49   H     H_    0.032118 0.305785 0.213862 0.052744
O33   O     O_2   0.925723 0.317677 0.091527 -0.550790
C70   C     C_2   0.039205 0.343553 0.855418 0.558959
H50   H     H_    0.097557 0.302337 0.841775 0.011109
O34   O     O_2   0.963476 0.317125 0.827895 -0.558455
C71   C     C_2   0.998016 0.657442 0.863328 0.474512
H51   H     H_    0.033743 0.696132 0.789762 0.054033
O35   O     O_2   0.922823 0.680298 0.902979 -0.582448
C72   C     C_2   0.034495 0.656894 0.144657 0.552260
H52   H     H_    0.091604 0.698406 0.163512 0.013383
O36   O     O_2   0.957590 0.683029 0.165745 -0.571326
C73   C     C_2   0.498755 0.842601 0.135815 0.472659
H53   H     H_    0.532112 0.805785 0.213862 0.052735
O37   O     O_2   0.425720 0.817679 0.091523 -0.550765
C74   C     C_2   0.539206 0.843554 0.855417 0.558952
H54   H     H_    0.597559 0.802338 0.841773 0.011110
O38   O     O_2   0.463477 0.817125 0.827896 -0.558454
C75   C     C_2   0.498016 0.157442 0.863328 0.474502
H55   H     H_    0.533743 0.196132 0.789761 0.054041
O39   O     O_2   0.422824 0.180299 0.902983 -0.582450
C76   C     C_2   0.534497 0.156894 0.144656 0.552269
H56   H     H_    0.591606 0.198409 0.163500 0.013365
O40   O     O_2   0.457593 0.183028 0.165751 -0.571326
H57   H     H_    0.113492 0.419984 0.123885 0.164896
H58   H     H_    0.127254 0.440480 0.900849 0.114983
H59   H     H_    0.113336 0.580968 0.876381 0.150804
H60   H     H_    0.125754 0.561753 0.099385 0.147027
H61   H     H_    0.613491 0.919983 0.123886 0.164897
H62   H     H_    0.627254 0.940480 0.900851 0.114985
H63   H     H_    0.613336 0.080968 0.876381 0.150807
H64   H     H_    0.625755 0.061752 0.099384 0.147023
H65   H     H_    0.860840 0.455632 0.125356 0.238786
H66   H     H_    0.871740 0.434213 0.893451 0.210024
H67   H     H_    0.859296 0.541994 0.874450 0.170693
H68   H     H_    0.869941 0.563618 0.107660 0.207847
H69   H     H_    0.360839 0.955636 0.125358 0.238785
H70   H     H_    0.371740 0.934213 0.893452 0.210030
H71   H     H_    0.359296 0.041995 0.874449 0.170692
H72   H     H_    0.369943 0.063621 0.107659 0.207843

loop_
_geom_bond_atom_site_label_1
_geom_bond_atom_site_label_2
_ccdc_geom_bond_type
C16   C28   S    
C23   C55   S    
C53   H17   S    
C29   C61   S    
C73   H53   S    
N1    Zn2   S    
C7    N3    S    
C30   C44   S    
C62   H34   S    
C8    N4    S    
C14   C33   S    
C52   H64   S    
C76   H56   S    
C11   O14   A    
C25   C57   S    
C7    C8    S    
C75   O39   D    
C45   C46   S    
O5    Zn3   S    
C57   O21   D    
C4    O7    A    
C69   H49   S    
C32   C36   S    
C5    N1    S    
C71   O35   D    
C66   O30   D    
C12   C36   S    
C38   C42   S    
C19   C36   S    
C23   H27   S    
C5    C6    S    
C2    O4    A    
C26   C39   S    
C41   H41   S    
O7    Zn4   S    
C28   C40   S    
C67   H39   S    
O10   Zn2   S    
C29   C33   S    
O4    Zn1   S    
O9    Zn1   S    
C58   H22   S    
C8    H71   S    
C67   O31   D    
C51   N4    S    
O1    Zn1   S    
C9    O10   A    
C32   C67   S    
C21   H25   S    
C16   C34   S    
C15   H3    S    
C20   C24   S    
C30   C64   S    
C54   O18   D    
C6    H67   S    
C24   C38   S    
C45   C69   S    
C8    H70   S    
C7    H69   S    
C43   H46   S    
C42   H44   S    
C18   C35   S    
C15   C34   S    
C17   H5    S    
C52   N3    S    
C47   C71   S    
C61   H33   S    
C12   O16   A    
C27   C59   S    
C69   O33   D    
N4    Zn3   S    
C29   C43   S    
C72   O36   D    
C73   O37   D    
C13   C25   S    
C6    N2    S    
O16   Zn3   S    
C19   H7    S    
C51   C75   S    
C74   O38   D    
C60   H24   S    
C68   O32   D    
C3    O5    A    
C48   N1    S    
C13   H1    S    
C24   H28   S    
C30   C34   S    
C45   H57   S    
C51   C52   S    
C18   H14   S    
C17   H13   S    
C66   H38   S    
C14   H10   S    
C48   C72   S    
C47   H59   S    
C26   C58   S    
C48   H60   S    
C27   H31   S    
C2    O3    A    
C39   C43   S    
C41   H42   S    
O12   Zn1   S    
C10   O11   A    
C22   C37   S    
C50   N4    S    
C60   O24   D    
C16   H4    S    
C70   O34   D    
C19   C23   S    
C13   C33   S    
O6    Zn4   S    
C1    O1    A    
N2    Zn1   S    
C20   H16   S    
C44   H48   S    
C15   C27   S    
C47   C48   S    
C4    C39   S    
C27   C40   S    
C46   C70   S    
C54   H18   S    
C46   N2    S    
C9    O9    A    
C11   O13   A    
C21   C37   S    
C76   O40   D    
C59   O23   D    
O11   Zn2   S    
C14   C26   S    
C56   O20   D    
C42   H43   S    
C65   O29   D    
O3    Zn2   S    
C28   C60   S    
C1    C38   S    
C9    C33   S    
C10   C34   S    
N3    Zn4   S    
C55   O19   D    
C12   O15   A    
C3    C40   S    
C47   N2    S    
O14   Zn4   S    
C72   H52   S    
C31   C35   S    
C31   C65   S    
C63   H35   S    
C50   H62   S    
C6    H66   S    
C74   H54   S    
O2    Zn2   S    
C15   H11   S    
C68   H40   S    
C65   H37   S    
C3    O6    A    
C22   H26   S    
C31   C41   S    
C59   H23   S    
C18   C22   S    
C44   H47   S    
C22   C54   S    
C19   H15   S    
C5    H68   S    
C63   O27   D    
C62   O26   D    
C64   O28   D    
C28   H32   S    
C64   H36   S    
C10   O12   A    
C23   C38   S    
C26   H30   S    
C57   H21   S    
C4    O8    A    
C55   H19   S    
C70   H50   S    
C46   H58   S    
C20   H8    S    
C31   C66   S    
C5    H65   S    
C75   H55   S    
C49   N3    S    
C1    O2    A    
C25   C39   S    
C32   C68   S    
C49   C73   S    
C2    C37   S    
O15   Zn4   S    
C21   C53   S    
C16   H12   S    
C11   C35   S    
C18   H6    S    
O8    Zn3   S    
C58   O22   D    
O13   Zn3   S    
C24   C56   S    
C14   H2    S    
C37   C41   S    
C56   H20   S    
C52   C76   S    
C71   H51   S    
C51   H63   S    
C45   N1    S    
C20   C36   S    
C40   C44   S    
C49   H61   S    
C53   O17   D    
C49   C50   S    
C29   C62   S    
C13   H9    S    
C61   O25   D    
C32   C42   S    
C50   C74   S    
C17   C35   S    
C7    H72   S    
C43   H45   S    
C25   H29   S    
C30   C63   S    
C17   C21   S    
