data_mof_unit_57717.cif
_audit_creation_date              2013-03-05T15:44:19-0500
_audit_creation_method            fapswitch 2.2
_symmetry_space_group_name_H-M    P1
_symmetry_Int_Tables_number       1
_space_group_crystal_system       triclinic
_cell_length_a                    20.903605
_cell_length_b                    7.093795
_cell_length_c                    16.37435
_cell_angle_alpha                 90.889371
_cell_angle_beta                  92.32495
_cell_angle_gamma                 91.259408
_cell_volume                      2425.17279946

loop_
_atom_site_label
_atom_site_type_symbol
_atom_site_description
_atom_site_fract_x
_atom_site_fract_y
_atom_site_fract_z
_atom_type_partial_charge
O1    O     O_R   0.564840 0.505290 0.579830 -0.560020
O2    O     O_R   0.435160 0.005290 0.420170 -0.555652
O3    O     O_R   0.556720 0.179930 0.409350 -0.558976
O4    O     O_R   0.443280 0.679930 0.590650 -0.559700
C1    C     C_R   0.570333 0.345107 0.380950 0.822565
C2    C     C_R   0.429439 0.844621 0.618966 0.821298
O5    O     O_R   0.572280 0.175810 0.578530 -0.559238
O6    O     O_R   0.427720 0.675810 0.421470 -0.563841
O7    O     O_R   0.450830 0.001920 0.590540 -0.555823
O8    O     O_R   0.549170 0.501920 0.409460 -0.554752
C3    C     C_R   0.589607 0.347626 0.605115 0.810711
C4    C     C_R   0.409690 0.841306 0.395399 0.809802
O9    O     O_3   0.460130 0.338030 0.503750 -0.279252
O10   O     O_3   0.539870 0.838030 0.496250 -0.276747
V1    V     V_3+5 0.507400 0.064560 0.499310 1.125182
V2    V     V_3+5 0.492600 0.564560 0.500690 1.125242
C5    C     C_R   0.146837 0.927200 0.164223 -0.143001
C6    C     C_R   0.855110 0.391873 0.834281 -0.146455
C7    C     C_R   0.355634 0.837368 0.333266 -0.094556
C8    C     C_R   0.642211 0.373680 0.668320 -0.095259
C9    C     C_R   0.295956 0.668572 0.223406 -0.092336
C10   C     C_R   0.693662 0.575273 0.774252 -0.096250
C11   C     C_R   0.348111 0.683176 0.279004 -0.104415
C12   C     C_R   0.642052 0.532344 0.720496 -0.095053
C13   C     C_R   0.309468 0.978228 0.330721 -0.137370
C14   C     C_R   0.694905 0.254960 0.672478 -0.139385
C15   C     C_R   0.254885 0.964230 0.275808 0.057165
C16   C     C_R   0.748684 0.297188 0.726230 0.058585
C17   C     C_R   0.248311 0.806467 0.220906 0.050792
C18   C     C_R   0.748023 0.461324 0.777717 0.052348
C19   C     C_R   0.194612 0.789162 0.164812 -0.104300
C20   C     C_R   0.801082 0.507701 0.831943 -0.100606
C21   C     C_R   0.153691 0.080679 0.219382 -0.082639
C22   C     C_R   0.855452 0.232585 0.782005 -0.076752
C23   C     C_R   0.206739 0.102879 0.275083 0.057041
C24   C     C_R   0.803102 0.180702 0.728927 0.059882
H1    H     H_    0.116401 0.183727 0.218139 0.093243
H2    H     H_    0.897553 0.146952 0.784211 0.094230
H3    H     H_    0.292922 0.545821 0.183235 0.075658
H4    H     H_    0.690762 0.700796 0.812245 0.074236
H5    H     H_    0.382926 0.572221 0.279532 0.083367
H6    H     H_    0.601828 0.626238 0.719059 0.085265
H7    H     H_    0.315876 0.094859 0.373763 0.074198
H8    H     H_    0.694216 0.134463 0.631180 0.072767
C25   C     C_R   0.378754 0.835498 0.836728 -0.071242
C26   C     C_R   0.619695 0.385784 0.163470 -0.070865
H9    H     H_    0.467813 0.816831 0.776937 0.053514
H10   H     H_    0.530469 0.368618 0.223323 0.054812
H11   H     H_    0.298401 0.842122 0.957766 0.071335
H12   H     H_    0.699620 0.416511 0.042595 0.072549
H13   H     H_    0.401718 0.821104 0.896782 0.062955
H14   H     H_    0.596082 0.395860 0.103580 0.063131
C27   C     C_R   0.388686 0.852110 0.690338 -0.077826
C28   C     C_R   0.610929 0.355858 0.309558 -0.077502
C29   C     C_R   0.079127 0.927966 0.732068 -0.092963
C30   C     C_R   0.921923 0.395673 0.267732 -0.093217
C31   C     C_R   0.113924 0.926297 0.661529 -0.062830
C32   C     C_R   0.887396 0.380339 0.338171 -0.063010
C33   C     C_R   0.180231 0.908230 0.666052 -0.074777
C34   C     C_R   0.820657 0.374633 0.333688 -0.074394
C35   C     C_R   0.213883 0.890859 0.742222 0.046634
C36   C     C_R   0.786276 0.384578 0.257665 0.046866
C37   C     C_R   0.177628 0.891503 0.814653 0.010609
C38   C     C_R   0.822193 0.402000 0.185367 0.010256
C39   C     C_R   0.282163 0.873056 0.748902 0.045514
C40   C     C_R   0.717596 0.377614 0.251007 0.045459
C41   C     C_R   0.312140 0.854908 0.827816 0.060575
C42   C     C_R   0.686810 0.390030 0.172284 0.060733
C43   C     C_R   0.275630 0.855777 0.897536 -0.092155
C44   C     C_R   0.722997 0.407200 0.102681 -0.090420
C45   C     C_R   0.209586 0.874202 0.891215 -0.071098
C46   C     C_R   0.789496 0.412671 0.108952 -0.071843
C47   C     C_R   0.322038 0.872080 0.680369 -0.113013
C48   C     C_R   0.678079 0.359307 0.319410 -0.112654
C49   C     C_R   0.416564 0.833383 0.768607 -0.097693
C50   C     C_R   0.582177 0.369827 0.231521 -0.097850
C51   C     C_R   0.109968 0.910493 0.808808 -0.086993
C52   C     C_R   0.890307 0.407097 0.191175 -0.087060
H15   H     H_    0.303009 0.885087 0.618616 0.039949
H16   H     H_    0.697706 0.349192 0.381018 0.040514
H17   H     H_    0.027656 0.943296 0.726816 0.047409
H18   H     H_    0.973803 0.398311 0.272923 0.049649
H19   H     H_    0.203670 0.908423 0.608697 0.056298
H20   H     H_    0.797486 0.362274 0.390961 0.056704
H21   H     H_    0.089245 0.939720 0.602554 0.064687
H22   H     H_    0.912645 0.372026 0.397018 0.064670
H23   H     H_    0.183652 0.874579 0.947124 0.056348
H24   H     H_    0.815172 0.425698 0.053120 0.057494
O11   O     O_R   0.950790 0.256670 0.090520 -0.553014
O12   O     O_R   0.049210 0.756670 0.909480 -0.553211
O13   O     O_R   0.927720 0.590370 0.921470 -0.554611
O14   O     O_R   0.072280 0.090370 0.078530 -0.555675
C53   C     C_R   0.909727 0.418077 0.895604 0.805805
C54   C     C_R   0.090957 0.924133 0.103832 0.806152
O15   O     O_R   0.943270 0.586180 0.090640 -0.556461
O16   O     O_R   0.056730 0.086180 0.909360 -0.556984
O17   O     O_R   0.064850 0.759970 0.079840 -0.552757
O18   O     O_R   0.935150 0.259970 0.920160 -0.557051
C55   C     C_R   0.930258 0.417444 0.118903 0.804561
C56   C     C_R   0.069903 0.917836 0.881105 0.803604
O19   O     O_3   0.039850 0.428050 0.996240 -0.264025
O20   O     O_3   0.960150 0.928050 0.003760 -0.267184
V3    V     V_3+5 0.992610 0.701540 0.000700 1.150761
V4    V     V_3+5 0.007390 0.201540 0.999300 1.151662
C57   C     C_1   0.189830 0.633908 0.105993 0.256583
N1    N     N_1   0.186164 0.509854 0.059165 -0.270598
C58   C     C_1   0.799021 0.669085 0.887257 0.259906
N2    N     N_1   0.797336 0.797929 0.931323 -0.279075
C59   C     C_3   0.212788 0.272112 0.334084 -0.210712
C60   C     C_3   0.159155 0.415357 0.328582 -0.421859
H25   H     H_    0.155404 0.475886 0.266562 0.137960
H26   H     H_    0.112730 0.348492 0.343977 0.123658
H27   H     H_    0.170107 0.532706 0.372991 0.128369
H28   H     H_    0.215055 0.219442 0.397689 0.103651
H29   H     H_    0.258388 0.349348 0.323335 0.115606
C61   C     C_3   0.804016 0.001435 0.675816 -0.208989
C62   C     C_3   0.863678 0.880805 0.684941 -0.424465
H30   H     H_    0.906740 0.961110 0.666163 0.121908
H31   H     H_    0.870629 0.832888 0.748894 0.141522
H32   H     H_    0.857566 0.753644 0.644646 0.126996
H33   H     H_    0.762249 0.910107 0.690470 0.114794
H34   H     H_    0.798790 0.041355 0.610539 0.102710

loop_
_geom_bond_atom_site_label_1
_geom_bond_atom_site_label_2
_geom_bond_distance
_ccdc_geom_bond_type
C40   C42   1.422062 A    
C39   C47   1.424779 A    
C15   C17   1.425321 A    
C12   H6    1.083814 S    
H10   C50   1.083601 S    
O1    C3    1.308732 A    
O2    C4    1.319770 A    
C13   H7    1.080997 S    
C2    O7    1.293362 A    
C26   C50   1.392990 A    
C14   H8    1.081137 S    
O5    C3    1.325729 A    
C61   H34   1.111711 S    
O11   C55   1.312323 A    
C33   H19   1.076750 S    
C62   H31   1.110914 S    
C29   C51   1.397345 A    
O15   C55   1.316822 A    
C31   C33   1.393852 A    
C25   H13   1.083875 S    
C32   C34   1.393695 A    
C40   C48   1.424297 A    
C26   H14   1.083926 S    
C30   C52   1.397518 A    
C61   C62   1.531587 S    
C51   C56   1.478507 S    
C34   C36   1.415443 A    
C43   C45   1.389417 A    
C60   H25   1.109215 S    
C36   C38   1.432830 A    
C28   C48   1.406045 A    
C8    C12   1.402603 A    
C31   H21   1.082736 S    
C39   C41   1.421964 A    
C20   C58   1.451196 S    
C25   C41   1.404207 A    
C58   N2    1.157696 T    
C29   H17   1.083853 S    
C22   C24   1.408385 A    
C23   C59   1.529043 S    
H11   C43   1.084201 S    
O5    V1    1.980722 S    
O6    V2    2.020128 S    
C48   H16   1.077533 S    
C19   C57   1.450857 S    
C27   C49   1.395645 A    
C5    C21   1.404912 A    
C32   H22   1.082781 S    
O12   C56   1.311913 A    
C46   H24   1.082876 S    
O15   V3    2.006452 S    
C3    C8    1.485673 S    
C33   C35   1.415283 A    
C61   H33   1.111997 S    
C36   C40   1.435072 A    
C1    C28   1.474072 S    
O4    C2    1.293248 A    
C62   H32   1.111309 S    
O14   V4    2.020130 S    
C54   O17   1.322411 A    
C15   C23   1.422426 A    
C9    C17   1.411116 A    
C21   H1    1.080095 S    
C41   C43   1.398737 A    
O4    V2    2.006342 S    
C7    C11   1.400537 A    
C26   C42   1.404126 A    
O13   C53   1.328701 A    
C9    H3    1.082286 S    
O6    C4    1.313204 A    
C10   H4    1.082497 S    
O14   C54   1.317944 A    
C47   H15   1.077531 S    
O1    V2    2.005602 S    
O20   V4    2.161114 S    
O2    V1    1.983125 S    
C6    C22   1.407264 A    
C60   H27   1.110626 S    
O17   V3    1.982032 S    
C59   H28   1.111493 S    
C28   C50   1.395735 A    
C42   C44   1.398631 A    
C37   C45   1.404789 A    
O19   V4    1.732658 S    
C29   C31   1.389777 A    
O11   V4    1.982273 S    
C5    C19   1.413799 A    
C45   H23   1.082708 S    
C6    C20   1.410807 A    
C2    C27   1.474849 S    
C24   C61   1.530332 S    
O3    V1    2.006506 S    
C37   C51   1.423184 A    
O16   V4    2.006296 S    
C10   C18   1.408711 A    
C22   H2    1.080012 S    
C38   C52   1.422777 A    
C35   C37   1.433149 A    
C27   C47   1.406633 A    
O13   V3    1.980747 S    
O3    C1    1.297379 A    
C30   H18   1.084085 S    
C13   C15   1.424505 A    
C57   N1    1.157391 T    
C14   C16   1.423004 A    
C11   H5    1.083555 S    
C25   C49   1.393076 A    
C9    C11   1.392729 A    
H12   C44   1.084255 S    
H9    C49   1.083615 S    
C1    O8    1.293575 A    
C17   C19   1.423195 A    
O8    V2    1.993272 S    
C62   H30   1.111162 S    
C18   C20   1.421885 A    
C34   H20   1.076707 S    
C8    C14   1.401290 A    
O18   V4    2.004203 S    
O16   C56   1.312865 A    
C4    C7    1.489006 S    
C16   C18   1.427524 A    
C21   C23   1.411423 A    
C30   C32   1.389623 A    
C10   C12   1.389831 A    
C38   C46   1.405125 A    
O7    V1    1.992026 S    
O20   V3    1.758681 S    
C7    C13   1.404241 A    
C60   H26   1.110691 S    
O12   V3    1.981160 S    
C59   H29   1.110584 S    
C35   C39   1.435537 A    
C16   C24   1.420248 A    
O19   V3    2.197737 S    
O9    V2    1.732867 S    
C52   C55   1.477636 S    
C6    C53   1.496049 S    
O10   V1    1.758897 S    
C44   C46   1.389327 A    
C5    C54   1.499090 S    
C59   C60   1.530470 S    
C53   O18   1.313352 A    
