data_mof_unit_57324.cif
_audit_creation_date              2012-12-10T20:31:06-0500
_audit_creation_method            fapswitch 2.2
_symmetry_space_group_name_H-M    P1
_symmetry_Int_Tables_number       1
_space_group_crystal_system       triclinic
_cell_length_a                    15.008241
_cell_length_b                    10.695636
_cell_length_c                    9.888097
_cell_angle_alpha                 89.986074
_cell_angle_beta                  89.567969
_cell_angle_gamma                 90.703064
_cell_volume                      1587.09915092

loop_
_atom_site_label
_atom_site_type_symbol
_atom_type_description
_atom_site_fract_x
_atom_site_fract_y
_atom_site_fract_z
_atom_type_partial_charge
C1    C     C_R   0.502836 0.260147 0.499879 0.935189
C2    C     C_R   0.907741 0.528425 0.377962 -0.013332
C3    C     C_R   0.951656 0.428438 0.732801 -0.261203
C4    C     C_R   0.044082 0.426448 0.732524 0.662936
C5    C     C_R   0.091609 0.461007 0.615350 -0.031578
C6    C     C_R   0.046295 0.496592 0.496731 -0.015414
C7    C     C_R   0.093775 0.532832 0.378569 0.016094
C8    C     C_R   0.047548 0.565008 0.259772 -0.165044
C9    C     C_R   0.954640 0.561907 0.260047 0.591100
C10   C     C_R   0.183773 0.460477 0.614470 -0.089793
C11   C     C_R   0.230739 0.499302 0.499711 -0.092052
C12   C     C_R   0.326680 0.499867 0.500254 0.919924
C13   C     C_R   0.186360 0.536076 0.383004 -0.147813
C14   C     C_R   0.509753 0.064100 0.622203 -0.147272
C15   C     C_R   0.515918 0.128820 0.500195 -0.202330
C16   C     C_R   0.536817 0.064463 0.380202 0.665418
C17   C     C_R   0.534905 0.935341 0.380766 -0.244437
C18   C     C_R   0.513929 0.871622 0.500848 -0.203988
C19   C     C_R   0.509272 0.936382 0.622692 -0.018429
C20   C     C_3   0.440664 0.930577 0.733159 1.173471
C21   C     C_3   0.441426 0.072203 0.732724 -0.411314
C22   C     C_R   0.448533 0.415952 0.072108 0.048916
C23   C     C_R   0.501888 0.739925 0.500030 0.958896
C24   C     C_R   0.557169 0.575042 0.071410 -0.014881
C25   C     C_R   0.557195 0.574998 0.926923 0.008832
C26   C     C_R   0.447813 0.416942 0.929549 -0.033106
C27   C     C_3   0.348503 0.409469 0.928868 1.003520
C28   C     C_3   0.349856 0.404201 0.081705 0.391684
C29   C     C_R   0.673273 0.499397 0.499532 0.871788
C30   C     C_R   0.815417 0.527204 0.379569 -0.155250
C31   C     C_R   0.769081 0.497277 0.498451 -0.087698
C32   C     C_R   0.814146 0.464916 0.616130 -0.172940
C33   C     C_R   0.906291 0.462886 0.615849 0.048402
C34   C     C_R   0.953509 0.495936 0.496723 -0.004734
H1    H     H_    0.779531 0.550923 0.288767 0.214614
H2    H     H_    0.544303 0.886489 0.286084 0.211865
H3    H     H_    0.377895 0.113383 0.697867 0.231037
H4    H     H_    0.469258 0.114187 0.826440 0.233006
H5    H     H_    0.317562 0.484780 0.131691 0.067187
H6    H     H_    0.777590 0.440157 0.707551 0.166760
H7    H     H_    0.915563 0.402716 0.824228 0.197312
H8    H     H_    0.219000 0.428651 0.702441 0.271867
H9    H     H_    0.224412 0.568076 0.296164 0.152091
N1    N     N_R   0.499390 0.499140 0.142800 -0.147077
N2    N     N_R   0.499390 0.499180 0.857150 -0.124104
O1    O     O_R   0.500010 0.316790 0.614690 -0.619883
O2    O     O_R   0.500000 0.316760 0.385350 -0.534511
O3    O     O_R   0.367850 0.499990 0.614680 -0.554500
O4    O     O_R   0.367840 0.499950 0.385340 -0.634879
O5    O     O_R   0.500000 0.683240 0.614650 -0.584513
O6    O     O_R   0.499990 0.683210 0.385310 -0.638346
O7    O     O_R   0.632160 0.500050 0.614660 -0.644965
O8    O     O_R   0.632150 0.500010 0.385320 -0.627022
Zn1   Zn    Zn3+2 0.500010 0.500020 0.653130 1.048517
Zn2   Zn    Zn3+2 0.499990 0.499980 0.346870 1.029005
F1    F     F_    0.360282 0.878276 0.692742 -0.633847
F2    F     F_    0.472884 0.879686 0.851539 -0.646427
C35   C     C_1   0.617029 0.657484 0.143211 0.269386
N3    N     N_1   0.665548 0.724072 0.199358 -0.184054
C36   C     C_1   0.616694 0.657630 0.853067 0.326739
N4    N     N_1   0.664636 0.724259 0.794669 -0.166775
F3    F     F_    0.309935 0.517713 0.881415 -0.661300
F4    F     F_    0.316317 0.301452 0.868544 -0.621573
F5    F     F_    0.323846 0.288804 0.132851 -0.571428
F6    F     F_    0.086923 0.391918 0.846910 -0.613702
C37   C     C_1   0.093643 0.600162 0.136088 0.347963
N5    N     N_1   0.130483 0.628243 0.037206 -0.066214
F7    F     F_    0.910024 0.592401 0.145570 -0.659972
F8    F     F_    0.552547 0.124602 0.261220 -0.615821

loop_
_geom_bond_atom_site_label_1
_geom_bond_atom_site_label_2
_ccdc_geom_bond_type
C11   C12   S    
C8    C37   S    
C6    C7    A    
C1    C15   S    
C25   C36   S    
C10   H8    S    
C16   F8    S    
C23   O6    A    
C19   C20   S    
C28   H5    S    
C12   O3    A    
C2    C30   A    
O4    Zn2   S    
C32   C33   A    
O1    Zn1   S    
C13   H9    S    
O8    Zn2   S    
C17   C18   A    
C20   F2    S    
C9    F7    S    
C21   H3    S    
C5    C10   A    
C29   C31   S    
C22   C28   S    
C24   C25   A    
O3    Zn1   S    
C4    C5    A    
C11   C13   A    
N1    Zn2   S    
C2    C34   A    
C26   C27   S    
O5    Zn1   S    
C6    C34   A    
C27   F4    S    
C30   H1    S    
C18   C23   S    
C5    C6    A    
C28   F5    S    
C14   C21   S    
O2    Zn2   S    
C27   F3    S    
O7    Zn1   S    
N2    Zn1   S    
C37   N5    T    
O6    Zn2   S    
C20   F1    S    
C32   H6    S    
C17   H2    S    
C3    H7    S    
C30   C31   A    
C24   N1    A    
C22   N1    A    
C1    O1    A    
C12   O4    A    
C16   C17   A    
C10   C11   A    
C3    C33   A    
C3    C4    A    
C25   N2    A    
C7    C13   A    
C33   C34   A    
C20   C21   S    
C24   C35   S    
C18   C19   A    
C22   C26   A    
C27   C28   S    
C7    C8    A    
C4    F6    S    
C36   N4    T    
C23   O5    A    
C26   N2    A    
C35   N3    T    
C14   C15   A    
C2    C9    A    
C14   C19   A    
C31   C32   A    
C1    O2    A    
C21   H4    S    
C15   C16   A    
C8    C9    A    
C29   O8    A    
C29   O7    A    
