data_mof_unit_19510.cif
_audit_creation_date              2012-12-11T20:13:31-0500
_audit_creation_method            fapswitch 2.2
_symmetry_space_group_name_H-M    P1
_symmetry_Int_Tables_number       1
_space_group_crystal_system       triclinic
_cell_length_a                    21.952142
_cell_length_b                    26.613938
_cell_length_c                    8.348659
_cell_angle_alpha                 90.000206
_cell_angle_beta                  102.615438
_cell_angle_gamma                 89.993926
_cell_volume                      4759.80727504

loop_
_atom_site_label
_atom_site_type_symbol
_atom_type_description
_atom_site_fract_x
_atom_site_fract_y
_atom_site_fract_z
_atom_type_partial_charge
Ba1   Ba    Ba6+2 0.999850 0.464270 0.844920 1.642864
Ba2   Ba    Ba6+2 0.999850 0.535730 0.344920 1.651515
Ba3   Ba    Ba6+2 0.499850 0.964270 0.844920 1.641307
Ba4   Ba    Ba6+2 0.499850 0.035730 0.344920 1.641201
C1    C     C_3   0.030102 0.221155 0.672614 -0.359068
C2    C     C_3   0.013958 0.787131 0.185210 -0.340180
C3    C     C_3   0.529972 0.721094 0.672798 -0.359123
C4    C     C_3   0.529893 0.278876 0.172772 -0.358897
C5    C     C_3   0.903438 0.331046 0.337476 -0.046685
C6    C     C_3   0.902237 0.668698 0.838452 -0.073548
C7    C     C_3   0.403695 0.831155 0.337504 -0.046517
C8    C     C_3   0.403350 0.168921 0.837474 -0.046658
C9    C     C_2   0.850047 0.299878 0.282777 -0.103026
C10   C     C_2   0.848207 0.699256 0.784577 -0.101035
C11   C     C_2   0.350620 0.799702 0.282375 -0.103450
C12   C     C_2   0.349931 0.200074 0.782844 -0.102867
C13   C     C_2   0.805604 0.310076 0.136783 0.012656
C14   C     C_2   0.804677 0.689518 0.636743 0.017214
C15   C     C_2   0.306275 0.809706 0.136040 0.012524
C16   C     C_2   0.305422 0.189832 0.637008 0.012913
C17   C     C_2   0.812136 0.354391 0.048641 -0.132150
C18   C     C_2   0.812005 0.645645 0.547378 -0.131326
C19   C     C_2   0.312493 0.854146 0.048184 -0.132283
C20   C     C_2   0.311946 0.145511 0.548895 -0.132269
C21   C     C_1   0.860373 0.387530 0.105880 0.056331
C22   C     C_1   0.860099 0.612439 0.605607 0.056075
C23   C     C_1   0.360414 0.887524 0.105839 0.055817
C24   C     C_1   0.360253 0.112418 0.605985 0.055659
C25   C     C_R   0.163068 0.698785 0.891408 -0.128653
C26   C     C_R   0.160219 0.299638 0.394535 -0.126017
C27   C     C_R   0.660496 0.200220 0.894204 -0.125966
C28   C     C_R   0.660288 0.799726 0.393968 -0.126628
C29   C     C_R   0.115638 0.661577 0.824287 -0.014305
C30   C     C_R   0.113026 0.337003 0.326989 -0.004884
C31   C     C_R   0.613245 0.162895 0.826754 -0.004589
C32   C     C_R   0.613198 0.837143 0.326511 -0.004534
C33   C     C_R   0.139674 0.613735 0.082479 0.072421
C34   C     C_R   0.138756 0.385860 0.583198 0.064466
C35   C     C_R   0.638941 0.114067 0.083032 0.063599
C36   C     C_R   0.638925 0.885931 0.582905 0.063169
C37   C     C_R   0.184773 0.647286 0.145980 -0.100945
C38   C     C_R   0.183620 0.352134 0.646821 -0.113579
C39   C     C_R   0.683848 0.147759 0.146594 -0.113518
C40   C     C_R   0.683729 0.852141 0.646473 -0.113517
C41   C     C_R   0.196923 0.692788 0.052598 0.020669
C42   C     C_R   0.194952 0.306150 0.554601 0.015571
C43   C     C_R   0.695225 0.193713 0.054283 0.015850
C44   C     C_R   0.694972 0.806162 0.554051 0.015659
C45   C     C_3   0.984586 0.275802 0.098201 0.334706
C46   C     C_3   0.987592 0.724167 0.616324 0.373172
C47   C     C_3   0.484700 0.775761 0.098662 0.334705
C48   C     C_3   0.484615 0.224152 0.598587 0.334566
C49   C     C_2   0.751960 0.275776 0.073125 -0.074049
C50   C     C_2   0.751090 0.723837 0.573145 -0.075332
C51   C     C_2   0.253122 0.775032 0.071540 -0.073182
C52   C     C_2   0.251728 0.224101 0.573457 -0.074086
C53   C     C_2   0.248408 0.727540 0.125815 -0.072461
C54   C     C_2   0.246836 0.271641 0.627130 -0.072171
C55   C     C_2   0.747093 0.228233 0.126815 -0.072229
C56   C     C_2   0.746706 0.771515 0.626256 -0.071968
C57   C     C_R   0.103751 0.620191 0.930921 -0.275206
C58   C     C_R   0.102190 0.379069 0.432535 -0.276218
C59   C     C_R   0.602389 0.120855 0.932353 -0.276171
C60   C     C_R   0.602421 0.879219 0.432106 -0.276238
C61   C     C_3   0.954695 0.224622 0.055030 -0.357872
C62   C     C_3   0.959046 0.776235 0.584406 -0.355697
C63   C     C_3   0.454775 0.724595 0.055404 -0.358450
C64   C     C_3   0.454680 0.275331 0.555606 -0.357933
C65   C     C_3   0.179404 0.468387 0.282206 0.255341
C66   C     C_3   0.180685 0.531023 0.784121 0.258067
C67   C     C_3   0.679902 0.968636 0.283155 0.258300
C68   C     C_3   0.679701 0.031469 0.782203 0.256193
C69   C     C_3   0.237701 0.435366 0.321231 -0.240547
C70   C     C_3   0.239365 0.563623 0.821403 -0.240935
C71   C     C_3   0.738314 0.935732 0.321284 -0.241394
C72   C     C_3   0.738048 0.064427 0.820960 -0.241398
C73   C     C_3   0.822182 0.532671 0.909462 0.314767
C74   C     C_3   0.822842 0.466987 0.411337 0.314051
C75   C     C_3   0.322688 0.032960 0.911246 0.314643
C76   C     C_3   0.322778 0.967034 0.411017 0.314798
C77   C     C_3   0.765319 0.566882 0.876268 -0.368673
C78   C     C_3   0.766162 0.432596 0.377344 -0.371622
C79   C     C_3   0.266001 0.067354 0.877815 -0.371540
C80   C     C_3   0.266103 0.932634 0.377158 -0.371825
C81   C     C_3   0.011182 0.275810 0.639965 0.362613
C82   C     C_3   0.987043 0.740257 0.091869 0.321049
C83   C     C_3   0.511131 0.775767 0.640180 0.362665
C84   C     C_3   0.511049 0.224209 0.140132 0.362380
C85   C     C_2   0.902547 0.377910 0.252109 -0.254375
C86   C     C_2   0.901890 0.621962 0.752598 -0.245262
C87   C     C_2   0.402432 0.878100 0.252476 -0.253707
C88   C     C_2   0.402445 0.122047 0.752170 -0.254086
H1    H     H_    0.044912 0.300144 0.724110 0.094733
H2    H     H_    0.026505 0.715396 0.078652 0.007129
H3    H     H_    0.544872 0.800074 0.724386 0.094979
H4    H     H_    0.544782 0.199896 0.224364 0.094944
H5    H     H_    0.273063 0.453113 0.421030 0.157696
H6    H     H_    0.275493 0.545019 0.917301 0.158147
H7    H     H_    0.774197 0.953959 0.418762 0.156972
H8    H     H_    0.773403 0.046693 0.920806 0.157637
H9    H     H_    0.225880 0.398114 0.365185 -0.019656
H10   H     H_    0.228587 0.600515 0.869971 -0.022402
H11   H     H_    0.726962 0.898722 0.368079 -0.019894
H12   H     H_    0.726273 0.101719 0.864746 -0.019239
H13   H     H_    0.840287 0.529377 0.796377 -0.000029
H14   H     H_    0.841646 0.469932 0.299241 0.000444
H15   H     H_    0.341263 0.029978 0.798795 0.000038
H16   H     H_    0.341418 0.970088 0.298694 0.000204
H17   H     H_    0.858272 0.549682 0.008585 0.082338
H18   H     H_    0.858540 0.450265 0.512044 0.082511
H19   H     H_    0.358527 0.049708 0.011564 0.082378
H20   H     H_    0.358579 0.950249 0.511358 0.082428
H21   H     H_    0.729602 0.552121 0.771604 0.118700
H22   H     H_    0.730952 0.446841 0.270680 0.119450
H23   H     H_    0.230625 0.053072 0.771578 0.119163
H24   H     H_    0.230748 0.946995 0.270999 0.119145
H25   H     H_    0.778778 0.605264 0.846014 0.075509
H26   H     H_    0.780097 0.394078 0.349862 0.075183
H27   H     H_    0.279863 0.105854 0.849924 0.075207
H28   H     H_    0.279987 0.894166 0.348930 0.074988
H29   H     H_    0.745064 0.569024 0.986925 0.136102
H30   H     H_    0.745090 0.430957 0.486698 0.135540
H31   H     H_    0.245166 0.069052 0.987567 0.135731
H32   H     H_    0.245232 0.930826 0.486832 0.135603
H33   H     H_    0.014525 0.284180 0.511831 -0.080733
H34   H     H_    0.960919 0.752838 0.969167 -0.024724
H35   H     H_    0.514528 0.784138 0.512093 -0.080910
H36   H     H_    0.514451 0.215836 0.012047 -0.080705
H37   H     H_    0.077291 0.215085 0.648041 0.073127
H38   H     H_    0.043189 0.807665 0.113758 0.067390
H39   H     H_    0.577170 0.714986 0.648333 0.073094
H40   H     H_    0.577100 0.284973 0.148358 0.073151
H41   H     H_    0.031436 0.211169 0.802204 0.150228
H42   H     H_    0.043689 0.776896 0.305777 0.162049
H43   H     H_    0.531248 0.711100 0.802350 0.150151
H44   H     H_    0.531152 0.288869 0.302319 0.150211
H45   H     H_    0.913204 0.220707 0.109958 0.074017
H46   H     H_    0.919518 0.780146 0.646850 0.068548
H47   H     H_    0.413437 0.720596 0.110917 0.073906
H48   H     H_    0.413266 0.279242 0.610867 0.073981
H49   H     H_    0.782328 0.212880 0.225839 0.074083
H50   H     H_    0.782366 0.786900 0.724242 0.073409
H51   H     H_    0.283331 0.712466 0.226093 0.073278
H52   H     H_    0.282076 0.287009 0.726098 0.074075
H53   H     H_    0.778636 0.362934 0.935574 0.077120
H54   H     H_    0.779177 0.637452 0.432841 0.077016
H55   H     H_    0.279066 0.862553 0.934864 0.076881
H56   H     H_    0.278397 0.136932 0.435955 0.076877
H57   H     H_    0.172893 0.728455 0.812352 0.073469
H58   H     H_    0.169508 0.269638 0.315976 0.075337
H59   H     H_    0.669799 0.230203 0.815604 0.075313
H60   H     H_    0.669544 0.769712 0.315393 0.075205
H61   H     H_    0.216780 0.789608 0.973144 0.072263
H62   H     H_    0.215193 0.209190 0.476239 0.072288
H63   H     H_    0.715435 0.290671 0.975838 0.072325
H64   H     H_    0.714368 0.708938 0.476371 0.071904
H65   H     H_    0.846699 0.266543 0.354508 0.071132
H66   H     H_    0.843539 0.731865 0.858380 0.063823
H67   H     H_    0.347567 0.766258 0.353832 0.070957
H68   H     H_    0.346605 0.233425 0.854520 0.071059
H69   H     H_    0.213697 0.640702 0.266907 0.075800
H70   H     H_    0.212998 0.358937 0.767022 0.079447
H71   H     H_    0.713198 0.140966 0.266841 0.079243
H72   H     H_    0.713063 0.858851 0.766791 0.079282
H73   H     H_    0.941562 0.403218 0.293152 0.071504
H74   H     H_    0.941234 0.596934 0.793261 0.069344
H75   H     H_    0.441143 0.903654 0.294094 0.071631
H76   H     H_    0.441465 0.096736 0.793214 0.071679
H77   H     H_    0.068320 0.592834 0.880374 0.065801
H78   H     H_    0.067008 0.406594 0.381743 0.068460
H79   H     H_    0.567159 0.093365 0.881636 0.068747
H80   H     H_    0.567271 0.906772 0.381343 0.068955
H81   H     H_    0.996343 0.196271 0.590779 0.118383
H82   H     H_    0.975707 0.812286 0.203575 0.122747
H83   H     H_    0.496202 0.696242 0.590868 0.118377
H84   H     H_    0.496135 0.303738 0.090817 0.118410
H85   H     H_    0.950504 0.305069 0.041355 0.062380
H86   H     H_    0.951629 0.696138 0.560684 0.057015
H87   H     H_    0.450584 0.805049 0.042176 0.062094
H88   H     H_    0.450543 0.194888 0.541702 0.062368
H89   H     H_    0.995290 0.279365 0.233743 -0.052132
H90   H     H_    0.001460 0.718726 0.751363 -0.102242
H91   H     H_    0.495555 0.779260 0.234223 -0.051817
H92   H     H_    0.495358 0.220544 0.734116 -0.052078
H93   H     H_    0.939389 0.220597 0.919954 0.150984
H94   H     H_    0.941186 0.781973 0.450793 0.141248
H95   H     H_    0.439224 0.720683 0.920335 0.150736
H96   H     H_    0.439242 0.279352 0.420544 0.150808
H97   H     H_    0.988513 0.194363 0.103776 0.121139
H98   H     H_    0.994558 0.805374 0.632388 0.118405
H99   H     H_    0.488663 0.694315 0.103480 0.121223
H100  H     H_    0.488519 0.305596 0.604137 0.121324
H101  H     H_    0.160418 0.471701 0.393999 0.013432
H102  H     H_    0.162771 0.527339 0.897492 0.012908
H103  H     H_    0.661471 0.972168 0.395776 0.012555
H104  H     H_    0.660840 0.028164 0.894212 0.013290
H105  H     H_    0.144079 0.450419 0.182997 0.043956
H106  H     H_    0.144847 0.549469 0.687213 0.036116
H107  H     H_    0.644261 0.950458 0.185148 0.042271
H108  H     H_    0.644328 0.049503 0.683247 0.043653
O1    O     O_2   0.875320 0.428620 0.822840 -0.458128
O2    O     O_2   0.875320 0.571380 0.322840 -0.454332
O3    O     O_2   0.375320 0.928620 0.822840 -0.457356
O4    O     O_2   0.375320 0.071380 0.322840 -0.457361
O5    O     O_3   0.196373 0.483498 0.733714 -0.624863
O6    O     O_3   0.195995 0.516052 0.234967 -0.625258
O7    O     O_3   0.696130 0.983786 0.734627 -0.623972
O8    O     O_3   0.696138 0.016215 0.234274 -0.624278
O9    O     O_3   0.039444 0.279569 0.038567 -0.596387
O10   O     O_3   0.039604 0.720219 0.544888 -0.585486
O11   O     O_3   0.539458 0.779559 0.038612 -0.596461
O12   O     O_3   0.539455 0.220437 0.538847 -0.596479
O13   O     O_3   0.072510 0.524860 0.092920 -0.497864
O14   O     O_3   0.072510 0.475140 0.592920 -0.496248
O15   O     O_3   0.572510 0.024860 0.092920 -0.495992
O16   O     O_3   0.572510 0.975140 0.592920 -0.496536
O17   O     O_3   0.927380 0.474960 0.096800 -0.502442
O18   O     O_3   0.927380 0.525040 0.596800 -0.503524
O19   O     O_3   0.427380 0.974960 0.096800 -0.502170
O20   O     O_3   0.427380 0.025040 0.596800 -0.502103
O21   O     O_3   0.978260 0.384470 0.628120 -0.486079
O22   O     O_3   0.978260 0.615530 0.128120 -0.468247
O23   O     O_3   0.478260 0.884470 0.628120 -0.485787
O24   O     O_3   0.478260 0.115530 0.128120 -0.485830
O25   O     O_2   0.863325 0.352847 0.632807 -0.478393
O26   O     O_2   0.862094 0.644238 0.128617 -0.479371
O27   O     O_2   0.363267 0.852920 0.632402 -0.478538
O28   O     O_2   0.363276 0.147082 0.132760 -0.478250
O29   O     O_3   0.804328 0.485332 0.955945 -0.632953
O30   O     O_3   0.804495 0.514479 0.455372 -0.632950
O31   O     O_3   0.304449 0.985481 0.955689 -0.632545
O32   O     O_3   0.304495 0.014479 0.455642 -0.632494
O33   O     O_3   0.950474 0.283433 0.666014 -0.588709
O34   O     O_3   0.946637 0.715495 0.175826 -0.567730
O35   O     O_3   0.450416 0.783439 0.666120 -0.588790
O36   O     O_3   0.450328 0.216553 0.166028 -0.588724
O37   O     O_2   0.124210 0.428020 0.866900 -0.472774
O38   O     O_2   0.124210 0.571980 0.366900 -0.470469
O39   O     O_2   0.624210 0.928020 0.866900 -0.471168
O40   O     O_2   0.624210 0.071980 0.366900 -0.472151
O41   O     O_3   0.021040 0.384370 0.061630 -0.485771
O42   O     O_3   0.021040 0.615630 0.561630 -0.482714
O43   O     O_3   0.521040 0.884370 0.061630 -0.485293
O44   O     O_3   0.521040 0.115630 0.561630 -0.485535
O45   O     O_2   0.124914 0.344069 0.002557 -0.492946
O46   O     O_2   0.123687 0.656576 0.495265 -0.481620
O47   O     O_2   0.624803 0.844060 0.001886 -0.493386
O48   O     O_2   0.624830 0.155952 0.502064 -0.492717
P1    P     P_3+3 0.869190 0.445350 0.992760 0.980299
P2    P     P_3+3 0.869190 0.554650 0.492760 0.980948
P3    P     P_3+3 0.369190 0.945350 0.992760 0.980749
P4    P     P_3+3 0.369190 0.054650 0.492760 0.980932
P5    P     P_3+3 0.130420 0.444720 0.696970 0.982703
P6    P     P_3+3 0.130420 0.555280 0.196970 0.987349
P7    P     P_3+3 0.630420 0.944720 0.696970 0.983787
P8    P     P_3+3 0.630420 0.055280 0.196970 0.983199
P9    P     P_3+3 0.075857 0.336410 0.108010 0.940732
P10   P     P_3+3 0.076547 0.663101 0.606859 0.965318
P11   P     P_3+3 0.575871 0.836430 0.107715 0.940809
P12   P     P_3+3 0.575892 0.163565 0.607902 0.941013
P13   P     P_3+3 0.920475 0.660592 0.066484 0.966768
P14   P     P_3+3 0.921435 0.338930 0.565347 0.955416
P15   P     P_3+3 0.421378 0.161041 0.065343 0.955657
P16   P     P_3+3 0.421447 0.838937 0.565337 0.955805
C89   C     C_2   0.264078 0.427692 0.171731 0.556497
H109  H     H_    0.237183 0.407750 0.066516 0.010167
O49   O     O_2   0.315885 0.443510 0.167717 -0.550718
C90   C     C_2   0.263811 0.572455 0.669432 0.555519
H110  H     H_    0.236091 0.593430 0.567747 0.007294
O50   O     O_2   0.314965 0.556448 0.659478 -0.549986
C91   C     C_2   0.763523 0.927268 0.170268 0.553854
H111  H     H_    0.736354 0.906188 0.067896 0.010783
O51   O     O_2   0.814661 0.943737 0.161793 -0.550923
C92   C     C_2   0.764396 0.071982 0.671368 0.557415
H112  H     H_    0.737377 0.091675 0.565739 0.009991
O52   O     O_2   0.816314 0.056337 0.667729 -0.550577

loop_
_geom_bond_atom_site_label_1
_geom_bond_atom_site_label_2
_ccdc_geom_bond_type
C72   H12   S    
C65   H105  S    
C84   H4    S    
C7    C87   A    
O11   P11   S    
O35   P16   S    
Ba4   O16   S    
C25   C29   S    
C82   H34   S    
O42   P10   S    
C10   C14   A    
C81   H33   S    
C48   H88   S    
Ba2   O2    S    
Ba2   O22   S    
C2    H38   S    
O31   P3    S    
C83   H35   S    
C49   C55   D    
C31   C59   S    
C70   H6    S    
C67   C71   S    
C50   C56   D    
C66   O5    S    
C69   H5    S    
C61   H97   S    
C41   C53   S    
C65   O6    S    
C82   O34   S    
C45   C61   S    
C10   H66   S    
C33   C37   D    
C81   O33   S    
O47   P11   D    
C28   C32   S    
O37   P5    D    
C12   C16   A    
C46   H86   S    
Ba3   P3    S    
C34   P5    S    
Ba1   Ba2   S    
C47   H91   S    
Ba2   P2    S    
C50   H64   S    
O9    P9    S    
O30   P2    S    
C5    C9    A    
C63   H99   S    
C73   O29   S    
Ba4   O4    S    
C4    H44   S    
C64   H100  S    
Ba3   O15   S    
C91   H111  S    
C77   H25   S    
C30   C58   S    
C83   O35   S    
Ba1   O21   S    
C92   H112  S    
C38   C42   S    
C32   P11   S    
C79   H27   S    
O7    P7    S    
C23   P3    S    
C82   H2    S    
C56   H50   S    
O48   P12   D    
C36   P7    S    
C21   P1    S    
C29   C57   S    
O34   P13   S    
C3    C83   S    
C4    H84   S    
C8    C12   A    
C63   H95   S    
Ba3   O20   S    
C49   H63   S    
O44   P12   S    
C29   P10   S    
C4    H40   S    
Ba2   O17   S    
Ba4   O44   S    
O43   P11   S    
C23   C87   A    
Ba1   O18   S    
O32   P4    S    
C19   C23   A    
O24   P15   S    
C22   P2    S    
C89   H109  S    
C3    H39   S    
C28   H60   S    
C48   C64   S    
O28   P15   D    
C76   C80   S    
C67   H103  S    
C70   H10   S    
C1    C81   S    
C66   H102  S    
C1    H37   S    
C2    H42   S    
Ba1   O1    S    
C87   H75   S    
C80   H24   S    
Ba4   O15   S    
C27   C43   A    
C42   C54   S    
O14   P5    S    
C71   H11   S    
O18   P2    S    
O13   P6    S    
C46   H90   S    
C7    C11   A    
O25   P14   D    
C76   O32   S    
C47   H87   S    
Ba2   P6    S    
C9    H65   S    
O23   P16   S    
Ba1   P5    S    
O27   P16   D    
C44   C56   S    
C68   O7    S    
C45   H85   S    
C58   H78   S    
C61   H93   S    
O40   P8    D    
C53   H51   S    
C75   H15   S    
C79   H23   S    
C72   H8    S    
C63   H47   S    
Ba4   P4    S    
C74   H18   S    
O21   P14   S    
C20   H56   S    
C6    C86   A    
C5    C85   A    
C26   C30   S    
C15   C19   A    
Ba2   O38   S    
C35   C39   D    
C35   P8    S    
C2    H82   S    
Ba1   O37   S    
Ba3   O16   S    
Ba4   O24   S    
C34   C58   D    
C70   C90   S    
O12   P12   S    
C13   C17   A    
C30   P9    S    
C25   C41   A    
C4    C84   S    
C8    P15   S    
C17   H53   S    
C60   H80   S    
C11   C15   A    
C24   P4    S    
C66   C70   S    
O46   P10   D    
C47   O11   S    
C68   H108  S    
Ba2   O42   S    
C65   C69   S    
C74   C78   S    
C59   H79   S    
C81   H1    S    
C62   H46   S    
C73   C77   S    
C22   C86   A    
C80   H28   S    
Ba4   O19   S    
C75   O31   S    
C5    P14   S    
C76   H20   S    
C46   C62   S    
C65   H101  S    
C27   H59   S    
Ba4   O40   S    
C72   C92   S    
C68   C72   S    
C24   C88   A    
C47   C63   S    
C7    P16   S    
C90   H110  S    
C73   H17   S    
Ba3   O39   S    
C89   O49   D    
O26   P13   D    
C78   H22   S    
C76   H16   S    
C69   C89   S    
O36   P15   S    
C1    H41   S    
C45   H89   S    
Ba1   O41   S    
C52   H62   S    
C67   O8    S    
O2    P2    D    
C39   H71   S    
O38   P6    D    
Ba2   O14   S    
O16   P7    S    
O1    P1    D    
O20   P4    S    
O39   P7    D    
C84   O36   S    
O3    P3    D    
C64   H48   S    
C80   H32   S    
Ba4   P8    S    
C45   O9    S    
Ba3   Ba4   S    
O17   P1    S    
C13   C49   S    
O22   P13   S    
O5    P5    S    
O29   P1    S    
C20   C24   A    
C15   C51   S    
C91   O51   D    
C64   H96   S    
C17   C21   A    
C83   H3    S    
Ba3   O23   S    
O45   P9    D    
Ba1   O13   S    
C14   C18   A    
C1    H81   S    
C31   P12   S    
C26   C42   A    
C48   H92   S    
C90   O50   D    
C36   C60   D    
C11   H67   S    
C68   H104  S    
C33   C57   D    
C38   H70   S    
C67   H107  S    
C75   H19   S    
C74   O30   S    
C35   C59   D    
Ba3   O43   S    
C21   C85   A    
C73   H13   S    
C2    C82   S    
C6    P13   S    
C9    C13   A    
C74   H14   S    
O41   P9    S    
C51   C53   D    
C3    H83   S    
C61   H45   S    
C84   H36   S    
C62   H94   S    
C37   C41   S    
C75   C79   S    
C71   C91   S    
C37   H69   S    
C28   C44   A    
C19   H55   S    
O6    P6    S    
O10   P10   S    
C62   H98   S    
C27   C31   S    
C69   H9    S    
O15   P8    S    
C52   C54   D    
Ba1   P1    S    
C16   C52   S    
C71   H7    S    
C16   C20   A    
C55   H49   S    
Ba3   P7    S    
C88   H76   S    
C25   H57   S    
C26   H58   S    
C3    H43   S    
C14   C50   S    
C18   H54   S    
C43   C55   S    
C51   H61   S    
O4    P4    D    
C34   C38   D    
C54   H52   S    
C36   C40   D    
C8    C88   A    
C57   H77   S    
C12   H68   S    
C46   O10   S    
Ba2   O13   S    
C66   H106  S    
C33   P6    S    
C18   C22   A    
C77   H29   S    
Ba1   O14   S    
C48   O12   S    
C78   H26   S    
Ba3   O3    S    
O19   P3    S    
C40   H72   S    
C79   H31   S    
C32   C60   S    
C77   H21   S    
C39   C43   S    
C78   H30   S    
C86   H74   S    
C40   C44   S    
C6    C10   A    
O33   P14   S    
O8    P8    S    
C92   O52   D    
C85   H73   S    
