data_mof_unit_32466.cif
_audit_creation_date              2012-12-10T20:51:46-0500
_audit_creation_method            fapswitch 2.2
_symmetry_space_group_name_H-M    P1
_symmetry_Int_Tables_number       1
_space_group_crystal_system       triclinic
_cell_length_a                    8.091769
_cell_length_b                    8.932045
_cell_length_c                    16.788567
_cell_angle_alpha                 89.41502
_cell_angle_beta                  91.526927
_cell_angle_gamma                 90.036553
_cell_volume                      1212.9170523

loop_
_atom_site_label
_atom_site_type_symbol
_atom_type_description
_atom_site_fract_x
_atom_site_fract_y
_atom_site_fract_z
_atom_type_partial_charge
C1    C     C_R   0.499937 0.217932 0.500049 0.951001
C2    C     C_R   0.616395 0.422190 0.137440 -0.142781
C3    C     C_R   0.485303 0.389887 0.898273 0.202133
C4    C     C_R   0.490715 0.501130 0.094480 0.210744
C5    C     C_R   0.631865 0.364532 0.858615 -0.167834
C6    C     C_R   0.367379 0.577174 0.133952 -0.139038
C7    C     C_R   0.645312 0.407486 0.779648 -0.271468
C8    C     C_R   0.362579 0.572064 0.216189 -0.315594
C9    C     C_1   0.499908 0.065173 0.500147 -0.185305
C10   C     C_1   0.500023 0.934812 0.500187 -0.192802
C11   C     C_3   0.884383 0.410739 0.269057 0.133476
C12   C     C_R   0.500051 0.782060 0.500132 0.930030
C13   C     C_3   0.013469 0.301140 0.301815 -0.717587
C14   C     C_3   0.262572 0.735454 0.740793 0.167920
C15   C     C_3   0.120075 0.813515 0.696513 -0.740482
C16   C     C_2   0.748813 0.341151 0.095950 0.945854
C17   C     C_2   0.184592 0.466370 0.899059 0.960369
C18   C     C_R   0.516310 0.498463 0.654006 0.889250
C19   C     C_R   0.483597 0.498565 0.346203 0.925269
C20   C     C_R   0.512467 0.478304 0.740075 -0.183312
C21   C     C_R   0.485254 0.495070 0.259861 -0.150667
C22   C     C_R   0.364652 0.508695 0.780600 0.384442
C23   C     C_R   0.615491 0.422268 0.221130 0.384732
C24   C     C_R   0.346557 0.454987 0.858612 -0.161497
H1    H     H_    0.737598 0.315363 0.889907 0.205150
H2    H     H_    0.378547 0.763316 0.709559 0.096711
H3    H     H_    0.271088 0.779733 0.802574 0.155214
H4    H     H_    0.002256 0.790141 0.726771 0.265553
H5    H     H_    0.141673 0.936304 0.695406 0.193663
H6    H     H_    0.110261 0.772801 0.634257 0.255893
H7    H     H_    0.886769 0.154084 0.088559 0.349073
H8    H     H_    0.961948 0.566947 0.905854 0.362020
H9    H     H_    0.272028 0.637475 0.100394 0.174445
H10   H     H_    0.758373 0.383010 0.749181 0.205938
H11   H     H_    0.264597 0.630365 0.245842 0.177443
H12   H     H_    0.880289 0.508726 0.309163 0.151432
H13   H     H_    0.925730 0.451311 0.210038 0.124613
H14   H     H_    0.014579 0.199067 0.264609 0.267747
H15   H     H_    0.137569 0.353214 0.300665 0.215397
H16   H     H_    0.985300 0.269004 0.364081 0.246558
N1    N     N_1   0.073640 0.500030 0.499990 -0.036083
N2    N     N_1   0.926360 0.499970 0.500010 -0.039842
N3    N     N_2   0.490322 0.377723 0.981398 -0.120147
N4    N     N_2   0.483068 0.504648 0.011018 -0.154455
O1    O     O_R   0.636850 0.285340 0.500000 -0.607712
O2    O     O_3   0.232726 0.579539 0.741861 -0.560572
O3    O     O_2   0.820832 0.402148 0.041340 -0.628120
O4    O     O_R   0.793743 0.196552 0.120699 -0.758928
O5    O     O_2   0.153389 0.381089 0.954128 -0.594075
O6    O     O_R   0.066451 0.572145 0.873932 -0.776766
O7    O     O_R   0.363150 0.714660 0.500000 -0.622171
O8    O     O_R   0.363100 0.285350 0.500000 -0.621352
O9    O     O_R   0.636900 0.714650 0.500000 -0.618050
O10   O     O_R   0.652140 0.498630 0.616140 -0.619862
O11   O     O_R   0.347860 0.501370 0.383860 -0.641225
O12   O     O_R   0.378390 0.498650 0.616130 -0.568766
O13   O     O_R   0.621610 0.501350 0.383870 -0.603675
O14   O     O_3   0.729333 0.337090 0.265134 -0.574340
Zn1   Zn    Zn3+2 0.682780 0.499990 0.500010 0.993600
Zn2   Zn    Zn3+2 0.317220 0.500010 0.499990 0.988837

loop_
_geom_bond_atom_site_label_1
_geom_bond_atom_site_label_2
_ccdc_geom_bond_type
C17   O6    S    
N2    Zn1   S    
C23   O14   S    
C2    C4    A    
N3    N4    D    
C11   H13   S    
C14   H3    S    
C11   O14   S    
C2    C16   S    
C9    C10   T    
C12   O9    A    
C6    H9    S    
C18   O12   A    
H7    O4    S    
C3    N3    S    
C16   O4    S    
C8    C21   A    
C13   H14   S    
C14   O2    S    
O11   Zn2   S    
C19   O13   A    
C11   C13   S    
C1    O1    A    
C15   H4    S    
C10   C12   S    
C5    H1    S    
C16   O3    D    
C11   H12   S    
C19   C21   S    
C3    C24   A    
C20   C22   A    
C15   H5    S    
C18   C20   S    
O10   Zn1   S    
C21   C23   A    
O9    Zn1   S    
C7    H10   S    
C22   C24   A    
C13   H15   S    
C17   C24   S    
O13   Zn1   S    
C18   O10   A    
C17   O5    D    
C12   O7    A    
C1    C9    S    
C15   H6    S    
C4    C6    A    
C7    C20   A    
N1    N2    T    
C19   O11   A    
C2    C23   A    
C5    C7    A    
C14   C15   S    
O1    Zn1   S    
C13   H16   S    
C6    C8    A    
O7    Zn2   S    
O8    Zn2   S    
C22   O2    S    
C1    O8    A    
C14   H2    S    
H8    O6    S    
O12   Zn2   S    
N1    Zn2   S    
C4    N4    S    
C3    C5    A    
C8    H11   S    
