data_mof_unit_28167.cif
_audit_creation_date              2012-12-10T16:44:16-0500
_audit_creation_method            fapswitch 2.2
_symmetry_space_group_name_H-M    P1
_symmetry_Int_Tables_number       1
_space_group_crystal_system       triclinic
_cell_length_a                    7.42681
_cell_length_b                    8.694343
_cell_length_c                    13.406696
_cell_angle_alpha                 94.022489
_cell_angle_beta                  77.247773
_cell_angle_gamma                 103.145671
_cell_volume                      822.02652893

loop_
_atom_site_label
_atom_site_type_symbol
_atom_type_description
_atom_site_fract_x
_atom_site_fract_y
_atom_site_fract_z
_atom_type_partial_charge
C1    C     C_R   0.545311 0.800211 0.503057 0.884134
C2    C     C_R   0.417893 0.506715 0.975474 0.089289
C3    C     C_R   0.464889 0.554151 0.872043 0.085846
C4    C     C_R   0.559821 0.545982 0.035139 0.069870
C5    C     C_R   0.739005 0.641792 0.993345 0.129700
C6    C     C_R   0.774202 0.701370 0.895564 -0.232155
C7    C     C_R   0.638313 0.660791 0.836573 -0.205843
C8    C     C_R   0.529553 0.492811 0.135071 -0.303363
C9    C     C_R   0.845791 0.631289 0.151586 0.146021
C10   C     C_R   0.336470 0.494514 0.806857 -0.111576
C11   C     C_2   0.570857 0.968064 0.504572 -0.370189
C12   C     C_R   0.399245 0.497856 0.694523 0.775066
C13   C     C_2   0.429090 0.031922 0.495534 -0.373606
C14   C     C_R   0.454658 0.199790 0.497004 0.887610
C15   C     C_R   0.602559 0.512831 0.305711 0.817020
C16   C     C_R   0.880666 0.680637 0.050495 -0.212469
C17   C     C_R   0.665667 0.540622 0.195086 -0.073348
C18   C     C_R   0.152401 0.413148 0.848996 -0.189621
C19   C     C_R   0.099357 0.380813 0.952569 -0.139833
C20   C     C_R   0.230670 0.423067 0.014869 -0.194688
Cu1   Cu    Cu3+1 0.321300 0.483160 0.488710 0.946023
Cu2   Cu    Cu3+1 0.678700 0.516840 0.511290 0.952906
H1    H     H_    0.292448 0.960527 0.486983 0.181237
H2    H     H_    0.010764 0.617414 0.579431 0.223034
H3    H     H_    0.989215 0.382637 0.420558 0.221739
H4    H     H_    0.907665 0.780255 0.864410 0.144134
H5    H     H_    0.017685 0.752434 0.016920 0.137638
H6    H     H_    0.398478 0.415712 0.169499 0.155170
H7    H     H_    0.050851 0.369465 0.801158 0.162514
H8    H     H_    0.179394 0.390990 0.093818 0.122365
H9    H     H_    0.956704 0.317921 0.984339 0.148624
H10   H     H_    0.670186 0.717078 0.763499 0.162716
H11   H     H_    0.707497 0.039451 0.513126 0.179016
N1    N     N_2   0.947230 0.542220 0.528320 -0.213014
N2    N     N_2   0.052770 0.457780 0.471680 -0.215560
O1    O     O_R   0.383920 0.714220 0.492660 -0.582173
O2    O     O_R   0.685730 0.742660 0.511730 -0.585661
O3    O     O_R   0.275440 0.478800 0.636790 -0.587314
O4    O     O_R   0.577250 0.507240 0.655860 -0.580465
O5    O     O_R   0.314270 0.257340 0.488270 -0.585017
O6    O     O_R   0.616080 0.285780 0.507340 -0.582285
O7    O     O_R   0.422750 0.492760 0.344140 -0.588241
O8    O     O_R   0.724560 0.521200 0.363210 -0.568791
N3    N     N_3   0.989185 0.679007 0.210965 -0.560062
H12   H     H_    0.036335 0.578318 0.222163 0.220546
H13   H     H_    0.106599 0.757127 0.170123 0.213054

loop_
_geom_bond_atom_site_label_1
_geom_bond_atom_site_label_2
_ccdc_geom_bond_type
C2    C4    A    
C6    C7    A    
Cu1   N2    S    
C15   O7    A    
C8    C17   A    
C1    C11   S    
C1    O2    A    
C4    C8    A    
C19   H9    S    
C12   O4    A    
C2    C3    A    
C15   O8    A    
C18   H7    S    
C20   H8    S    
Cu1   Cu2   S    
C11   C13   D    
C6    H4    S    
Cu1   O5    S    
C10   C12   S    
H3    N2    S    
C14   O6    A    
C3    C10   A    
Cu2   O4    S    
C9    C17   A    
C9    C16   A    
C10   C18   A    
C18   C19   A    
C3    C7    A    
C12   O3    A    
C5    C6    A    
Cu2   N1    S    
Cu2   O6    S    
C14   O5    A    
Cu1   O7    S    
C11   H11   S    
N3    H12   S    
C13   H1    S    
C8    H6    S    
C15   C17   S    
N1    N2    D    
C16   H5    S    
Cu1   O1    S    
C9    N3    S    
C7    H10   S    
C13   C14   S    
Cu2   O2    S    
C2    C20   A    
Cu2   O8    S    
H2    N1    S    
Cu1   O3    S    
C19   C20   A    
C1    O1    A    
N3    H13   S    
C4    C5    A    
C5    C16   A    
