data_mof_unit_41431.cif
_audit_creation_date              2012-12-11T16:09:24-0500
_audit_creation_method            fapswitch 2.2
_symmetry_space_group_name_H-M    P1
_symmetry_Int_Tables_number       1
_space_group_crystal_system       triclinic
_cell_length_a                    6.980345
_cell_length_b                    21.329997
_cell_length_c                    23.618246
_cell_angle_alpha                 90.132631
_cell_angle_beta                  89.637655
_cell_angle_gamma                 89.408831
_cell_volume                      3516.27061699

loop_
_atom_site_label
_atom_site_type_symbol
_atom_type_description
_atom_site_fract_x
_atom_site_fract_y
_atom_site_fract_z
_atom_type_partial_charge
O1    O     O_R   0.494270 0.443530 0.442350 -0.530229
O2    O     O_R   0.824060 0.436290 0.557250 -0.529407
O3    O     O_R   0.994370 0.556470 0.557650 -0.535095
C1    C     C_R   0.655580 0.421176 0.576576 0.726510
O4    O     O_R   0.823990 0.436120 0.442760 -0.530572
O5    O     O_R   0.994300 0.556300 0.442340 -0.541351
C2    C     C_R   0.656665 0.420976 0.423280 0.707831
O6    O     O_R   0.494350 0.443700 0.557660 -0.537482
O7    O     O_3   0.660800 0.539430 0.500000 -0.372191
V1    V     V_3+5 0.935650 0.492690 0.500000 1.506612
O8    O     O_R   0.324020 0.563710 0.442750 -0.533052
C3    C     C_R   0.154995 0.578731 0.423398 0.712492
O9    O     O_R   0.324090 0.563880 0.557240 -0.539213
C4    C     C_R   0.154426 0.578971 0.576585 0.734619
V2    V     V_3+5 0.435660 0.507310 0.500000 1.485390
O10   O     O_3   0.160640 0.460570 0.500000 -0.359823
C5    C     C_3   0.048759 0.720635 0.796794 -0.132098
C6    C     C_3   0.233506 0.703394 0.763159 -0.135395
H1    H     H_    0.335734 0.665133 0.774027 0.119268
H2    H     H_    0.998321 0.697028 0.835898 0.117087
H3    H     H_    0.427111 0.794082 0.766487 0.114429
C7    C     C_1   0.142837 0.624679 0.622088 -0.164198
C8    C     C_1   0.076767 0.874487 0.877170 -0.188995
C9    C     C_3   0.936037 0.725181 0.740561 -0.133585
C10   C     C_3   0.120628 0.708559 0.707554 0.161780
C11   C     C_3   0.986165 0.795658 0.736171 -0.137798
C12   C     C_3   0.099043 0.790499 0.791777 0.161150
C13   C     C_3   0.170911 0.778419 0.702537 -0.129260
C14   C     C_3   0.283636 0.773872 0.758769 -0.143890
C15   C     C_1   0.132879 0.662587 0.660485 -0.042982
C16   C     C_1   0.086771 0.836521 0.838814 -0.059262
H4    H     H_    0.221346 0.802018 0.663429 0.127848
H5    H     H_    0.883920 0.833911 0.725296 0.116844
H6    H     H_    0.792570 0.704965 0.732841 0.116910
C17   C     C_3   0.238063 0.818882 0.256127 -0.167569
C18   C     C_3   0.899358 0.781988 0.236890 0.029212
C19   C     C_3   0.921334 0.738626 0.289963 -0.377505
H7    H     H_    0.837678 0.827678 0.251150 0.156952
H8    H     H_    0.885898 0.765957 0.328728 0.220887
H9    H     H_    0.815812 0.699842 0.288718 0.155935
C20   C     C_1   0.144505 0.624791 0.378368 -0.123337
C21   C     C_3   0.100058 0.793483 0.209058 0.187662
C22   C     C_3   0.272963 0.766226 0.302459 0.374739
C23   C     C_3   0.128168 0.710724 0.294036 0.076109
C24   C     C_3   0.171354 0.678689 0.235228 -0.046235
C25   C     C_3   0.182660 0.729444 0.187770 -0.377458
C26   C     C_1   0.136439 0.663443 0.340660 0.070199
C27   C     C_1   0.086627 0.838301 0.160516 -0.043097
C28   C     C_1   0.075451 0.875354 0.121595 -0.197663
H10   H     H_    0.332399 0.735913 0.173108 0.157568
H11   H     H_    0.103831 0.712921 0.149883 0.157017
H12   H     H_    0.378337 0.828447 0.235432 0.130203
H13   H     H_    0.417945 0.746786 0.294037 0.056850
H14   H     H_    0.048350 0.647786 0.225174 0.162073
C29   C     C_3   0.431987 0.260526 0.707915 -0.429197
C30   C     C_3   0.783794 0.243280 0.705504 -0.312291
C31   C     C_3   0.778232 0.199080 0.757725 -0.323492
H15   H     H_    0.417609 0.238854 0.665203 0.182709
H16   H     H_    0.928867 0.263336 0.700222 0.209233
H17   H     H_    0.759223 0.215142 0.666507 0.144210
H18   H     H_    0.784061 0.149511 0.743141 0.145380
H19   H     H_    0.908484 0.205633 0.783671 0.183800
C32   C     C_1   0.572565 0.124510 0.877852 -0.197319
C33   C     C_3   0.627151 0.295440 0.710818 0.107527
C34   C     C_3   0.415420 0.209495 0.755071 -0.005268
C35   C     C_3   0.595605 0.211428 0.794426 0.193956
C36   C     C_3   0.603466 0.280091 0.819248 -0.114319
C37   C     C_3   0.648994 0.329854 0.770449 0.566923
C38   C     C_1   0.581443 0.163375 0.840361 -0.044648
C39   C     C_1   0.639524 0.339514 0.661788 0.031181
C40   C     C_1   0.647179 0.376219 0.622539 -0.123750
H20   H     H_    0.455861 0.290386 0.835291 0.137156
H21   H     H_    0.309750 0.293939 0.711160 0.195690
H22   H     H_    0.286614 0.220780 0.781325 0.169395
C41   C     C_3   0.398189 0.285515 0.274913 0.565328
C42   C     C_3   0.741093 0.308240 0.241125 -0.412088
C43   C     C_3   0.710994 0.263060 0.190618 -0.348026
H23   H     H_    0.316144 0.257893 0.186684 0.119056
H24   H     H_    0.893209 0.305185 0.252997 0.220342
H25   H     H_    0.716149 0.357616 0.228101 0.144682
H26   H     H_    0.645494 0.289260 0.154811 0.151643
H27   H     H_    0.852529 0.244792 0.175613 0.157883
C44   C     C_1   0.566175 0.124120 0.121709 -0.186393
C45   C     C_3   0.615343 0.289764 0.293040 0.160940
C46   C     C_3   0.381322 0.236007 0.224840 -0.364972
C47   C     C_3   0.580646 0.208029 0.207955 0.206040
C48   C     C_3   0.667029 0.175828 0.260860 -0.347981
C49   C     C_3   0.684539 0.222914 0.310752 -0.301947
C50   C     C_1   0.568992 0.162016 0.160329 -0.061789
C51   C     C_1   0.641522 0.336474 0.339822 0.091797
C52   C     C_1   0.651212 0.374885 0.377890 -0.086781
H28   H     H_    0.604412 0.204856 0.347784 0.213278
H29   H     H_    0.835089 0.224272 0.324368 0.230188
H30   H     H_    0.575137 0.136034 0.274045 0.175533
H31   H     H_    0.284300 0.197041 0.235679 0.197639
H32   H     H_    0.811231 0.156081 0.250362 0.174025
O11   O     O_R   0.724990 0.055630 0.941600 -0.534496
O12   O     O_R   0.395220 0.063160 0.056480 -0.537360
O13   O     O_R   0.225040 0.942970 0.056870 -0.533994
C53   C     C_R   0.562420 0.078360 0.075965 0.725620
O14   O     O_R   0.395270 0.063000 0.941990 -0.537610
O15   O     O_R   0.225080 0.942800 0.941570 -0.534826
C54   C     C_R   0.563763 0.078165 0.922685 0.725509
O16   O     O_R   0.724940 0.055790 0.056910 -0.534251
O17   O     O_3   0.558580 0.959880 0.999250 -0.367904
V3    V     V_3+5 0.283680 0.006590 0.999220 1.423182
O18   O     O_R   0.895380 0.935350 0.941950 -0.537225
C55   C     C_R   0.065079 0.920260 0.922630 0.725271
O19   O     O_R   0.895330 0.935520 0.056440 -0.537778
C56   C     C_R   0.064408 0.920495 0.075794 0.726875
V4    V     V_3+5 0.783690 0.991900 0.999180 1.421603
O20   O     O_3   0.058660 0.038680 0.999200 -0.368099
C57   C     C_3   0.348752 0.634980 0.234022 -0.824490
H33   H     H_    0.480759 0.659239 0.246932 0.216869
H34   H     H_    0.327088 0.594313 0.262515 0.213158
H35   H     H_    0.371054 0.616227 0.190534 0.221460
C58   C     C_3   0.377443 0.144491 0.729009 -0.773430
H36   H     H_    0.362813 0.108368 0.762450 0.211216
H37   H     H_    0.240824 0.145994 0.705127 0.211096
H38   H     H_    0.493692 0.130179 0.699295 0.224811
C59   C     C_3   0.505682 0.385643 0.775920 -0.732898
H39   H     H_    0.355434 0.370959 0.771209 0.227497
H40   H     H_    0.516927 0.407699 0.818395 0.230770
H41   H     H_    0.535199 0.422213 0.743722 0.229130
S1    S     S_3+6 0.887246 0.364915 0.776743 -0.071731
O21   O     O_2   0.037464 0.316125 0.789191 -0.408273
O22   O     O_2   0.941123 0.397886 0.722865 -0.349357
O23   O     O_3   0.886749 0.418229 0.829371 -0.512360
H42   H     H_    0.020463 0.433179 0.831236 0.362117
C60   C     C_3   0.724932 0.285614 0.873549 -0.645035
H43   H     H_    0.731369 0.335016 0.887919 0.249021
H44   H     H_    0.871317 0.266123 0.867711 0.246793
H45   H     H_    0.656733 0.259330 0.908716 0.170276
C61   C     C_3   0.325333 0.350241 0.253433 -0.772689
H46   H     H_    0.173654 0.347877 0.240713 0.210962
H47   H     H_    0.337224 0.386811 0.286718 0.215431
H48   H     H_    0.404033 0.365838 0.215186 0.169732
S2    S     S_3+6 0.248009 0.263287 0.335962 -0.073841
O24   O     O_2   0.353311 0.269312 0.391018 -0.349744
O25   O     O_2   0.075604 0.305681 0.339989 -0.364030
O26   O     O_3   0.176500 0.188415 0.330309 -0.542954
H49   H     H_    0.129351 0.177034 0.368534 0.364074
S3    S     S_3+6 0.296004 0.793502 0.375059 -0.012785
O27   O     O_2   0.436688 0.846287 0.377469 -0.322314
O28   O     O_2   0.106285 0.815283 0.398700 -0.330265
O29   O     O_3   0.381982 0.735008 0.415538 -0.510832
H50   H     H_    0.383134 0.752262 0.454505 0.368049
C62   C     C_3   0.169710 0.883154 0.279864 -0.614025
H51   H     H_    0.287870 0.906938 0.302100 0.257068
H52   H     H_    0.126232 0.915330 0.245331 0.172582
H53   H     H_    0.046408 0.878329 0.309233 0.247200
C63   C     C_3   0.753047 0.755403 0.194966 -0.819579
H54   H     H_    0.612237 0.753991 0.216023 0.196581
H55   H     H_    0.738834 0.785806 0.157130 0.221564
H56   H     H_    0.790378 0.707001 0.181360 0.217950

loop_
_geom_bond_atom_site_label_1
_geom_bond_atom_site_label_2
_ccdc_geom_bond_type
S3    O29   S    
C48   C49   S    
C12   C14   S    
C58   H36   S    
C22   S3    S    
V4    O20   S    
C42   H24   S    
C31   C35   S    
C1    O6    A    
O23   H42   S    
C42   C45   S    
C61   H48   S    
C41   C61   S    
C31   H19   S    
V3    O20   S    
C24   C25   S    
C10   C13   S    
C11   C12   S    
C33   C37   S    
C18   C19   S    
C9    C11   S    
C36   H20   S    
C19   H9    S    
O19   V4    S    
O5    C3    A    
O11   V4    S    
C41   C45   S    
C35   C38   S    
C8    C55   S    
V2    O10   S    
C48   H30   S    
C53   O16   A    
C5    H2    S    
C30   C31   S    
C6    H1    S    
C21   C25   S    
C17   C21   S    
C59   H41   S    
C57   H33   S    
O8    V2    S    
C22   H13   S    
C49   H28   S    
S1    O23   S    
O18   C55   A    
C30   C33   S    
O15   C55   A    
C39   C40   T    
O1    V2    S    
C33   C39   S    
C17   C22   S    
O7    V1    S    
C23   C26   S    
C17   C62   S    
C57   H35   S    
C35   C36   S    
O17   V4    S    
O14   C54   A    
O9    C4    A    
C48   H32   S    
C6    C10   S    
C45   C51   S    
C29   C34   S    
C41   C46   S    
C44   C50   T    
C5    C9    S    
C12   C16   S    
C36   C37   S    
C5    C12   S    
C32   C38   T    
C13   H4    S    
C62   H53   S    
C9    C10   S    
C32   C54   S    
C58   H38   S    
O4    C2    A    
C47   C48   S    
C18   C63   S    
C61   H47   S    
C46   C47   S    
O13   C56   A    
H3    C14   S    
C25   H11   S    
C47   C50   S    
C9    H6    S    
C34   H22   S    
C30   H17   S    
C8    C16   T    
C37   C59   S    
C60   H44   S    
C22   C23   S    
O5    V1    S    
C3    C20   S    
C11   H5    S    
C63   H56   S    
C43   H26   S    
C29   H21   S    
C2    C52   S    
C29   C33   S    
C5    C6    S    
C20   C26   T    
C6    C14   S    
C21   C27   S    
C42   C43   S    
S2    O26   S    
C59   H39   S    
O11   C54   A    
O3    C4    A    
S2    O25   D    
H23   C46   S    
C27   C28   T    
C63   H55   S    
C24   H14   S    
O6    V2    S    
O12   C53   A    
C44   C53   S    
O9    V2    S    
S1    O21   D    
C36   C60   S    
O2    V1    S    
O14   V3    S    
C23   C24   S    
O29   H50   S    
C10   C15   S    
S3    O28   D    
O13   V3    S    
C49   H29   S    
C13   C14   S    
C7    C15   T    
O1    C2    A    
O18   V4    S    
C42   H25   S    
C62   H52   S    
C41   S2    S    
C18   C21   S    
C43   C47   S    
O16   V4    S    
O8    C3    A    
C31   H18   S    
C61   H46   S    
O17   V3    S    
C25   H10   S    
C11   C13   S    
O12   V3    S    
C30   H16   S    
C4    C7    S    
C19   C23   S    
C58   H37   S    
C60   H43   S    
O7    V2    S    
O4    V1    S    
C19   H8    S    
O3    V1    S    
V1    O10   S    
O26   H49   S    
C46   H31   S    
C51   C52   T    
C45   C49   S    
C43   H27   S    
O2    C1    A    
C18   H7    S    
O15   V3    S    
C62   H51   S    
C59   H40   S    
S2    O24   D    
C60   H45   S    
C24   C57   S    
C63   H54   S    
C34   C35   S    
C29   H15   S    
C17   H12   S    
S1    O22   D    
C34   C58   S    
O19   C56   A    
C37   S1    S    
C1    C40   S    
S3    O27   D    
C28   C56   S    
C57   H34   S    
