data_mof_unit_9069.cif
_audit_creation_date              2012-12-10T16:52:41-0500
_audit_creation_method            fapswitch 2.2
_symmetry_space_group_name_H-M    P1
_symmetry_Int_Tables_number       1
_space_group_crystal_system       triclinic
_cell_length_a                    7.816104
_cell_length_b                    8.60784
_cell_length_c                    13.839745
_cell_angle_alpha                 93.096016
_cell_angle_beta                  94.521713
_cell_angle_gamma                 94.072517
_cell_volume                      924.227841714

loop_
_atom_site_label
_atom_site_type_symbol
_atom_type_description
_atom_site_fract_x
_atom_site_fract_y
_atom_site_fract_z
_atom_type_partial_charge
C1    C     C_R   0.045012 0.794392 0.498173 0.915578
C2    C     C_R   0.934435 0.487042 0.317688 0.897867
C3    C     C_R   0.094874 0.524386 0.786661 -0.069589
C4    C     C_R   0.892539 0.447783 0.214230 -0.095823
C5    C     C_R   0.030782 0.633544 0.942889 -0.164624
C6    C     C_R   0.887667 0.254122 0.080578 -0.149501
C7    C     C_R   0.990874 0.611811 0.843293 -0.145873
C8    C     C_R   0.968795 0.326115 0.166619 -0.153320
C9    C     C_R   0.229306 0.448891 0.830179 -0.190609
C10   C     C_R   0.745030 0.504556 0.171360 -0.206130
C11   C     C_R   0.263632 0.460217 0.930919 0.120890
C12   C     C_R   0.955551 0.205558 0.502798 0.917752
C13   C     C_R   0.646854 0.417544 0.095555 0.122600
C14   C     C_R   0.172004 0.564450 0.986148 0.140046
C15   C     C_R   0.723892 0.295517 0.046403 0.127267
C16   C     C_R   0.400890 0.385013 0.976069 -0.028245
C17   C     C_R   0.475567 0.450310 0.066703 -0.014631
C18   C     C_2   0.398900 0.557764 0.231289 0.897303
C19   C     C_2   0.359917 0.131552 0.868801 0.914644
C20   C     C_2   0.166517 0.999473 0.401898 1.026299
C21   C     C_2   0.838428 0.002916 0.603199 0.960462
C22   C     C_R   0.373451 0.542982 0.124766 -0.049533
C23   C     C_R   0.468045 0.249291 0.934313 -0.059855
C24   C     C_R   0.223787 0.599672 0.083430 -0.262837
C25   C     C_R   0.632100 0.210050 0.968148 -0.241547
C26   C     C_2   0.059365 0.954663 0.482408 -0.414749
C27   C     C_2   0.944364 0.046116 0.521995 -0.244077
C28   C     C_R   0.065045 0.512910 0.681836 0.887249
H1    H     H_    0.146976 0.671103 0.127386 0.184173
H2    H     H_    0.513440 0.632835 0.565886 0.189524
H3    H     H_    0.399536 0.694584 0.353964 0.365808
H4    H     H_    0.350783 0.948221 0.770852 0.347573
H5    H     H_    0.389562 0.962122 0.477512 0.326634
H6    H     H_    0.610954 0.010502 0.661398 0.363071
H7    H     H_    0.685942 0.108576 0.936136 0.199914
H8    H     H_    0.702142 0.610606 0.203460 0.150989
H9    H     H_    0.310585 0.385887 0.784536 0.152998
H10   H     H_    0.085224 0.281626 0.198343 0.211941
H11   H     H_    0.884409 0.669467 0.810032 0.190497
H12   H     H_    0.955367 0.708337 0.985362 0.151044
H13   H     H_    0.947050 0.159305 0.044698 0.174589
H14   H     H_    0.486571 0.362254 0.438887 0.266744
N1    N     N_2   0.440860 0.456490 0.474790 -0.145859
N2    N     N_2   0.559140 0.543510 0.525210 -0.176249
O1    O     O_R   0.891570 0.738930 0.506190 -0.593179
O2    O     O_R   0.372007 0.697990 0.281442 -0.763471
O3    O     O_2   0.203050 0.123278 0.869242 -0.616364
O4    O     O_R   0.437704 0.024140 0.810468 -0.825731
O5    O     O_2   0.097238 0.041750 0.326635 -0.593655
O6    O     O_R   0.345233 0.994022 0.411303 -0.726455
O7    O     O_2   0.899388 0.931063 0.669974 -0.626512
O8    O     O_R   0.670581 0.048680 0.603892 -0.793149
O9    O     O_R   0.108430 0.261070 0.493810 -0.613177
O10   O     O_R   0.174650 0.711050 0.490030 -0.649137
O11   O     O_R   0.825350 0.288950 0.509970 -0.577142
O12   O     O_R   0.909850 0.521900 0.644940 -0.601803
O13   O     O_R   0.090150 0.478100 0.355060 -0.590490
O14   O     O_R   0.192930 0.494020 0.628780 -0.628880
O15   O     O_R   0.807070 0.505980 0.371220 -0.587712
O16   O     O_2   0.441252 0.445632 0.275175 -0.621453
Zn1   Zn    Zn3+2 0.810990 0.518620 0.510790 1.020110
Zn2   Zn    Zn3+2 0.189010 0.481380 0.489210 0.997793

loop_
_geom_bond_atom_site_label_1
_geom_bond_atom_site_label_2
_ccdc_geom_bond_type
O14   Zn2   S    
C2    C4    S    
C1    O10   A    
C10   C13   A    
C20   O5    D    
C3    C9    A    
C28   O14   A    
N2    Zn1   S    
C9    C11   A    
C11   C16   A    
H6    O8    S    
C17   C22   A    
C13   C17   A    
N1    N2    D    
H2    N2    S    
C23   C25   A    
C21   C27   S    
C2    O13   A    
O13   Zn2   S    
O12   Zn1   S    
C18   O16   D    
H4    O4    S    
C1    O1    A    
C5    C14   A    
C8    H10   S    
C25   H7    S    
O11   Zn1   S    
C22   C24   A    
O1    Zn1   S    
C3    C28   S    
C2    O15   A    
C10   H8    S    
C16   C23   A    
C3    C7    A    
C13   C15   A    
C28   O12   A    
C1    C26   S    
C11   C14   A    
C19   O3    D    
C15   C25   A    
C12   O11   A    
O15   Zn1   S    
H14   N1    S    
C12   C27   S    
C4    C10   A    
H5    O6    S    
C18   O2    S    
C21   O7    D    
C19   C23   S    
C20   O6    S    
C9    H9    S    
O9    Zn2   S    
C5    H12   S    
C14   C24   A    
C4    C8    A    
C5    C7    A    
C7    H11   S    
C24   H1    S    
C26   C27   D    
C6    C8    A    
C19   O4    S    
C6    C15   A    
C18   C22   S    
O10   Zn2   S    
C6    H13   S    
C21   O8    S    
C12   O9    A    
N1    Zn2   S    
C16   C17   A    
C20   C26   S    
H3    O2    S    
