data_mof_unit_18282.cif
_audit_creation_date              2012-12-11T15:35:28-0500
_audit_creation_method            fapswitch 2.2
_symmetry_space_group_name_H-M    P1
_symmetry_Int_Tables_number       1
_space_group_crystal_system       triclinic
_cell_length_a                    17.394336
_cell_length_b                    24.408579
_cell_length_c                    14.856151
_cell_angle_alpha                 90.646877
_cell_angle_beta                  125.111646
_cell_angle_gamma                 89.214694
_cell_volume                      5159.20548827

loop_
_atom_site_label
_atom_site_type_symbol
_atom_type_description
_atom_site_fract_x
_atom_site_fract_y
_atom_site_fract_z
_atom_type_partial_charge
Br1   Br    Br    0.852116 0.878291 0.514190 -0.357326
Br2   Br    Br    0.899214 0.124568 0.502198 -0.384335
Br3   Br    Br    0.355899 0.375469 0.512695 -0.353526
Br4   Br    Br    0.392898 0.623441 0.512200 -0.376077
Br5   Br    Br    0.712752 0.180750 0.235137 -0.519118
Br6   Br    Br    0.713858 0.816643 0.221652 -0.532077
Br7   Br    Br    0.265866 0.663190 0.230236 -0.500890
Br8   Br    Br    0.228589 0.318265 0.217329 -0.509760
C1    C     C_R   0.351511 0.151723 0.907014 0.024107
C2    C     C_R   0.561025 0.150219 0.908982 -0.170923
C3    C     C_R   0.242047 0.544297 0.311984 -0.078131
C4    C     C_R   0.095194 0.370729 0.908264 -0.158719
C5    C     C_R   0.095316 0.625054 0.906598 -0.159269
C6    C     C_R   0.546755 0.999999 0.721215 0.034289
C7    C     C_R   0.934256 0.500213 0.631602 0.054982
C8    C     C_R   0.790151 0.999619 0.376586 0.058716
C9    C     C_R   0.288260 0.499278 0.378160 0.069842
C10   C     C_R   0.623675 0.179531 0.000226 0.031942
C11   C     C_R   0.666459 0.838872 0.001801 0.039878
C12   C     C_R   0.180580 0.641475 0.997121 -0.031589
C13   C     C_R   0.333985 0.855368 0.908633 -0.068649
C14   C     C_R   0.179936 0.351951 0.000270 0.020123
C15   C     C_3   0.027324 0.941488 0.613711 0.307061
C16   C     C_3   0.014748 0.039978 0.667152 0.352141
C17   C     C_3   0.528050 0.440834 0.611506 0.296074
C18   C     C_3   0.514597 0.537659 0.670925 0.340406
C19   C     C_3   0.919736 0.947793 0.550255 0.122452
C20   C     C_3   0.911753 0.050510 0.561283 0.069402
C21   C     C_3   0.420542 0.446066 0.549418 0.114219
C22   C     C_3   0.410335 0.548022 0.566767 0.070792
C23   C     C_3   0.049741 0.022969 0.524193 -0.335492
C24   C     C_R   0.852494 0.651987 0.907346 0.014579
C25   C     C_3   0.547560 0.525166 0.525603 -0.342824
C26   C     C_3   0.069980 0.001631 0.633592 -0.193653
C27   C     C_3   0.569467 0.501429 0.634131 -0.179644
C28   C     C_3   0.888049 0.001771 0.477233 -0.043802
C29   C     C_3   0.386733 0.501197 0.479167 -0.042706
C30   C     C_R   0.424536 0.857095 0.094104 -0.041998
C31   C     C_R   0.446483 0.153941 0.089775 -0.086522
C32   C     C_R   0.927359 0.354538 0.092034 -0.015583
C33   C     C_R   0.948159 0.654061 0.089977 -0.113668
C34   C     C_3   0.948334 0.010958 0.431278 -0.321445
C35   C     C_R   0.834513 0.355197 0.907082 -0.065945
C36   C     C_3   0.446080 0.513289 0.432970 -0.320672
C37   C     C_R   0.210750 0.785747 0.962630 0.557130
C38   C     C_R   0.302032 0.272885 0.898324 0.530369
C39   C     C_R   0.712445 0.313291 0.995677 0.533633
C40   C     C_R   0.798643 0.770882 0.901039 0.533638
C41   C     C_R   0.655601 0.274326 0.995030 -0.188115
C42   C     C_R   0.731549 0.802028 0.901708 -0.275603
C43   C     C_R   0.170091 0.736916 0.957073 -0.246736
C44   C     C_R   0.240861 0.309642 0.899440 -0.258127
C45   C     C_R   0.679471 0.219591 0.999720 0.063262
C46   C     C_R   0.651486 0.149767 0.091429 0.305733
C47   C     C_R   0.741168 0.811370 0.001197 0.075956
C48   C     C_R   0.223713 0.688786 0.992233 0.076487
C49   C     C_R   0.253700 0.323122 0.999170 0.071995
C50   C     C_R   0.758006 0.201622 0.004520 -0.122138
C51   C     C_R   0.827481 0.799456 0.100203 -0.115432
C52   C     C_R   0.318463 0.687967 0.034010 -0.061636
C53   C     C_R   0.338997 0.309201 0.097648 -0.093553
C54   C     C_R   0.359991 0.736462 0.038582 -0.189675
C55   C     C_R   0.395427 0.269078 0.096872 -0.170238
C56   C     C_R   0.814773 0.239578 0.004626 -0.178548
C57   C     C_R   0.672479 0.859205 0.093258 0.269032
C58   C     C_R   0.891452 0.765949 0.099237 -0.181052
C59   C     C_R   0.306080 0.784694 0.002542 -0.116819
C60   C     C_R   0.368540 0.244911 0.996761 -0.036493
C61   C     C_R   0.791807 0.294613 0.000040 -0.106132
C62   C     C_R   0.868647 0.744314 0.999007 -0.004178
C63   C     C_R   0.607098 0.950657 0.627318 -0.106135
C64   C     C_R   0.604269 0.049854 0.627241 -0.130867
C65   C     C_R   0.888067 0.451826 0.459932 -0.130796
C66   C     C_R   0.892335 0.551008 0.465475 -0.142310
C67   C     C_R   0.609964 0.950730 0.536216 -0.093875
C68   C     C_R   0.185183 0.628189 0.090501 0.330622
C69   C     C_R   0.606955 0.049973 0.536092 -0.132712
C70   C     C_R   0.888943 0.452297 0.367339 -0.085103
C71   C     C_R   0.894028 0.551397 0.373595 -0.129921
C72   C     C_R   0.598624 0.000370 0.482978 0.089165
C73   C     C_R   0.903690 0.501829 0.332607 0.122477
C74   C     C_R   0.545949 0.045719 0.302866 -0.099241
C75   C     C_R   0.546553 0.954763 0.302721 -0.078340
C76   C     C_R   0.978764 0.546517 0.247308 -0.109276
C77   C     C_R   0.981702 0.455292 0.251116 -0.034385
C78   C     C_R   0.592180 0.000162 0.663873 0.102648
C79   C     C_R   0.179956 0.364954 0.092085 0.275819
C80   C     C_R   0.899796 0.501018 0.515837 0.111584
C81   C     C_R   0.230902 0.955445 0.751889 -0.013121
C82   C     C_R   0.230354 0.046958 0.738681 -0.021152
C83   C     C_R   0.730778 0.455430 0.751173 -0.002376
C84   C     C_R   0.730233 0.546967 0.738870 -0.036404
C85   C     C_R   0.387733 0.185973 0.997280 0.065848
C86   C     C_R   0.349798 0.832503 0.002096 0.148347
C87   C     C_R   0.889594 0.686064 0.998020 0.069982
C88   C     C_R   0.851834 0.331381 0.999649 0.107078
C89   C     C_R   0.562775 0.000352 0.366965 0.031746
C90   C     C_R   0.584109 0.859160 0.909868 -0.187176
C91   C     C_R   0.948459 0.501324 0.274345 0.041886
C92   C     C_R   0.173628 0.001776 0.714541 0.102731
C93   C     C_R   0.673441 0.501701 0.714128 0.118238
C94   C     C_R   0.517229 0.045616 0.749731 -0.105370
C95   C     C_R   0.513881 0.954569 0.744220 -0.090102
C96   C     C_R   0.950634 0.545436 0.696444 -0.127938
C97   C     C_R   0.950562 0.454706 0.695300 -0.106207
C98   C     C_R   0.752997 0.954970 0.306184 -0.061021
C99   C     C_R   0.743858 0.044599 0.310987 -0.085930
C100  C     C_R   0.251582 0.454937 0.307001 -0.057805
H1    H     H_    0.309489 0.162832 0.821744 0.172318
H2    H     H_    0.861737 0.049570 0.585116 0.113160
H3    H     H_    0.407094 0.452887 0.613344 0.073238
H4    H     H_    0.361679 0.544521 0.592218 0.116842
H5    H     H_    0.097155 0.004940 0.504220 0.225173
H6    H     H_    0.061607 0.067921 0.530124 0.219302
H7    H     H_    0.594544 0.508764 0.503576 0.223266
H8    H     H_    0.558564 0.570240 0.534083 0.221947
H9    H     H_    0.945022 0.974926 0.383290 0.236547
H10   H     H_    0.921387 0.045874 0.372755 0.202827
H11   H     H_    0.442758 0.478617 0.382192 0.236264
H12   H     H_    0.290869 0.839049 0.825865 0.136249
H13   H     H_    0.418303 0.549285 0.377041 0.211058
H14   H     H_    0.593622 0.286280 0.991513 0.204215
H15   H     H_    0.673467 0.819199 0.825042 0.161349
H16   H     H_    0.097045 0.736485 0.928759 0.204659
H17   H     H_    0.184024 0.327240 0.822512 0.169606
H18   H     H_    0.774743 0.158381 0.008056 0.139080
H19   H     H_    0.844496 0.813245 0.178811 0.178811
H20   H     H_    0.359474 0.650377 0.063433 0.144690
H21   H     H_    0.359313 0.325943 0.175844 0.172536
H22   H     H_    0.433595 0.736549 0.069243 0.167383
H23   H     H_    0.810197 0.663372 0.822084 0.167106
H24   H     H_    0.453655 0.253572 0.175219 0.156845
H25   H     H_    0.876188 0.226295 0.008066 0.163075
H26   H     H_    0.951975 0.751966 0.177493 0.152788
H27   H     H_    0.606274 0.911615 0.660420 0.135725
H28   H     H_    0.600970 0.088920 0.659848 0.123421
H29   H     H_    0.887418 0.412636 0.492621 0.137621
H30   H     H_    0.895092 0.590008 0.502242 0.130368
H31   H     H_    0.461180 0.844441 0.178962 0.122392
H32   H     H_    0.494519 0.168086 0.173460 0.124619
H33   H     H_    0.963783 0.340224 0.175719 0.109475
H34   H     H_    0.788008 0.340709 0.823352 0.130792
H35   H     H_    0.997029 0.668134 0.173555 0.116270
H36   H     H_    0.611053 0.911641 0.502113 0.149813
H37   H     H_    0.605290 0.089092 0.501663 0.131973
H38   H     H_    0.888365 0.413409 0.331429 0.140710
H39   H     H_    0.898468 0.590528 0.343596 0.129281
H40   H     H_    0.562642 0.087863 0.329648 0.107897
H41   H     H_    0.563969 0.912662 0.329180 0.117015
H42   H     H_    0.967152 0.589305 0.255254 0.108117
H43   H     H_    0.976047 0.413405 0.267730 0.097169
H44   H     H_    0.209898 0.913893 0.745915 0.162306
H45   H     H_    0.053339 0.924170 0.695422 0.096506
H46   H     H_    0.210267 0.088613 0.712487 0.165997
H47   H     H_    0.709470 0.413921 0.743996 0.150763
H48   H     H_    0.710026 0.588781 0.713818 0.165789
H49   H     H_    0.526734 0.087981 0.739586 0.099314
H50   H     H_    0.516203 0.912886 0.722327 0.098602
H51   H     H_    0.932304 0.587512 0.670182 0.103844
H52   H     H_    0.932719 0.412787 0.667305 0.110899
H53   H     H_    0.779944 0.914264 0.320901 0.222912
H54   H     H_    0.741150 0.084240 0.340233 0.197058
H55   H     H_    0.277472 0.414174 0.321964 0.223083
H56   H     H_    0.007837 0.015104 0.724320 0.031241
H57   H     H_    0.238407 0.584082 0.340557 0.195574
H58   H     H_    0.550368 0.845430 0.826206 0.131419
H59   H     H_    0.522283 0.163520 0.824386 0.151677
H60   H     H_    0.068701 0.366366 0.822714 0.128821
H61   H     H_    0.065212 0.634073 0.821290 0.140310
H62   H     H_    0.150124 0.932919 0.909392 0.372386
H63   H     H_    0.397180 0.244502 0.737989 0.389976
H64   H     H_    0.726010 0.464143 0.986095 0.390475
H65   H     H_    0.895973 0.749003 0.741057 0.397688
H66   H     H_    0.983667 0.845848 0.390925 0.383553
H67   H     H_    0.554831 0.421775 0.692273 0.102138
H68   H     H_    0.026393 0.159304 0.826278 0.380764
H69   H     H_    0.484947 0.350282 0.382822 0.384739
H70   H     H_    0.528093 0.655404 0.834673 0.379225
H71   H     H_    0.509657 0.511469 0.728135 0.057902
H72   H     H_    0.905358 0.956499 0.612875 0.064130
N1    N     N_R   0.392140 0.102630 0.941800 -0.058084
N2    N     N_R   0.525160 0.972040 0.206160 -0.041677
N3    N     N_R   0.025160 0.527960 0.206160 -0.051250
N4    N     N_R   0.025160 0.472040 0.206160 -0.047852
N5    N     N_R   0.317870 0.971120 0.792790 -0.059054
N6    N     N_R   0.317870 0.028880 0.792790 -0.072075
N7    N     N_R   0.817870 0.471120 0.792790 -0.060743
N8    N     N_R   0.817870 0.528880 0.792790 -0.071672
N9    N     N_R   0.473480 0.027920 0.793480 -0.046424
N10   N     N_R   0.473480 0.972080 0.793480 -0.042587
N11   N     N_R   0.973480 0.527920 0.793480 -0.045365
N12   N     N_R   0.392140 0.897370 0.941800 -0.056461
N13   N     N_R   0.973480 0.472080 0.793480 -0.046960
N14   N     N_R   0.681610 0.971120 0.207570 -0.067090
N15   N     N_R   0.681610 0.028880 0.207570 -0.058891
N16   N     N_R   0.181610 0.471120 0.207570 -0.071143
N17   N     N_R   0.181610 0.528880 0.207570 -0.065586
N18   N     N_R   0.605410 0.102620 0.056870 -0.084159
N19   N     N_R   0.605410 0.897380 0.056870 -0.073438
N20   N     N_R   0.105410 0.602620 0.056870 -0.079033
N21   N     N_R   0.105410 0.397380 0.056870 -0.075565
N22   N     N_R   0.549680 0.896430 0.944180 -0.061659
N23   N     N_R   0.892140 0.602630 0.941800 -0.055252
N24   N     N_R   0.549680 0.103570 0.944180 -0.071936
N25   N     N_R   0.049680 0.396430 0.944180 -0.064970
N26   N     N_R   0.049680 0.603570 0.944180 -0.060986
N27   N     N_R   0.892140 0.397370 0.941800 -0.046377
N28   N     N_R   0.450890 0.896450 0.057150 -0.050776
N29   N     N_R   0.450890 0.103550 0.057150 -0.047208
N30   N     N_R   0.950890 0.396450 0.057150 -0.041466
N31   N     N_R   0.950890 0.603550 0.057150 -0.047559
N32   N     N_R   0.525160 0.027960 0.206160 -0.042323
Ni1   Ni    Ni4+2 0.433410 0.064680 0.868830 0.243758
Ni2   Ni    Ni4+2 0.433410 0.935320 0.868830 0.257962
Ni3   Ni    Ni4+2 0.933410 0.564680 0.868830 0.240150
Ni4   Ni    Ni4+2 0.933410 0.435320 0.868830 0.249312
Ni5   Ni    Ni4+2 0.565650 0.934380 0.131170 0.263683
Ni6   Ni    Ni4+2 0.565650 0.065620 0.131170 0.245207
Ni7   Ni    Ni4+2 0.065650 0.434380 0.131170 0.272101
Ni8   Ni    Ni4+2 0.065650 0.565620 0.131170 0.245913
O1    O     O_2   0.062822 0.840864 0.801626 -0.260089
O2    O     O_2   0.717083 0.740921 0.691169 -0.272176
O3    O     O_2   0.791243 0.830845 0.747434 -0.242630
O4    O     O_3   0.900395 0.745153 0.810203 -0.550768
O5    O     O_2   0.135717 0.909141 0.538558 -0.317074
O6    O     O_2   0.085673 0.838713 0.609159 -0.236543
O7    O     O_3   0.963659 0.877416 0.415529 -0.510486
O8    O     O_2   0.156909 0.083153 0.863041 -0.307184
O9    O     O_2   0.093266 0.142604 0.701975 -0.246308
O10   O     O_3   0.993285 0.127448 0.777455 -0.484727
O11   O     O_2   0.636627 0.413014 0.534445 -0.319867
O12   O     O_2   0.094798 0.847625 0.984194 -0.227683
O13   O     O_2   0.587435 0.339588 0.600351 -0.259607
O14   O     O_3   0.464752 0.380837 0.409382 -0.507275
O15   O     O_2   0.658317 0.580133 0.866602 -0.316001
O16   O     O_2   0.591533 0.640626 0.706429 -0.250396
O17   O     O_3   0.494860 0.623600 0.785738 -0.478744
O18   O     O_3   0.198935 0.903904 0.946963 -0.552182
O19   O     O_2   0.218191 0.238256 0.690471 -0.260657
O20   O     O_2   0.293555 0.327786 0.738756 -0.230999
O21   O     O_3   0.401497 0.241657 0.807224 -0.581663
O22   O     O_2   0.586275 0.392564 0.883918 -0.284074
O23   O     O_2   0.669523 0.393279 0.083628 -0.261502
O24   O     O_3   0.757618 0.427912 0.002515 -0.564263
S1    S     S_3+6 0.139295 0.845578 0.922409 -0.017530
S2    S     S_3+6 0.301535 0.270348 0.779000 -0.023546
S3    S     S_3+6 0.679948 0.383102 0.991168 -0.038132
S4    S     S_3+6 0.799620 0.772325 0.782756 -0.015906
S5    S     S_3+6 0.056555 0.891047 0.544546 -0.007463
S6    S     S_3+6 0.069561 0.099883 0.754249 -0.007065
S7    S     S_3+6 0.557688 0.392985 0.539116 -0.017173
S8    S     S_3+6 0.569722 0.597134 0.759254 -0.004877

loop_
_geom_bond_atom_site_label_1
_geom_bond_atom_site_label_2
_ccdc_geom_bond_type
N26   Ni3   S    
O6    S5    D    
N3    Ni8   S    
C23   C34   S    
C47   C51   A    
C72   C89   S    
C76   C91   A    
C6    C94   A    
Br2   C20   S    
C54   H22   S    
C28   C34   S    
N19   Ni5   S    
C12   C48   S    
C61   C88   S    
O11   S7    D    
C14   C49   S    
C39   S3    S    
N5    N6    A    
C98   N14   A    
N9    Ni1   S    
C16   H56   S    
C18   H71   S    
C97   N13   A    
N31   Ni8   S    
C66   H30   S    
C31   N29   A    
O1    S1    D    
C54   C59   A    
O19   S2    D    
N29   Ni6   S    
N23   Ni3   S    
C65   H29   S    
C83   C93   A    
C33   H35   S    
C13   H12   S    
C51   C58   A    
C63   H27   S    
C25   C27   S    
H69   O14   S    
C59   C86   S    
C64   H28   S    
C97   H52   S    
C13   C86   A    
C37   C43   A    
C51   H19   S    
N6    Ni1   S    
C38   C44   A    
C36   H13   S    
C94   N9    A    
N5    Ni2   S    
C12   C68   A    
N20   Ni8   S    
N1    N29   A    
O12   S1    D    
C98   H53   S    
C82   C92   A    
C53   C55   A    
C31   C85   A    
C8    C99   A    
N11   Ni3   S    
C38   C60   A    
C57   N19   A    
O2    S4    D    
O4    S4    S    
Br6   C57   S    
C39   C61   A    
N25   Ni4   S    
C2    H59   S    
C50   C56   A    
C42   C47   A    
C37   C59   A    
N19   N22   A    
C26   C92   S    
C30   H31   S    
O17   S8    S    
C15   C19   S    
C7    C96   A    
C100  N16   A    
N17   Ni8   S    
C67   C72   A    
C23   H6    S    
C74   N32   A    
O9    S6    D    
C10   C45   S    
C53   H21   S    
O7    S5    S    
C40   C42   A    
N14   N15   A    
H62   O18   S    
C77   H43   S    
C58   H26   S    
C32   H33   S    
H63   O21   S    
O20   S2    D    
C43   H16   S    
N12   N28   A    
N23   N31   A    
N18   Ni6   S    
O15   S8    D    
O16   S8    D    
C60   C85   S    
C94   H49   S    
C99   N15   A    
C30   N28   A    
N8    Ni3   S    
C11   C90   A    
N14   Ni5   S    
O8    S6    D    
C81   H44   S    
C17   C21   S    
C100  H55   S    
C25   H7    S    
C81   C92   A    
C35   N27   A    
O21   S2    S    
Br5   C46   S    
C52   H20   S    
C20   C28   S    
C19   H72   S    
C6    C78   S    
C39   C41   A    
C68   N20   A    
C9    C100  A    
C37   S1    S    
C71   C73   A    
C70   H38   S    
C34   H10   S    
C13   N12   A    
C71   H39   S    
C82   N6    A    
C36   H11   S    
C20   H2    S    
C55   H24   S    
C96   N11   A    
N24   Ni1   S    
C16   C26   S    
N30   Ni7   S    
C48   C52   A    
C22   C29   S    
C22   H4    S    
C1    H1    S    
C43   C48   A    
C35   H34   S    
C65   C80   A    
H66   O7    S    
N11   N13   A    
N3    N4    A    
C83   H47   S    
C64   C69   A    
C77   C91   A    
H64   O24   S    
N27   N30   A    
C63   C78   A    
C17   H67   S    
C74   H40   S    
C99   H54   S    
C65   C70   A    
C15   C26   S    
H68   O10   S    
C30   C86   A    
N2    N32   A    
C35   C88   A    
C23   C26   S    
N12   Ni2   S    
C95   N10   A    
C9    C29   S    
C14   C79   A    
N22   Ni2   S    
N10   Ni2   S    
C38   S2    S    
C90   H58   S    
C18   S8    S    
C84   C93   A    
C17   C27   S    
N21   Ni7   S    
C34   H9    S    
C18   C22   S    
C77   N4    A    
O23   S3    D    
C66   C71   A    
C15   H45   S    
N18   N24   A    
C19   C28   S    
C4    C14   A    
N4    Ni7   S    
C82   H46   S    
N7    Ni4   S    
C96   H51   S    
C44   C49   A    
C84   H48   S    
C1    C85   A    
N16   Ni7   S    
O13   S7    D    
N13   Ni4   S    
C3    H57   S    
C56   H25   S    
C69   C72   A    
C11   C47   S    
N28   Ni5   S    
C83   N7    A    
C31   H32   S    
C3    C9    A    
C25   H8    S    
O5    S5    D    
C5    C12   A    
C25   C36   S    
C81   N5    A    
C90   N22   A    
C76   N3    A    
C42   H15   S    
C16   C20   S    
C40   C62   A    
N16   N17   A    
C27   C93   S    
O14   S7    S    
C4    H60   S    
C64   C78   A    
C44   H17   S    
C84   N8    A    
C95   H50   S    
C49   C53   A    
Br7   C68   S    
C8    C98   A    
O3    S4    D    
C56   C61   A    
C55   C60   A    
O22   S3    D    
C46   N18   A    
O24   S3    S    
C73   C91   S    
C32   N30   A    
C66   C80   A    
C4    N25   A    
Br8   C79   S    
C24   N23   A    
C16   S6    S    
C62   C87   S    
C32   C88   A    
N7    N8    A    
C15   S5    S    
C8    C28   S    
C52   C54   A    
C63   C67   A    
C17   S7    S    
C70   C73   A    
C7    C97   A    
C6    C95   A    
C33   C87   A    
C69   H37   S    
N32   Ni6   S    
C2    C10   A    
C41   C45   A    
C41   H14   S    
O18   S1    S    
C5    H61   S    
N27   Ni4   S    
C74   C89   A    
C79   N21   A    
C11   C57   A    
H70   O17   S    
C21   H3    S    
N9    N10   A    
N20   N26   A    
C1    N1    A    
C67   H36   S    
C10   C46   A    
C3    N17   A    
C33   N31   A    
C29   C36   S    
C18   C27   S    
C24   C87   A    
C58   C62   A    
C75   N2    A    
N2    Ni5   S    
C40   S4    S    
C75   C89   A    
C21   C29   S    
Br1   C19   S    
N21   N25   A    
C5    N26   A    
Br3   C21   S    
N1    Ni1   S    
C45   C50   A    
C50   H18   S    
O10   S6    S    
H65   O4    S    
C2    N24   A    
C23   H5    S    
N15   Ni6   S    
Br4   C22   S    
C24   H23   S    
C7    C80   S    
C75   H41   S    
C76   H42   S    
