data_mof_unit_12401.cif
_audit_creation_date              2012-12-11T16:28:11-0500
_audit_creation_method            fapswitch 2.2
_symmetry_space_group_name_H-M    P1
_symmetry_Int_Tables_number       1
_space_group_crystal_system       triclinic
_cell_length_a                    29.929314
_cell_length_b                    22.668064
_cell_length_c                    18.067084
_cell_angle_alpha                 89.997006
_cell_angle_beta                  122.380577
_cell_angle_gamma                 89.996913
_cell_volume                      10351.5123216

loop_
_atom_site_label
_atom_site_type_symbol
_atom_type_description
_atom_site_fract_x
_atom_site_fract_y
_atom_site_fract_z
_atom_type_partial_charge
C1    C     C_R   0.540610 0.591837 0.732623 -0.148938
C2    C     C_R   0.683825 0.358989 0.414616 0.028019
C3    C     C_R   0.726258 0.792372 0.837271 0.658736
C4    C     C_R   0.291602 0.844787 0.985401 0.631774
C5    C     C_R   0.773749 0.292416 0.162797 0.658885
C6    C     C_R   0.708429 0.844689 0.014698 0.631739
C7    C     C_R   0.226085 0.292470 0.837229 0.654702
C8    C     C_R   0.834210 0.312318 0.997846 -0.372019
C9    C     C_R   0.230349 0.828728 0.143671 -0.392896
C10   C     C_R   0.165741 0.312105 0.002388 -0.372375
C11   C     C_R   0.769662 0.828670 0.856390 -0.392888
C12   C     C_R   0.334206 0.812308 0.997827 -0.372001
C13   C     C_R   0.660178 0.700362 0.436926 0.032171
C14   C     C_R   0.730336 0.328711 0.143664 -0.393135
C15   C     C_R   0.665829 0.812210 0.002274 -0.372105
C16   C     C_R   0.269547 0.328709 0.856456 -0.389669
C17   C     C_R   0.580168 0.604894 0.424657 -0.124564
C18   C     C_R   0.405988 0.417921 0.576459 -0.111561
C19   C     C_R   0.419832 0.604897 0.575335 -0.124369
C20   C     C_R   0.594017 0.417945 0.423538 -0.111760
C21   C     C_R   0.080172 0.104884 0.424649 -0.124463
C22   C     C_R   0.905986 0.917941 0.576465 -0.111507
C23   C     C_R   0.919834 0.104900 0.575334 -0.124508
C24   C     C_R   0.316200 0.358839 0.585296 0.028979
C25   C     C_R   0.094018 0.917947 0.423538 -0.111526
C26   C     C_R   0.384439 0.590476 0.265559 0.039063
C27   C     C_R   0.618249 0.419635 0.740791 0.022777
C28   C     C_R   0.615562 0.590460 0.734445 0.039085
C29   C     C_R   0.381753 0.419629 0.259242 0.022432
C30   C     C_R   0.884438 0.090472 0.265557 0.039102
C31   C     C_R   0.118250 0.919640 0.740793 0.022808
C32   C     C_R   0.115556 0.090459 0.734456 0.039201
C33   C     C_R   0.881754 0.919632 0.259219 0.022784
C34   C     C_R   0.591229 0.615537 0.774167 0.022643
C35   C     C_R   0.839820 0.200375 0.563050 0.032168
C36   C     C_R   0.402049 0.404253 0.208144 0.026333
C37   C     C_R   0.408773 0.615561 0.225845 0.022732
C38   C     C_R   0.597958 0.404292 0.791918 0.026735
C39   C     C_R   0.091217 0.115504 0.774191 0.022717
C40   C     C_R   0.902047 0.904281 0.208099 0.026771
C41   C     C_R   0.908772 0.115559 0.225843 0.022622
C42   C     C_R   0.097960 0.904298 0.791922 0.026788
C43   C     C_R   0.618970 0.635473 0.496055 0.026055
C44   C     C_R   0.356379 0.403407 0.506242 0.039699
C45   C     C_R   0.381027 0.635480 0.503931 0.025961
C46   C     C_R   0.183828 0.858994 0.414618 0.027757
C47   C     C_R   0.643636 0.403441 0.493746 0.039530
C48   C     C_R   0.118972 0.135461 0.496042 0.026075
C49   C     C_R   0.856370 0.903437 0.506258 0.039473
C50   C     C_R   0.881030 0.135483 0.503930 0.026081
C51   C     C_R   0.143637 0.903443 0.493747 0.039487
C52   C     C_R   0.338128 0.793466 0.458640 -0.153748
C53   C     C_R   0.785157 0.381881 0.560994 -0.180059
C54   C     C_R   0.661891 0.793442 0.541366 -0.153799
C55   C     C_R   0.214862 0.381850 0.438981 -0.179749
C56   C     C_R   0.838125 0.293467 0.458631 -0.153583
C57   C     C_R   0.160287 0.200261 0.437024 0.032228
C58   C     C_R   0.285159 0.881880 0.561001 -0.180224
C59   C     C_R   0.161762 0.293472 0.541074 -0.153067
C60   C     C_R   0.714853 0.881861 0.439001 -0.180199
C61   C     C_R   0.360616 0.739569 0.459174 -0.149978
C62   C     C_R   0.740866 0.403338 0.558497 -0.200864
C63   C     C_R   0.639394 0.739552 0.540823 -0.150127
C64   C     C_R   0.259153 0.403326 0.441505 -0.200771
C65   C     C_R   0.860615 0.239571 0.459167 -0.149954
C66   C     C_R   0.240868 0.903338 0.558502 -0.200860
C67   C     C_R   0.139262 0.239592 0.540556 -0.150576
C68   C     C_R   0.816188 0.858959 0.585381 0.027755
C69   C     C_R   0.759140 0.903327 0.441503 -0.200843
C70   C     C_R   0.359908 0.692265 0.508652 0.058734
C71   C     C_R   0.689744 0.389066 0.488032 0.118303
C72   C     C_R   0.640089 0.692255 0.491328 0.058815
C73   C     C_R   0.310274 0.389002 0.511937 0.117739
C74   C     C_R   0.859911 0.192268 0.508651 0.058722
C75   C     C_R   0.189746 0.889069 0.488035 0.118442
C76   C     C_R   0.140090 0.192230 0.491282 0.058755
C77   C     C_R   0.810264 0.889052 0.511969 0.118417
C78   C     C_3   0.796678 0.444164 0.979666 -0.304365
C79   C     C_R   0.319420 0.754950 0.564559 -0.170096
C80   C     C_3   0.264185 0.724190 0.246415 -0.349412
C81   C     C_3   0.203273 0.443907 0.020816 -0.303783
C82   C     C_3   0.735815 0.724162 0.753609 -0.349499
C83   C     C_3   0.296694 0.944157 0.979642 -0.305059
C84   C     C_3   0.764178 0.224178 0.246415 -0.349876
C85   C     C_3   0.703302 0.944056 0.020437 -0.304834
C86   C     C_3   0.235538 0.224424 0.753276 -0.351867
C87   C     C_R   0.728696 0.340126 0.416328 -0.212703
C88   C     C_R   0.680583 0.754935 0.435426 -0.170283
C89   C     C_R   0.455693 0.418870 0.257501 -0.145355
C90   C     C_R   0.271330 0.339957 0.583567 -0.209200
C91   C     C_R   0.819423 0.254953 0.564558 -0.170324
C92   C     C_R   0.228699 0.840129 0.416332 -0.212612
C93   C     C_R   0.180688 0.254825 0.435480 -0.170626
C94   C     C_R   0.771320 0.840082 0.583664 -0.212650
C95   C     C_R   0.316881 0.800838 0.510570 0.063998
C96   C     C_R   0.778819 0.347340 0.491992 0.114242
C97   C     C_R   0.683134 0.800814 0.489430 0.064082
C98   C     C_R   0.221203 0.347247 0.507934 0.113737
C99   C     C_R   0.816880 0.300839 0.510564 0.064062
C100  C     C_R   0.459390 0.591850 0.267383 -0.148807
C101  C     C_R   0.278821 0.847340 0.491999 0.114250
C102  C     C_R   0.183127 0.300766 0.489307 0.063608
C103  C     C_R   0.721196 0.847307 0.508000 0.114258
C104  C     C_R   0.388816 0.665674 0.164804 0.087222
C105  C     C_R   0.630248 0.386585 0.884801 0.077760
C106  C     C_R   0.611196 0.665628 0.835235 0.087179
C107  C     C_R   0.369752 0.386433 0.115349 0.083361
C108  C     C_R   0.888815 0.165673 0.164805 0.087212
C109  C     C_R   0.130253 0.886595 0.884807 0.077614
C110  C     C_R   0.111148 0.165585 0.835255 0.087054
C111  C     C_R   0.544306 0.418890 0.742509 -0.145334
C112  C     C_R   0.869758 0.886555 0.115229 0.077635
C113  C     C_R   0.391370 0.726762 0.057541 0.051340
C114  C     C_R   0.648782 0.379968 0.033381 0.055920
C115  C     C_R   0.608655 0.726686 0.942528 0.051308
C116  C     C_R   0.351149 0.379452 0.966982 0.049810
C117  C     C_R   0.891377 0.226773 0.057560 0.051314
C118  C     C_R   0.148795 0.879989 0.033393 0.056129
C119  C     C_R   0.108557 0.226597 0.942542 0.051377
C120  C     C_R   0.851204 0.879940 0.966639 0.056123
C121  C     C_R   0.408274 0.677102 0.111358 -0.228804
C122  C     C_R   0.040603 0.091807 0.732634 -0.148929
C123  C     C_R   0.615328 0.397389 0.945071 -0.225313
C124  C     C_R   0.591738 0.677046 0.888683 -0.229070
C125  C     C_R   0.384625 0.397079 0.054977 -0.237055
C126  C     C_R   0.908280 0.177110 0.111371 -0.229082
C127  C     C_R   0.115339 0.897407 0.945081 -0.224739
C128  C     C_R   0.091672 0.176963 0.888690 -0.229167
C129  C     C_R   0.884660 0.897368 0.054939 -0.224736
C130  C     C_R   0.353543 0.705326 0.166771 -0.222618
C131  C     C_R   0.678808 0.360006 0.913736 -0.193069
C132  C     C_R   0.646483 0.705269 0.833297 -0.222603
C133  C     C_R   0.955697 0.918885 0.257498 -0.144980
C134  C     C_R   0.321190 0.359829 0.086533 -0.194088
C135  C     C_R   0.853536 0.205320 0.166766 -0.222628
C136  C     C_R   0.178811 0.860012 0.913737 -0.192722
C137  C     C_R   0.146403 0.205266 0.833309 -0.222426
C138  C     C_R   0.821212 0.859955 0.086327 -0.192824
C139  C     C_R   0.333851 0.754741 0.111560 0.095081
C140  C     C_R   0.715228 0.349665 0.002031 0.087536
C141  C     C_R   0.666179 0.754670 0.888523 0.095055
C142  C     C_R   0.284737 0.349407 0.998240 0.083716
C143  C     C_R   0.833848 0.254739 0.111564 0.095065
C144  C     C_R   0.959391 0.091850 0.267384 -0.148918
C145  C     C_R   0.215234 0.849673 0.002032 0.087439
C146  C     C_R   0.166062 0.254659 0.888537 0.095611
C147  C     C_R   0.784787 0.849601 0.998039 0.087435
C148  C     C_R   0.353353 0.764770 0.055662 0.085460
C149  C     C_R   0.698392 0.353809 0.060852 0.076653
C150  C     C_R   0.646679 0.764687 0.944425 0.085441
C151  C     C_R   0.301546 0.353516 0.939391 0.088242
C152  C     C_R   0.853355 0.264777 0.055676 0.085446
C153  C     C_R   0.198403 0.853825 0.060859 0.076569
C154  C     C_R   0.146570 0.264625 0.944463 0.085253
C155  C     C_R   0.044308 0.918894 0.742513 -0.144964
C156  C     C_R   0.801608 0.853763 0.939198 0.076579
C157  C     C_R   0.292534 0.791747 0.104259 -0.159684
C158  C     C_R   0.766363 0.329134 0.030200 -0.177447
C159  C     C_R   0.707494 0.791674 0.895827 -0.159719
C160  C     C_R   0.233591 0.328943 0.970056 -0.177500
C161  C     C_R   0.792528 0.291741 0.104261 -0.159764
C162  C     C_R   0.266367 0.829137 0.030195 -0.177398
C163  C     C_R   0.207370 0.291674 0.895865 -0.159426
C164  C     C_R   0.733662 0.829053 0.969894 -0.177404
C165  C     C_R   0.629527 0.605583 0.570956 -0.128682
C166  C     C_R   0.339816 0.700371 0.563049 0.031982
C167  C     C_R   0.355764 0.418197 0.430782 -0.129745
C168  C     C_R   0.370470 0.605589 0.429035 -0.128633
C169  C     C_R   0.644245 0.418212 0.569211 -0.129641
C170  C     C_R   0.129532 0.105579 0.570951 -0.128797
C171  C     C_R   0.855759 0.918212 0.430791 -0.129552
C172  C     C_R   0.870472 0.105590 0.429034 -0.128764
C173  C     C_R   0.144245 0.918213 0.569212 -0.129488
C174  C     C_R   0.791602 0.344791 0.985415 0.631642
C175  C     C_R   0.273759 0.792429 0.162800 0.658728
C176  C     C_R   0.208377 0.344552 0.014898 0.632464
H1    H     H_    0.513389 0.596089 0.754089 0.089894
H2    H     H_    0.341725 0.695874 0.211465 0.187833
H3    H     H_    0.713086 0.691248 0.701942 0.172653
H4    H     H_    0.340690 0.942165 0.021251 0.150686
H5    H     H_    0.279948 0.952531 0.020775 0.151160
H6    H     H_    0.285980 0.982211 0.934555 0.168806
H7    H     H_    0.738796 0.199356 0.184169 0.138352
H8    H     H_    0.739547 0.248102 0.265575 0.161757
H9    H     H_    0.786901 0.191257 0.298085 0.172717
H10   H     H_    0.659307 0.942050 0.978832 0.150711
H11   H     H_    0.720042 0.952447 0.979301 0.151156
H12   H     H_    0.713999 0.982106 0.065516 0.168847
H13   H     H_    0.312200 0.344865 0.133821 0.146316
H14   H     H_    0.260999 0.199551 0.815452 0.137764
H15   H     H_    0.260091 0.248422 0.734027 0.161357
H16   H     H_    0.212777 0.191534 0.701592 0.173331
H17   H     H_    0.307763 0.613527 0.217416 0.078914
H18   H     H_    0.316195 0.564419 0.156486 0.100537
H19   H     H_    0.692725 0.401353 0.773133 0.140113
H20   H     H_    0.688423 0.454911 0.836055 0.150835
H21   H     H_    0.692237 0.613475 0.782547 0.078915
H22   H     H_    0.683811 0.564411 0.843537 0.100256
H23   H     H_    0.307278 0.401451 0.226972 0.140298
H24   H     H_    0.658309 0.695820 0.788616 0.187838
H25   H     H_    0.311581 0.454891 0.163898 0.150721
H26   H     H_    0.807760 0.113509 0.217418 0.078889
H27   H     H_    0.816197 0.064417 0.156476 0.100210
H28   H     H_    0.192727 0.901364 0.773136 0.140187
H29   H     H_    0.188422 0.954923 0.836055 0.150767
H30   H     H_    0.192216 0.113527 0.782535 0.078787
H31   H     H_    0.183824 0.064435 0.843533 0.100121
H32   H     H_    0.807285 0.901350 0.226889 0.140220
H33   H     H_    0.811572 0.954896 0.163932 0.150724
H34   H     H_    0.372653 0.641740 0.663751 0.093070
H35   H     H_    0.187827 0.844979 0.866509 0.146267
H36   H     H_    0.317992 0.616557 0.569840 0.113758
H37   H     H_    0.628585 0.358976 0.284884 0.095378
H38   H     H_    0.631601 0.296008 0.337580 0.108893
H39   H     H_    0.627325 0.641759 0.336204 0.092831
H40   H     H_    0.681981 0.616540 0.430107 0.113381
H41   H     H_    0.371465 0.358679 0.715021 0.095518
H42   H     H_    0.368412 0.295784 0.662167 0.107794
H43   H     H_    0.872662 0.141747 0.663757 0.092863
H44   H     H_    0.818001 0.116559 0.569848 0.113302
H45   H     H_    0.128590 0.858984 0.284885 0.095761
H46   H     H_    0.841709 0.195860 0.211445 0.187848
H47   H     H_    0.131603 0.796015 0.337575 0.109413
H48   H     H_    0.127560 0.141496 0.336511 0.092918
H49   H     H_    0.182221 0.116444 0.430538 0.113243
H50   H     H_    0.871425 0.858930 0.715114 0.095777
H51   H     H_    0.868426 0.795975 0.662419 0.109370
H52   H     H_    0.812210 0.844926 0.133573 0.146261
H53   H     H_    0.158263 0.195842 0.788660 0.187852
H54   H     H_    0.577822 0.418441 0.923575 0.113026
H55   H     H_    0.436512 0.647467 0.110906 0.113142
H56   H     H_    0.422113 0.417950 0.075827 0.116024
H57   H     H_    0.482149 0.420606 0.233994 0.094834
H58   H     H_    0.563492 0.647420 0.889117 0.113179
H59   H     H_    0.077835 0.918463 0.923588 0.113237
H60   H     H_    0.936522 0.147481 0.110923 0.113157
H61   H     H_    0.922153 0.918436 0.076412 0.113241
H62   H     H_    0.063443 0.147306 0.889118 0.113171
H63   H     H_    0.658300 0.617208 0.637284 0.101208
H64   H     H_    0.321228 0.420698 0.365317 0.102741
H65   H     H_    0.341695 0.617216 0.362705 0.101222
H66   H     H_    0.678780 0.420712 0.634679 0.102751
H67   H     H_    0.158320 0.117193 0.637278 0.101157
H68   H     H_    0.486613 0.596105 0.245921 0.089826
H69   H     H_    0.821224 0.920712 0.365322 0.102725
H70   H     H_    0.841698 0.117218 0.362704 0.101218
H71   H     H_    0.178780 0.920712 0.634680 0.102713
H72   H     H_    0.563106 0.616350 0.357132 0.093151
H73   H     H_    0.417480 0.422863 0.643903 0.101273
H74   H     H_    0.436896 0.616354 0.642858 0.093165
H75   H     H_    0.582518 0.422914 0.356093 0.101139
H76   H     H_    0.063123 0.116330 0.357122 0.093156
H77   H     H_    0.917483 0.922904 0.643909 0.101185
H78   H     H_    0.936901 0.116361 0.642856 0.093190
H79   H     H_    0.517833 0.420641 0.765981 0.094719
H80   H     H_    0.082519 0.922917 0.356094 0.101186
H81   H     H_    0.334852 0.828174 0.414776 0.149372
H82   H     H_    0.823855 0.387092 0.620277 0.124999
H83   H     H_    0.665176 0.828143 0.585240 0.149389
H84   H     H_    0.176161 0.387108 0.379717 0.125085
H85   H     H_    0.834846 0.328174 0.414763 0.149427
H86   H     H_    0.323856 0.887089 0.620285 0.124894
H87   H     H_    0.164958 0.328227 0.584811 0.150019
H88   H     H_    0.676154 0.887080 0.379719 0.124902
H89   H     H_    0.376841 0.733986 0.418500 0.164705
H90   H     H_    0.013376 0.096038 0.754092 0.089844
H91   H     H_    0.746909 0.428036 0.614353 0.123151
H92   H     H_    0.623174 0.733970 0.581503 0.164718
H93   H     H_    0.253112 0.428086 0.385692 0.123221
H94   H     H_    0.876838 0.233988 0.418490 0.164757
H95   H     H_    0.246910 0.928035 0.614358 0.123056
H96   H     H_    0.122948 0.234064 0.581107 0.164782
H97   H     H_    0.753094 0.928038 0.385650 0.123084
H98   H     H_    0.801024 0.259926 0.602123 0.132671
H99   H     H_    0.223754 0.812437 0.363504 0.115673
H100  H     H_    0.199172 0.259748 0.398038 0.132675
H101  H     H_    0.982169 0.920630 0.234024 0.094997
H102  H     H_    0.776269 0.812378 0.636488 0.115658
H103  H     H_    0.301019 0.759923 0.602122 0.132780
H104  H     H_    0.723751 0.312432 0.363502 0.115608
H105  H     H_    0.698981 0.759907 0.397859 0.132697
H106  H     H_    0.276275 0.312199 0.636338 0.115083
H107  H     H_    0.850891 0.323634 0.959261 0.174785
H108  H     H_    0.219349 0.833159 0.191505 0.158537
H109  H     H_    0.149070 0.323378 0.041003 0.174789
H110  H     H_    0.780653 0.833111 0.808547 0.158545
H111  H     H_    0.350883 0.823619 0.959234 0.174746
H112  H     H_    0.986615 0.096109 0.245925 0.089856
H113  H     H_    0.719333 0.333138 0.191494 0.158530
H114  H     H_    0.649153 0.823514 0.040870 0.174753
H115  H     H_    0.280575 0.333344 0.808667 0.162660
H116  H     H_    0.452947 0.741120 0.043145 0.101959
H117  H     H_    0.403158 0.700866 0.962202 0.101211
H118  H     H_    0.593546 0.403817 0.062076 0.092001
H119  H     H_    0.656450 0.419806 0.139278 0.099922
H120  H     H_    0.547081 0.741054 0.956932 0.102036
H121  H     H_    0.596861 0.700766 0.037854 0.100975
H122  H     H_    0.403522 0.364152 0.931309 0.097518
H123  H     H_    0.017836 0.920646 0.765986 0.094987
H124  H     H_    0.375505 0.431819 0.904923 0.100360
H125  H     H_    0.952960 0.241142 0.043182 0.102105
H126  H     H_    0.903176 0.200889 0.962228 0.100939
H127  H     H_    0.093568 0.903854 0.062098 0.092902
H128  H     H_    0.156475 0.919836 0.139292 0.099622
H129  H     H_    0.046975 0.240898 0.956945 0.102092
H130  H     H_    0.096773 0.200622 0.037857 0.100914
H131  H     H_    0.906414 0.903817 0.937903 0.092904
H132  H     H_    0.843499 0.919790 0.860718 0.099643
H133  H     H_    0.840673 0.442177 0.021305 0.150781
H134  H     H_    0.687828 0.344976 0.866512 0.146199
H135  H     H_    0.779911 0.452533 0.020766 0.151136
H136  H     H_    0.785975 0.482219 0.934584 0.168851
H137  H     H_    0.238805 0.699369 0.184168 0.138514
H138  H     H_    0.239553 0.748114 0.265572 0.161805
H139  H     H_    0.286908 0.691269 0.298085 0.172653
H140  H     H_    0.159277 0.441911 0.979258 0.150698
H141  H     H_    0.219982 0.452347 0.979645 0.151873
H142  H     H_    0.213995 0.481921 0.065962 0.168735
H143  H     H_    0.761212 0.699330 0.815849 0.138478
H144  H     H_    0.760430 0.748094 0.734427 0.161822
N1    N     N_R   0.532910 0.558440 0.665240 -0.045718
N2    N     N_R   0.402970 0.441090 0.454460 -0.038794
N3    N     N_R   0.402970 0.558910 0.454460 -0.036186
N4    N     N_R   0.597030 0.441090 0.545540 -0.038787
N5    N     N_R   0.097030 0.058910 0.545540 -0.036178
N6    N     N_R   0.902970 0.941090 0.454460 -0.038773
N7    N     N_R   0.902970 0.058910 0.454460 -0.036184
N8    N     N_R   0.097030 0.941090 0.545540 -0.038780
N9    N     N_R   0.566200 0.559270 0.454460 -0.041540
N10   N     N_R   0.433800 0.440730 0.545540 -0.045364
N11   N     N_R   0.433800 0.559270 0.545540 -0.041534
N12   N     N_R   0.467090 0.441560 0.334760 -0.046957
N13   N     N_R   0.566200 0.440730 0.454460 -0.045327
N14   N     N_R   0.066200 0.059270 0.454460 -0.041564
N15   N     N_R   0.933800 0.940730 0.545540 -0.045325
N16   N     N_R   0.933800 0.059270 0.545540 -0.041560
N17   N     N_R   0.066200 0.940730 0.454460 -0.045327
N18   N     N_R   0.421050 0.559750 0.334770 -0.040854
N19   N     N_R   0.578950 0.440250 0.665230 -0.041435
N20   N     N_R   0.578950 0.559750 0.665230 -0.040860
N21   N     N_R   0.421050 0.440250 0.334770 -0.041376
N22   N     N_R   0.921050 0.059750 0.334770 -0.040858
N23   N     N_R   0.467090 0.558440 0.334760 -0.045711
N24   N     N_R   0.078950 0.940250 0.665230 -0.041420
N25   N     N_R   0.078950 0.059750 0.665230 -0.040864
N26   N     N_R   0.921050 0.940250 0.334770 -0.041417
N27   N     N_3   0.411791 0.737533 0.002836 -0.223141
N28   N     N_3   0.632211 0.387499 0.094208 -0.222853
N29   N     N_3   0.588236 0.737446 0.997239 -0.223153
N30   N     N_3   0.367929 0.386989 0.906721 -0.225724
N31   N     N_3   0.911804 0.237553 0.002865 -0.223126
N32   N     N_3   0.132231 0.887530 0.094226 -0.222467
N33   N     N_3   0.088132 0.237313 0.997254 -0.223105
N34   N     N_R   0.532910 0.441560 0.665240 -0.046999
N35   N     N_3   0.867756 0.887487 0.905791 -0.222471
N36   N     N_3   0.329223 0.576356 0.220888 -0.220212
N37   N     N_3   0.671346 0.437763 0.772920 -0.217301
N38   N     N_3   0.670776 0.576320 0.779119 -0.220199
N39   N     N_3   0.328664 0.437816 0.227081 -0.217316
N40   N     N_3   0.829224 0.076344 0.220881 -0.220231
N41   N     N_3   0.171346 0.937773 0.772921 -0.217344
N42   N     N_3   0.170776 0.076352 0.779113 -0.220251
N43   N     N_3   0.828654 0.937760 0.227080 -0.217344
N44   N     N_3   0.335121 0.653033 0.611116 -0.219782
N45   N     N_R   0.032910 0.058440 0.665240 -0.045737
N46   N     N_3   0.632811 0.342037 0.342152 -0.227263
N47   N     N_3   0.664860 0.653030 0.388843 -0.220058
N48   N     N_3   0.367217 0.341818 0.657701 -0.227385
N49   N     N_3   0.835129 0.153038 0.611121 -0.220091
N50   N     N_3   0.132814 0.842044 0.342150 -0.227071
N51   N     N_3   0.165069 0.152866 0.389138 -0.220094
N52   N     N_3   0.867205 0.842004 0.657848 -0.227069
N53   N     N_R   0.967090 0.941560 0.334760 -0.047036
N54   N     N_R   0.967090 0.058440 0.334760 -0.045730
N55   N     N_R   0.032910 0.941560 0.665240 -0.047040
N56   N     N_R   0.597030 0.558910 0.545540 -0.036181
Ni1   Ni    Ni4+2 0.483090 0.500000 0.604440 0.200788
Ni2   Ni    Ni4+2 0.516910 0.500000 0.395560 0.200724
Ni3   Ni    Ni4+2 0.983090 1.000000 0.604440 0.200726
Ni4   Ni    Ni4+2 0.016910 0.000000 0.395560 0.200725
Ni5   Ni    Ni4+2 0.586780 0.500000 0.604440 0.224186
Ni6   Ni    Ni4+2 0.413220 0.500000 0.395560 0.224229
Ni7   Ni    Ni4+2 0.086780 1.000000 0.604440 0.224202
Ni8   Ni    Ni4+2 0.913220 0.000000 0.395560 0.224209
O1    O     O_3   0.775277 0.392466 0.929201 -0.644667
O2    O     O_3   0.299910 0.762841 0.242064 -0.639576
O3    O     O_3   0.224729 0.392176 0.071191 -0.644810
O4    O     O_3   0.700097 0.762807 0.757996 -0.639524
O5    O     O_3   0.275276 0.892460 0.929183 -0.644580
O6    O     O_3   0.799902 0.262828 0.242061 -0.639443
O7    O     O_3   0.724745 0.892360 0.070906 -0.644634
O8    O     O_3   0.199859 0.263016 0.757864 -0.638113

loop_
_geom_bond_atom_site_label_1
_geom_bond_atom_site_label_2
_ccdc_geom_bond_type
C36   C89   A    
C176  O3    S    
C6    O7    S    
C31   C42   A    
C90   H106  S    
H41   N48   S    
C169  H66   S    
H30   N42   S    
C125  H56   S    
C10   C154  A    
C105  C131  A    
C106  C132  A    
C83   H4    S    
C57   C76   A    
C42   C109  S    
C52   C61   A    
C12   H111  S    
C54   C63   A    
C96   C99   S    
N25   N45   A    
C68   C77   A    
C133  H101  S    
C105  C123  A    
C118  C153  A    
C55   H84   S    
C80   H138  S    
C2    N46   S    
C131  C140  A    
C158  C174  A    
H126  N31   S    
C1    C34   A    
H28   N41   S    
C112  C129  A    
C4    C12   A    
C60   C103  A    
C117  C126  A    
C88   C97   A    
C21   C48   A    
C124  H58   S    
C119  C128  A    
C85   H12   S    
C27   N19   A    
N6    N15   A    
C7    O8    S    
C13   N47   S    
C10   H109  S    
C84   H9    S    
N7    N16   A    
C25   H80   S    
C111  H79   S    
H117  N27   S    
N17   Ni4   S    
C34   C106  S    
C160  C163  A    
C112  C138  A    
C137  C146  A    
C119  N33   S    
C93   H100  S    
N3    Ni6   S    
C8    H107  S    
C17   H72   S    
C82   H144  S    
C98   C102  S    
H40   N47   S    
N15   Ni3   S    
C115  N29   S    
C26   N36   S    
C5    C161  A    
C142  C151  A    
C17   C43   A    
C18   C44   A    
C33   N43   S    
C78   H133  S    
N22   N54   A    
C58   C101  A    
C47   C71   S    
C97   C103  S    
C20   N13   A    
C22   C49   A    
C67   H96   S    
C22   N15   A    
C2    C71   A    
H20   N37   S    
N20   Ni5   S    
C53   H82   S    
C129  H61   S    
H122  N30   S    
C59   C102  A    
C127  H59   S    
N53   Ni4   S    
H31   N42   S    
C24   C90   A    
C21   N14   A    
C37   C104  S    
C19   H74   S    
C13   C72   A    
C144  N54   A    
C23   N16   A    
C69   H97   S    
C15   H114  S    
C86   H16   S    
C147  C164  A    
C174  O1    S    
C56   H85   S    
C18   N10   A    
C14   C149  A    
C16   C151  A    
C87   H104  S    
C24   C73   A    
C20   C47   A    
C3    C11   A    
C139  C157  A    
C106  C124  A    
N26   Ni8   S    
C27   C38   A    
C108  C126  A    
C157  C162  A    
C27   N37   S    
C110  C128  A    
N34   Ni1   S    
C48   C76   S    
C69   C77   A    
C32   N25   A    
H120  N29   S    
C40   C112  S    
C39   C122  A    
C171  H69   S    
C113  C148  A    
C59   H87   S    
C8    C152  A    
C107  C134  A    
H45   N50   S    
C50   C74   S    
C8    C174  A    
H49   N51   S    
C52   H81   S    
C82   O4    S    
N18   N23   A    
H118  N28   S    
C132  H24   S    
C89   N12   A    
C55   C98   A    
C89   H57   S    
C31   N24   A    
C59   C67   A    
C141  C159  A    
C64   C73   A    
H33   N43   S    
C100  N23   A    
N13   Ni2   S    
C126  H60   S    
C100  H68   S    
C135  C143  A    
C9    C153  A    
C33   N26   A    
C87   C96   A    
C3    C159  A    
C120  N35   S    
N5    N14   A    
C44   C73   S    
C46   C75   A    
C47   C169  A    
C109  C127  A    
C141  C150  A    
H131  N35   S    
C139  C148  A    
C86   H14   S    
C33   C40   A    
H39   N47   S    
H47   N50   S    
C120  C129  A    
N26   N53   A    
C28   N38   S    
C170  H67   S    
C84   H8    S    
C107  C125  A    
C108  C135  A    
H18   N36   S    
C68   C94   A    
C65   C74   A    
C168  N3    A    
H34   N44   S    
C94   H102  S    
C81   H140  S    
C84   H7    S    
C84   O6    S    
C2    C87   A    
N24   N55   A    
C65   H94   S    
N5    Ni7   S    
C114  C123  A    
C78   O1    S    
C78   H136  S    
C116  C125  A    
C16   H115  S    
N7    Ni8   S    
C118  C127  A    
C122  H90   S    
N25   Ni7   S    
N6    Ni8   S    
C132  C141  A    
H130  N33   S    
H23   N39   S    
H128  N32   S    
N11   Ni1   S    
C91   H98   S    
N23   Ni2   S    
C19   C45   A    
C30   N22   A    
H132  N35   S    
C38   C105  S    
C32   N42   S    
C25   N17   A    
C123  H54   S    
C60   C69   A    
C49   C77   S    
C62   C71   A    
C9    C175  A    
C5    O6    S    
C45   C168  A    
C117  N31   S    
C80   O2    S    
C46   N50   S    
H129  N33   S    
N10   Ni1   S    
C113  C121  A    
H19   N37   S    
H26   N40   S    
C159  C164  A    
C50   C172  A    
C56   C99   A    
C91   C99   A    
C140  C149  A    
C116  C151  A    
C95   C101  S    
N16   Ni3   S    
C61   C70   A    
C85   H11   S    
H22   N38   S    
C35   C74   A    
C121  H55   S    
C144  H112  S    
C60   H88   S    
C21   H76   S    
H29   N41   S    
C29   N39   S    
C68   N52   S    
C134  H13   S    
C166  N44   S    
C143  C161  A    
C81   H142  S    
C46   C92   A    
C175  O2    S    
C128  H62   S    
N2    N10   A    
C155  H123  S    
C120  C156  A    
C52   C95   A    
C32   C39   A    
C22   H77   S    
C66   H95   S    
C130  H2    S    
C158  C161  A    
N19   N34   A    
C82   H3    S    
C54   C97   A    
H51   N52   S    
C63   H92   S    
C28   C34   A    
C104  C130  A    
H21   N38   S    
C58   H86   S    
C53   C96   A    
C142  C160  A    
C54   H83   S    
C23   H78   S    
C130  C139  A    
C35   N49   S    
C43   C165  A    
C83   O5    S    
N8    Ni7   S    
N22   Ni8   S    
H43   N49   S    
C41   C144  A    
C137  H53   S    
C30   N40   S    
N56   Ni5   S    
C23   C50   A    
N2    Ni6   S    
C9    H108  S    
C4    O5    S    
C44   C167  A    
C80   H137  S    
H48   N51   S    
C79   C95   A    
C134  C142  A    
H44   N49   S    
C168  H65   S    
C24   N48   S    
C172  H70   S    
C14   H113  S    
N54   Ni4   S    
C92   H99   S    
C147  C156  A    
C5    C14   A    
C92   C101  A    
C172  N7    A    
C48   C170  A    
H116  N27   S    
C143  C152  A    
C85   O7    S    
C94   C103  A    
C119  C154  A    
C4    C162  A    
C118  N32   S    
C40   C133  A    
C86   O8    S    
N4    N13   A    
C115  C124  A    
C45   C70   S    
H50   N52   S    
C110  C137  A    
C133  N53   A    
N1    N20   A    
C93   C102  A    
C1    N1    A    
C26   C37   A    
N55   Ni3   S    
C82   H143  S    
N12   Ni2   S    
C42   C155  A    
C17   N9    A    
C7    C163  A    
C66   C75   A    
H27   N40   S    
C167  N2    A    
H124  N30   S    
C64   H93   S    
C63   C72   A    
C79   H103  S    
C114  C149  A    
N12   N21   A    
C15   C150  A    
H17   N36   S    
C43   C72   S    
C41   C108  S    
C155  N55   A    
H25   N39   S    
C88   H105  S    
C29   C36   A    
C83   H5    S    
C86   H15   S    
C165  N56   A    
H36   N44   S    
C80   H139  S    
C51   C75   S    
N24   Ni7   S    
C70   C166  A    
C145  C162  A    
C56   C65   A    
C13   C88   A    
C51   C173  A    
N18   Ni6   S    
C6    C15   A    
C1    H1    S    
C58   C66   A    
C39   C110  S    
H121  N29   S    
C146  C154  A    
H127  N32   S    
N1    Ni1   S    
C117  C152  A    
N8    N17   A    
H42   N48   S    
C140  C158  A    
C173  H71   S    
N9    N56   A    
C57   C93   A    
C36   C107  S    
C160  C176  A    
H32   N43   S    
N21   Ni6   S    
N19   Ni5   S    
H38   N46   S    
C113  N27   S    
C10   C176  A    
C131  H134  S    
C165  H63   S    
C122  N45   A    
C57   N51   S    
C49   C171  A    
N45   Ni3   S    
C20   H75   S    
C104  C121  A    
C111  N34   A    
C83   H6    S    
C173  N8    A    
C18   H73   S    
C25   C51   A    
C62   H91   S    
C28   N20   A    
C136  H35   S    
C53   C62   A    
C138  C147  A    
C55   C64   A    
C30   C41   A    
C138  H52   S    
C61   H89   S    
C11   C156  A    
C157  C175  A    
C167  H64   S    
C78   H135  S    
C116  N30   S    
C81   O3    S    
N3    N11   A    
H125  N31   S    
H119  N28   S    
N14   Ni4   S    
H37   N46   S    
C85   H10   S    
C135  H46   S    
C7    C16   A    
C170  N5    A    
C136  C145  A    
C11   H110  S    
C6    C164  A    
C169  N4    A    
C146  C163  A    
C29   N21   A    
C12   C148  A    
C145  C153  A    
C26   N18   A    
C31   N41   S    
C81   H141  S    
C115  C150  A    
C19   N11   A    
C171  N6    A    
C37   C100  A    
C79   C166  A    
C3    O4    S    
N9    Ni2   S    
C67   C76   A    
C38   C111  A    
N4    Ni5   S    
C90   C98   A    
C114  N28   S    
C109  C136  A    
C35   C91   A    
