data_mof_unit_6996.cif
_audit_creation_date              2012-12-10T17:22:43-0500
_audit_creation_method            fapswitch 2.2
_symmetry_space_group_name_H-M    P1
_symmetry_Int_Tables_number       1
_space_group_crystal_system       triclinic
_cell_length_a                    10.615327
_cell_length_b                    10.763566
_cell_length_c                    9.61888
_cell_angle_alpha                 90.035254
_cell_angle_beta                  89.854944
_cell_angle_gamma                 92.585884
_cell_volume                      1097.91863083

loop_
_atom_site_label
_atom_site_type_symbol
_atom_type_description
_atom_site_fract_x
_atom_site_fract_y
_atom_site_fract_z
_atom_type_partial_charge
C1    C     C_R   0.496265 0.262666 0.499982 0.786417
C2    C     C_3   0.959882 0.503038 0.367915 -0.135903
C3    C     C_3   0.037435 0.399648 0.432630 -0.175029
C4    C     C_3   0.122520 0.500622 0.501120 0.025941
C5    C     C_R   0.286734 0.120160 0.629943 -0.191976
C6    C     C_R   0.188002 0.050659 0.692364 -0.145947
C7    C     C_R   0.188038 0.921358 0.692266 -0.140811
C8    C     C_R   0.286893 0.860761 0.629875 -0.176653
C9    C     C_R   0.388640 0.929312 0.567103 0.099728
C10   C     C_R   0.388517 0.060695 0.567077 0.097034
C11   C     C_R   0.488317 0.128484 0.499751 -0.098583
C12   C     C_R   0.259501 0.499885 0.500274 0.757057
C13   C     C_R   0.582664 0.067803 0.429119 -0.197627
C14   C     C_R   0.582839 0.939613 0.429205 -0.210946
C15   C     C_R   0.488640 0.870483 0.499906 -0.085548
C16   C     C_R   0.668576 0.664355 0.143451 -0.146152
C17   C     C_R   0.751476 0.744255 0.071227 -0.216484
C18   C     C_R   0.751410 0.744423 0.927934 -0.208581
C19   C     C_R   0.668401 0.664715 0.855935 -0.131955
C20   C     C_R   0.582758 0.580894 0.925102 0.209160
C21   C     C_R   0.582801 0.580775 0.074557 0.210057
C22   C     C_R   0.421154 0.423167 0.073974 -0.057132
C23   C     C_R   0.496800 0.737052 0.500013 0.762414
C24   C     C_R   0.421189 0.423185 0.926216 -0.061980
C25   C     C_R   0.740532 0.500694 0.499785 0.760445
C26   C     C_3   0.040271 0.498882 0.632505 -0.134944
C27   C     C_3   0.952947 0.397857 0.563855 -0.163586
C28   C     C_3   0.877591 0.501165 0.499259 0.033465
C29   C     C_3   0.962634 0.602234 0.567834 -0.181108
C30   C     C_3   0.047242 0.604047 0.436625 -0.171230
Cu1   Cu    Cu3+1 0.499990 0.499990 0.640660 0.924746
Cu2   Cu    Cu3+1 0.500010 0.500010 0.359340 0.930573
H1    H     H_    0.911309 0.313506 0.615813 0.126993
H2    H     H_    0.110529 0.867704 0.739479 0.127146
H3    H     H_    0.658319 0.894032 0.376210 0.132488
H4    H     H_    0.356447 0.360089 0.129084 0.136476
H5    H     H_    0.675993 0.672479 0.253030 0.192650
H6    H     H_    0.816066 0.806805 0.127211 0.143572
H7    H     H_    0.675648 0.673213 0.746320 0.193499
H8    H     H_    0.356521 0.360109 0.871296 0.133803
H9    H     H_    0.075809 0.497210 0.740916 0.136667
H10   H     H_    0.928892 0.685051 0.623121 0.115007
H11   H     H_    0.089121 0.688420 0.384922 0.132789
H12   H     H_    0.071289 0.316762 0.377597 0.126590
H13   H     H_    0.658022 0.120202 0.376086 0.146619
H14   H     H_    0.281049 0.220224 0.629323 0.134036
N1    N     N_R   0.501210 0.501210 0.147910 -0.198500
N2    N     N_R   0.501250 0.501290 0.852040 -0.198431
O1    O     O_R   0.499990 0.319640 0.618810 -0.575636
O2    O     O_R   0.500000 0.319660 0.381240 -0.573477
O3    O     O_R   0.316850 0.499960 0.618770 -0.596477
O4    O     O_R   0.316860 0.499980 0.381190 -0.575146
O5    O     O_R   0.500000 0.680340 0.618760 -0.599128
O6    O     O_R   0.500010 0.680360 0.381190 -0.588795
O7    O     O_R   0.683140 0.500020 0.618810 -0.593579
O8    O     O_R   0.683150 0.500040 0.381230 -0.603345
H15   H     H_    0.281326 0.760261 0.629289 0.148596
H16   H     H_    0.815995 0.807078 0.871790 0.139790
H17   H     H_    0.924323 0.504966 0.259508 0.143288
H18   H     H_    0.110456 0.097338 0.739665 0.127638

loop_
_geom_bond_atom_site_label_1
_geom_bond_atom_site_label_2
_ccdc_geom_bond_type
C4    C26   S    
C3    H12   S    
C16   C21   A    
Cu1   O3    S    
C8    H15   S    
C4    C12   S    
C22   H4    S    
C9    C10   A    
C19   C20   A    
C1    C11   S    
C25   O8    A    
C16   H5    S    
C2    C30   S    
Cu1   O7    S    
C20   C21   A    
C3    C27   S    
C17   C18   A    
C9    C15   A    
C4    C30   S    
C5    C10   A    
C20   N2    A    
C13   C14   A    
C27   H1    S    
C25   C28   S    
C13   H13   S    
C11   C13   A    
Cu2   O2    S    
C26   C27   S    
C29   C30   S    
C5    H14   S    
C19   H7    S    
C25   O7    A    
Cu1   O1    S    
C15   C23   S    
C28   C29   S    
C24   H8    S    
Cu2   O8    S    
C23   O5    A    
C6    C7    A    
C2    C3    S    
Cu1   N2    S    
C5    C6    A    
C29   H10   S    
C7    H2    S    
C22   C24   A    
C30   H11   S    
C16   C17   A    
C10   C11   A    
C3    C4    S    
C24   N2    A    
C6    H18   S    
C7    C8    A    
C12   O3    A    
C14   H3    S    
C17   H6    S    
C23   O6    A    
Cu1   Cu2   S    
C18   C19   A    
C1    O2    A    
Cu2   O6    S    
C27   C28   S    
C26   C29   S    
Cu2   O4    S    
C2    C28   S    
C12   O4    A    
C2    H17   S    
C1    O1    A    
C18   H16   S    
C22   N1    A    
Cu1   O5    S    
C14   C15   A    
C26   H9    S    
Cu2   N1    S    
C8    C9    A    
C21   N1    A    
