data_mof_unit_19231.cif
_audit_creation_date              2013-03-05T15:44:49-0500
_audit_creation_method            fapswitch 2.2
_symmetry_space_group_name_H-M    P1
_symmetry_Int_Tables_number       1
_space_group_crystal_system       triclinic
_cell_length_a                    15.724331
_cell_length_b                    10.692321
_cell_length_c                    10.065968
_cell_angle_alpha                 89.571617
_cell_angle_beta                  89.908392
_cell_angle_gamma                 90.564615
_cell_volume                      1692.25527854

loop_
_atom_site_label
_atom_site_type_symbol
_atom_site_description
_atom_site_fract_x
_atom_site_fract_y
_atom_site_fract_z
_atom_type_partial_charge
O1    O     O_R   0.499990 0.319060 0.613040 -0.552401
O2    O     O_R   0.500010 0.319100 0.386900 -0.623129
C1    C     C_R   0.493631 0.262597 0.500483 0.814899
O3    O     O_R   0.376760 0.499970 0.613050 -0.597650
O4    O     O_R   0.376790 0.500010 0.386910 -0.648778
C2    C     C_R   0.338061 0.499888 0.500031 0.885854
Zn1   Zn    Zn3+2 0.499980 0.499970 0.650990 1.019974
Zn2   Zn    Zn3+2 0.500020 0.500030 0.349010 1.039907
O5    O     O_R   0.499990 0.680900 0.613100 -0.603935
O6    O     O_R   0.500010 0.680940 0.386960 -0.596304
O7    O     O_R   0.623210 0.499990 0.613090 -0.626971
O8    O     O_R   0.623240 0.500030 0.386950 -0.548821
C3    C     C_R   0.501716 0.737526 0.499265 0.923384
C4    C     C_R   0.661940 0.500030 0.499946 0.902752
C5    C     C_3   0.971369 0.421492 0.597296 -0.430362
C6    C     C_3   0.026544 0.386143 0.476509 0.437179
H1    H     H_    0.945996 0.358293 0.676185 0.167734
C7    C     C_1   0.249157 0.500450 0.499990 -0.137569
C8    C     C_1   0.750863 0.500432 0.499858 -0.141022
C9    C     C_3   0.027733 0.538917 0.616756 0.591239
C10   C     C_3   0.083008 0.501859 0.498632 -0.022097
C11   C     C_3   0.972304 0.619226 0.523652 -0.265394
C12   C     C_3   0.916997 0.501126 0.500933 -0.016932
C13   C     C_3   0.028486 0.581535 0.403278 -0.379671
C14   C     C_3   0.972148 0.464362 0.381965 0.534907
C15   C     C_1   0.173881 0.501121 0.499497 0.083403
C16   C     C_1   0.826152 0.500806 0.500183 0.053648
H2    H     H_    0.054031 0.645813 0.325504 0.180324
H3    H     H_    0.947578 0.713965 0.544574 0.167735
C17   C     C_2   0.478511 0.932590 0.389808 -0.059185
C18   C     C_2   0.506308 0.870186 0.496270 -0.239916
H4    H     H_    0.457298 0.885326 0.300400 0.201234
H5    H     H_    0.531963 0.916938 0.583077 0.174451
C19   C     C_2   0.481734 0.067264 0.389158 -0.285613
C20   C     C_2   0.469063 0.132722 0.500712 0.130659
H6    H     H_    0.504378 0.111398 0.297970 0.202532
C21   C     C_2   0.554964 0.560941 0.924550 -0.106114
N1    N     N_2   0.500900 0.501330 0.852150 -0.178986
H7    H     H_    0.608645 0.606718 0.876075 0.164482
H8    H     H_    0.443475 0.478149 0.894804 0.209827
C22   C     C_2   0.543431 0.579255 0.071794 0.426866
N2    N     N_2   0.500930 0.501360 0.147810 0.025755
O9    O     O_3   0.062041 0.268446 0.448998 -0.600018
C23   C     C_3   0.997330 0.176479 0.451443 -0.245584
H9    H     H_    0.945038 0.199081 0.381221 0.187163
H10   H     H_    0.971913 0.162945 0.553699 0.162566
H11   H     H_    0.024917 0.086338 0.419898 0.195271
N3    N     N_R   0.423538 0.081165 0.613780 0.210457
O10   O     O_R   0.444756 0.111992 0.734163 -0.351787
O11   O     O_R   0.356311 0.011280 0.595995 -0.364196
N4    N     N_R   0.579736 0.690581 0.127139 0.176161
O12   O     O_R   0.564782 0.797847 0.070474 -0.404817
O13   O     O_R   0.642517 0.682535 0.210396 -0.367510
O14   O     O_3   0.485195 0.388163 0.094439 -0.551007
C24   C     C_3   0.399279 0.358129 0.120388 -0.123486
H12   H     H_    0.356789 0.440136 0.107338 0.118436
H13   H     H_    0.390959 0.317091 0.220688 0.192227
H14   H     H_    0.378385 0.286210 0.048258 0.170640
O15   O     O_3   0.935359 0.423771 0.261816 -0.597703
C25   C     C_3   0.999436 0.411947 0.164956 -0.278825
H15   H     H_    0.050006 0.346616 0.197619 0.192980
H16   H     H_    0.027427 0.504644 0.138376 0.153554
H17   H     H_    0.970448 0.372790 0.073699 0.192674
O16   O     O_3   0.064445 0.578757 0.737194 -0.588315
C26   C     C_3   0.999400 0.604993 0.828878 -0.267158
H18   H     H_    0.961673 0.519497 0.853880 0.157335
H19   H     H_    0.957137 0.680291 0.791659 0.162797
H20   H     H_    0.029062 0.638767 0.922011 0.190250

loop_
_geom_bond_atom_site_label_1
_geom_bond_atom_site_label_2
_geom_bond_distance
_ccdc_geom_bond_type
C9    O16   1.410511 S    
O4    Zn2   1.974306 S    
C17   H4    1.086757 S    
O9    C23   1.408115 S    
C18   H5    1.086201 S    
C6    C10   1.533570 S    
C5    H1    1.109979 S    
C21   N1    1.287760 D    
C11   H3    1.110102 S    
C12   C16   1.428489 S    
C8    C16   1.183848 T    
C22   N2    1.305248 D    
C7    C15   1.183777 T    
C23   H11   1.109198 S    
C1    C20   1.437712 S    
C17   C18   1.334633 D    
Zn2   O8    1.975431 S    
C26   H20   1.109033 S    
O16   C26   1.408189 S    
C24   H12   1.114728 S    
C5    C12   1.549670 S    
O2    C1    1.292423 A    
C9    C11   1.542940 S    
C22   N4    1.432030 S    
O15   C25   1.408178 S    
C21   H7    1.084958 S    
C9    C10   1.528655 S    
Zn1   O7    1.974305 S    
C6    O9    1.410855 S    
C11   C12   1.544825 S    
O4    C2    1.290420 A    
O3    Zn1   1.975430 S    
C20   N3    1.446356 S    
N3    O11   1.301887 A    
N3    O10   1.301324 A    
N1    H8    1.026593 S    
C10   C15   1.429052 S    
O8    C4    1.290822 A    
C19   C20   1.343212 D    
C19   H6    1.086815 S    
C24   H13   1.104896 S    
C21   C22   1.507373 S    
C5    C9    1.543551 S    
C2    C7    1.398035 S    
O7    C4    1.290643 A    
C11   C13   1.556250 S    
C10   C13   1.544952 S    
O3    C2    1.291020 A    
C25   H17   1.109141 S    
C5    C6    1.543949 S    
C17   C19   1.440337 S    
N4    O13   1.299040 A    
Zn2   N2    2.025244 S    
N4    O12   1.300775 A    
C12   C14   1.533323 S    
C13   C14   1.543755 S    
C25   H16   1.111193 S    
C26   H18   1.111897 S    
C24   H14   1.109307 S    
O2    Zn2   1.969000 S    
C6    C14   1.530216 S    
Zn1   O5    1.968998 S    
C3    C18   1.419663 S    
O14   C24   1.409088 S    
O5    C3    1.292095 A    
C14   O15   1.410974 S    
C26   H19   1.112217 S    
O1    Zn1   1.974509 S    
C4    C8    1.398219 S    
Zn1   N1    2.025105 S    
Zn2   O6    1.974508 S    
N2    O14   1.348699 S    
C23   H9    1.112371 S    
C13   H2    1.109993 S    
C23   H10   1.111514 S    
C25   H15   1.112084 S    
O1    C1    1.291333 A    
O6    C3    1.286362 A    
