data_mof_unit_23030.cif
_audit_creation_date              2012-12-11T14:15:28-0500
_audit_creation_method            fapswitch 2.2
_symmetry_space_group_name_H-M    P1
_symmetry_Int_Tables_number       1
_space_group_crystal_system       triclinic
_cell_length_a                    11.138261
_cell_length_b                    12.75117
_cell_length_c                    23.520828
_cell_angle_alpha                 90.191379
_cell_angle_beta                  96.044717
_cell_angle_gamma                 68.973974
_cell_volume                      3098.67055936

loop_
_atom_site_label
_atom_site_type_symbol
_atom_type_description
_atom_site_fract_x
_atom_site_fract_y
_atom_site_fract_z
_atom_type_partial_charge
C1    C     C_R   0.149652 0.616819 0.428921 0.543089
C2    C     C_R   0.648645 0.566191 0.310927 0.190728
C3    C     C_R   0.710536 0.731664 0.318292 0.201644
C4    C     C_R   0.704513 0.737995 0.258026 -0.014003
C5    C     C_R   0.688448 0.649021 0.225975 -0.019960
C6    C     C_R   0.691373 0.650483 0.166667 0.231769
C7    C     C_R   0.700677 0.838652 0.169328 -0.068610
C8    C     C_R   0.715260 0.830139 0.229160 -0.144245
C9    C     C_1   0.234792 0.162195 0.122806 -0.000355
C10   C     C_2   0.180528 0.232292 0.226478 -0.111777
C11   C     C_2   0.157203 0.164044 0.263546 -0.108658
C12   C     C_R   0.747813 0.605166 0.404271 0.559013
C13   C     C_1   0.134203 0.197927 0.321246 -0.031527
C14   C     C_1   0.209553 0.196904 0.169555 -0.040492
C15   C     C_1   0.117482 0.231482 0.368886 0.010897
C16   C     C_1   0.166213 0.750198 0.123646 0.001807
C17   C     C_2   0.148003 0.685286 0.228474 -0.052757
C18   C     C_2   0.235305 0.687194 0.272264 0.254833
C19   C     C_1   0.218199 0.657833 0.329750 -0.063403
C20   C     C_1   0.155637 0.719914 0.170858 0.009980
C21   C     C_1   0.195007 0.636659 0.376470 -0.024336
C22   C     C_1   0.606208 0.766996 0.861473 -0.004271
C23   C     C_R   0.101511 0.282189 0.423542 0.535654
C24   C     C_2   0.616601 0.746521 0.751067 -0.086743
C25   C     C_2   0.675592 0.646286 0.729904 0.233141
C26   C     C_1   0.683850 0.638685 0.669313 -0.087485
C27   C     C_1   0.615665 0.758786 0.811356 -0.006931
C28   C     C_1   0.703894 0.627191 0.620183 -0.025898
C29   C     C_R   0.235896 0.128167 0.844716 -0.017048
C30   C     C_R   0.097395 0.228741 0.639691 -0.017426
C31   C     C_R   0.983109 0.222197 0.722295 -0.030670
C32   C     C_R   0.981062 0.247171 0.663993 -0.147768
C33   C     C_R   0.215278 0.173531 0.670388 -0.088465
C34   C     C_R   0.152589 0.617740 0.589435 0.573742
C35   C     C_R   0.221363 0.149992 0.727682 0.078627
C36   C     C_R   0.105692 0.184671 0.755117 -0.003077
C37   C     C_R   0.116651 0.182214 0.814553 -0.165626
C38   C     C_R   0.348363 0.083385 0.816739 -0.114762
C39   C     C_R   0.342571 0.096561 0.758274 0.214600
C40   C     C_R   0.143829 0.758906 0.844523 -0.016975
C41   C     C_R   0.210959 0.644823 0.643525 0.007734
C42   C     C_R   0.342079 0.583416 0.734159 0.213564
C43   C     C_R   0.320332 0.568063 0.675098 0.258433
C44   C     C_R   0.152217 0.749892 0.665665 -0.053478
C45   C     C_R   0.749094 0.601641 0.565634 0.547180
C46   C     C_R   0.149044 0.753522 0.725248 -0.026429
C47   C     C_R   0.244411 0.667371 0.760917 -0.027502
C48   C     C_R   0.235865 0.665948 0.820778 -0.022115
C49   C     C_R   0.043085 0.835661 0.807961 -0.146002
C50   C     C_R   0.043167 0.831882 0.748599 -0.010410
C51   C     C_R   0.265435 0.110036 0.069345 0.548683
C52   C     C_R   0.602539 0.774069 0.080621 0.566093
C53   C     C_R   0.189056 0.788016 0.069688 0.544920
C54   C     C_R   0.247956 0.105257 0.904968 0.536623
C55   C     C_R   0.573406 0.777231 0.918304 0.537483
C56   C     C_R   0.096994 0.280928 0.585347 0.533791
C57   C     C_R   0.167383 0.789014 0.904784 0.541755
C58   C     C_R   0.678290 0.751306 0.137800 0.036186
C59   C     C_R   0.689895 0.641225 0.344962 0.018939
C60   C     C_R   0.660128 0.564364 0.253006 -0.044915
Cr1   Cr    Cr6+3 0.189770 0.415650 0.511620 1.067440
Cr2   Cr    Cr6+3 0.930400 0.667320 0.496770 1.046548
Cr3   Cr    Cr6+3 0.879870 0.417010 0.491650 1.035815
Cr4   Cr    Cr6+3 0.149500 0.973980 0.985330 1.009290
Cr5   Cr    Cr6+3 0.457000 0.976510 0.994660 1.012112
Cr6   Cr    Cr6+3 0.411170 0.724270 0.995270 1.033503
H1    H     H_    0.067551 0.659810 0.235932 0.077690
H2    H     H_    0.566867 0.820251 0.723280 0.090317
H3    H     H_    0.033467 0.219888 0.837771 0.130825
H4    H     H_    0.441596 0.037375 0.840364 0.128243
H5    H     H_    0.889734 0.282040 0.637394 0.131664
H6    H     H_    0.303172 0.155936 0.650087 0.183487
H7    H     H_    0.964105 0.898954 0.825849 0.127374
H8    H     H_    0.639576 0.498744 0.229408 0.161276
H9    H     H_    0.728061 0.899345 0.252468 0.135270
H10   H     H_    0.157984 0.081692 0.251099 0.150372
H11   H     H_    0.180545 0.314322 0.239118 0.140153
O1    O     O_R   0.196340 0.303200 0.448500 -0.509081
O2    O     O_R   0.811960 0.658090 0.547150 -0.495749
O3    O     O_R   0.757930 0.506140 0.547110 -0.512363
O4    O     O_R   0.988670 0.321620 0.556040 -0.512086
O5    O     O_3   0.000020 0.499990 0.500010 -0.267256
O6    O     O_R   0.113660 0.883270 0.047820 -0.522615
O7    O     O_R   0.186930 0.068530 0.043990 -0.490913
O8    O     O_R   0.377770 0.089040 0.054220 -0.507895
O9    O     O_R   0.562800 0.872960 0.056970 -0.500189
O10   O     O_R   0.555390 0.700940 0.062700 -0.469997
O11   O     O_R   0.295020 0.731920 0.049950 -0.489019
O12   O     O_R   0.199310 0.519670 0.454880 -0.490823
O13   O     O_R   0.094290 0.884230 0.921550 -0.525470
O14   O     O_R   0.168980 0.069410 0.926940 -0.497850
O15   O     O_R   0.358400 0.089990 0.927950 -0.540506
O16   O     O_R   0.544850 0.873850 0.939920 -0.510089
O17   O     O_R   0.536020 0.701900 0.936430 -0.524020
O18   O     O_R   0.277070 0.732810 0.932890 -0.500945
O19   O     O_3   0.339220 0.891590 0.991750 -0.249222
O20   O     O_R   0.045660 0.691380 0.441680 -0.502450
O21   O     O_R   0.811930 0.659460 0.430950 -0.443989
O22   O     O_R   0.757900 0.507620 0.421760 -0.497973
O23   O     O_R   0.988630 0.322990 0.439840 -0.488653
O24   O     O_R   0.196380 0.301720 0.573850 -0.508181
O25   O     O_R   0.199350 0.518300 0.571080 -0.438378
O26   O     O_R   0.045700 0.689900 0.567030 -0.537301
O27   O     O_3   0.700066 0.556195 0.135842 -0.684908
H12   H     H_    0.620998 0.539524 0.139905 0.325945
O28   O     O_3   0.738781 0.553670 0.766468 -0.681865
H13   H     H_    0.786370 0.490105 0.743377 0.329677
C61   C     C_R   0.862498 0.220447 0.746052 0.023770
C62   C     C_R   0.871577 0.138562 0.788551 -0.093865
C63   C     C_R   0.761695 0.130832 0.808869 -0.118285
C64   C     C_R   0.639540 0.200501 0.785264 -0.073016
C65   C     C_R   0.627418 0.277013 0.741067 -0.034109
C66   C     C_R   0.737226 0.289397 0.722270 -0.082183
H14   H     H_    0.963801 0.076641 0.804829 0.121930
H15   H     H_    0.771324 0.068537 0.841896 0.101634
H16   H     H_    0.554083 0.193728 0.800393 0.134579
H17   H     H_    0.531799 0.325295 0.721294 0.194232
H18   H     H_    0.723394 0.351350 0.688570 0.095269
O29   O     O_3   0.452699 0.056394 0.730290 -0.749734
H19   H     H_    0.529097 0.018912 0.758472 0.316118
C67   C     C_R   0.287898 0.557503 0.854591 0.065101
C68   C     C_R   0.207318 0.495204 0.858420 -0.088892
C69   C     C_R   0.250873 0.395006 0.891429 -0.102399
C70   C     C_R   0.375592 0.355574 0.920532 -0.110524
C71   C     C_R   0.456644 0.416604 0.916830 -0.109681
C72   C     C_R   0.412821 0.517426 0.884318 -0.021649
H20   H     H_    0.110243 0.524914 0.836204 0.122214
H21   H     H_    0.187400 0.348572 0.894764 0.117830
H22   H     H_    0.409265 0.278254 0.946263 0.142413
H23   H     H_    0.553179 0.386186 0.939468 0.109285
H24   H     H_    0.476357 0.563695 0.882292 0.148226
C73   C     C_R   0.706162 0.940688 0.141246 0.049107
C74   C     C_R   0.627153 0.048392 0.156164 -0.064902
C75   C     C_R   0.630777 0.144234 0.128818 -0.088766
C76   C     C_R   0.713289 0.133449 0.086555 -0.106454
C77   C     C_R   0.792714 0.026796 0.071701 -0.101611
C78   C     C_R   0.789752 0.930652 0.099033 -0.065469
H25   H     H_    0.561315 0.058102 0.188247 0.116131
H26   H     H_    0.569026 0.226880 0.140171 0.117044
H27   H     H_    0.715555 0.207731 0.065261 0.112988
H28   H     H_    0.856225 0.018705 0.038843 0.129552
H29   H     H_    0.851798 0.848484 0.087102 0.103820
O30   O     O_3   0.457456 0.517845 0.763821 -0.716362
H30   H     H_    0.486784 0.569140 0.788383 0.341651
C79   C     C_R   0.924810 0.898470 0.711179 0.031276
C80   C     C_R   0.825093 0.856395 0.699302 -0.090318
C81   C     C_R   0.718717 0.912866 0.659424 -0.086403
C82   C     C_R   0.710453 0.012350 0.631889 -0.079546
C83   C     C_R   0.810423 0.053680 0.642923 -0.111527
C84   C     C_R   0.917808 0.996035 0.681977 -0.088942
H31   H     H_    0.832739 0.777960 0.719523 0.124165
H32   H     H_    0.643847 0.878727 0.648749 0.107239
H33   H     H_    0.628133 0.055884 0.601083 0.121040
H34   H     H_    0.806163 0.128669 0.620165 0.110057
H35   H     H_    0.998526 0.024243 0.688017 0.134536
O31   O     O_3   0.407261 0.485055 0.646813 -0.685881
H36   H     H_    0.495219 0.474800 0.664956 0.339477
C85   C     C_R   0.170968 0.843267 0.634627 0.025989
C86   C     C_R   0.287824 0.861725 0.647319 -0.088116
C87   C     C_R   0.319286 0.934632 0.612667 -0.108071
C88   C     C_R   0.233244 0.991941 0.565762 -0.109763
C89   C     C_R   0.115387 0.976610 0.553554 -0.118450
C90   C     C_R   0.084983 0.901548 0.587263 -0.075242
H37   H     H_    0.356689 0.816062 0.682773 0.112192
H38   H     H_    0.410385 0.946813 0.622172 0.129291
H39   H     H_    0.257448 0.048966 0.539183 0.123075
H40   H     H_    0.048216 0.021861 0.517512 0.116660
H41   H     H_    0.993748 0.890224 0.576600 0.154284
O32   O     O_3   0.602465 0.489892 0.333105 -0.670339
H42   H     H_    0.558237 0.523301 0.366849 0.334481
O33   O     O_3   0.738097 0.810903 0.351922 -0.675639
H43   H     H_    0.809561 0.826945 0.336704 0.321592
O34   O     O_3   0.335758 0.721934 0.262609 -0.683228
H44   H     H_    0.385494 0.722533 0.300075 0.327110

loop_
_geom_bond_atom_site_label_1
_geom_bond_atom_site_label_2
_ccdc_geom_bond_type
Cr5   O15   S    
O33   H43   S    
C38   H4    S    
C1    C21   S    
C74   C75   A    
C37   H3    S    
C44   C85   S    
O32   H42   S    
C6    C58   A    
Cr1   O24   S    
C35   C36   A    
C9    C51   S    
C24   C27   S    
C81   C82   A    
C55   O16   A    
C51   O8    A    
C88   C89   A    
C69   C70   A    
O34   H44   S    
C34   O25   A    
Cr3   O4    S    
C66   H18   S    
C36   C37   A    
C19   C21   T    
C56   O24   A    
C89   C90   A    
C81   H32   S    
Cr1   O5    S    
C86   C87   A    
Cr6   O11   S    
C5    C6    A    
C2    C60   A    
O28   H13   S    
O30   H30   S    
C17   C20   S    
C61   C62   A    
C18   C19   S    
C31   C61   S    
C68   H20   S    
C16   C53   S    
O27   H12   S    
C12   O22   A    
Cr3   O22   S    
C33   H6    S    
Cr2   O21   S    
C12   C59   S    
C71   H23   S    
Cr5   O19   S    
Cr4   O7    S    
C64   C65   A    
C44   C46   A    
C73   C74   A    
C29   C38   A    
C64   H16   S    
C6    O27   S    
C53   O11   A    
C76   C77   A    
C7    C58   A    
C12   O21   A    
C88   H39   S    
C30   C33   A    
C4    C8    A    
Cr6   O17   S    
C15   C23   S    
Cr5   O16   S    
C23   O23   A    
Cr2   O5    S    
C74   H25   S    
C83   H34   S    
C41   C43   A    
C34   C41   S    
C75   H26   S    
C55   O17   A    
C65   C66   A    
C10   H11   S    
Cr1   O12   S    
C25   O28   S    
C79   C80   A    
C32   H5    S    
Cr3   O3    S    
C76   H27   S    
C28   C45   S    
C17   H1    S    
C78   H29   S    
C57   O13   A    
Cr3   O5    S    
C47   C48   A    
Cr2   O2    S    
Cr5   O9    S    
C38   C39   A    
C24   C25   D    
Cr4   O19   S    
C10   C14   S    
C1    O20   A    
Cr6   O10   S    
C2    C59   A    
C77   C78   A    
Cr4   O13   S    
C73   C78   A    
C30   C56   S    
C8    H9    S    
C63   C64   A    
C80   H31   S    
C61   C66   A    
C35   C39   A    
C9    C14   T    
Cr4   O6    S    
C54   O15   A    
Cr3   O23   S    
Cr2   O20   S    
C31   C32   A    
Cr1   O1    S    
C16   C20   T    
C17   C18   D    
C67   C68   A    
C45   O2    A    
C87   H38   S    
C82   C83   A    
C40   C49   A    
C7    C73   S    
C22   C55   S    
C52   C58   S    
C62   H14   S    
C85   C90   A    
C50   C79   S    
C11   H10   S    
C84   H35   S    
C13   C15   T    
C57   O18   A    
C85   C86   A    
C41   C44   A    
C49   H7    S    
C42   C43   A    
C43   O31   S    
C48   C67   S    
Cr6   O19   S    
C80   C81   A    
C40   C48   A    
C46   C47   A    
O31   H36   S    
C1    O12   A    
C40   C57   S    
C5    C60   A    
C86   H37   S    
C52   O10   A    
C79   C84   A    
C4    C5    A    
Cr2   O26   S    
O29   H19   S    
Cr5   O8    S    
C75   C76   A    
C46   C50   A    
C26   C28   T    
C34   O26   A    
C53   O6    A    
C65   H17   S    
C22   C27   T    
C29   C54   S    
C87   C88   A    
C52   O9    A    
Cr1   O25   S    
C25   C26   S    
C67   C72   A    
C62   C63   A    
C30   C32   A    
C11   C13   S    
C3    O33   S    
C69   H21   S    
C71   C72   A    
C72   H24   S    
C39   O29   S    
C63   H15   S    
C60   H8    S    
C33   C35   A    
C77   H28   S    
C56   O4    A    
C70   H22   S    
C90   H41   S    
C45   O3    A    
C42   C47   A    
C23   O1    A    
C7    C8    A    
C10   C11   D    
C24   H2    S    
C2    O32   S    
C89   H40   S    
C18   O34   S    
C54   O14   A    
C49   C50   A    
C82   H33   S    
C29   C37   A    
C42   O30   S    
C31   C36   A    
C70   C71   A    
Cr4   O14   S    
C68   C69   A    
C83   C84   A    
C51   O7    A    
C3    C4    A    
Cr6   O18   S    
C3    C59   A    
