data_mof_unit_64245.cif
_audit_creation_date              2013-03-05T16:26:41-0500
_audit_creation_method            fapswitch 2.2
_symmetry_space_group_name_H-M    P1
_symmetry_Int_Tables_number       1
_space_group_crystal_system       triclinic
_cell_length_a                    39.108467
_cell_length_b                    32.244557
_cell_length_c                    21.932122
_cell_angle_alpha                 90.230738
_cell_angle_beta                  124.456118
_cell_angle_gamma                 90.009351
_cell_volume                      22804.7106048

loop_
_atom_site_label
_atom_site_type_symbol
_atom_site_description
_atom_site_fract_x
_atom_site_fract_y
_atom_site_fract_z
_atom_type_partial_charge
O1    O     O_R   0.440150 0.534640 0.440170 -0.585901
O2    O     O_R   0.559850 0.534640 0.559830 -0.581159
O3    O     O_R   0.940150 0.034640 0.440170 -0.575946
O4    O     O_R   0.059850 0.034640 0.559830 -0.578828
O5    O     O_R   0.440150 0.465360 0.440130 -0.553409
O6    O     O_R   0.559850 0.465360 0.559870 -0.564074
O7    O     O_R   0.940150 0.965360 0.440130 -0.571543
O8    O     O_R   0.059850 0.965360 0.559870 -0.567286
C1    C     C_R   0.420416 0.499931 0.420464 0.815482
C2    C     C_R   0.579581 0.500041 0.579539 0.817948
C3    C     C_R   0.920418 0.999941 0.420444 0.820504
C4    C     C_R   0.079581 0.000042 0.579543 0.819635
O9    O     O_R   0.500010 0.534640 0.589030 -0.582675
O10   O     O_R   0.499990 0.534640 0.410970 -0.580635
O11   O     O_R   0.000010 0.034640 0.589030 -0.580962
O12   O     O_R   0.999990 0.034640 0.410970 -0.578689
O13   O     O_R   0.500010 0.465360 0.588990 -0.572729
O14   O     O_R   0.499990 0.465360 0.411010 -0.579534
O15   O     O_R   0.000010 0.965360 0.588990 -0.578248
O16   O     O_R   0.999990 0.965360 0.411010 -0.580085
C5    C     C_R   0.501490 0.500178 0.619216 0.881854
C6    C     C_R   0.498511 0.499810 0.380785 0.873350
C7    C     C_R   0.001491 0.000178 0.619217 0.879268
C8    C     C_R   0.998507 0.999808 0.380782 0.880450
Cu1   Cu    Cu3+1 0.500000 0.541020 0.500000 1.007632
Cu2   Cu    Cu3+1 0.000000 0.041020 0.500000 1.018211
Cu3   Cu    Cu3+1 0.500000 0.458980 0.500000 1.047266
Cu4   Cu    Cu3+1 0.000000 0.958980 0.500000 1.024827
C9    C     C_2   0.524443 0.470478 0.807313 0.360847
C10   C     C_2   0.475639 0.529543 0.192759 0.365288
C11   C     C_2   0.024458 0.970489 0.807327 0.362662
C12   C     C_2   0.975507 0.029452 0.192639 0.364371
C13   C     C_2   0.498032 0.493717 0.814171 -0.422235
C14   C     C_2   0.501973 0.506218 0.185831 -0.424348
C15   C     C_2   0.998033 0.993713 0.814172 -0.423756
C16   C     C_2   0.001963 0.006267 0.185825 -0.424292
H1    H     H_    0.471708 0.508468 0.765810 0.139395
H2    H     H_    0.528245 0.491374 0.234137 0.137902
H3    H     H_    0.971702 0.008449 0.765802 0.137307
H4    H     H_    0.028308 0.991556 0.234209 0.136859
C17   C     C_2   0.519635 0.468956 0.735403 -0.176064
C18   C     C_2   0.480443 0.531047 0.264664 -0.191092
C19   C     C_2   0.019651 0.968964 0.735418 -0.180600
C20   C     C_2   0.980311 0.030981 0.264541 -0.178889
C21   C     C_2   0.505505 0.501443 0.689426 -0.366328
C22   C     C_2   0.494484 0.498526 0.310564 -0.367936
C23   C     C_2   0.005506 0.001445 0.689427 -0.366349
C24   C     C_2   0.994484 0.998515 0.310566 -0.362768
H5    H     H_    0.529398 0.441002 0.721496 0.206498
H6    H     H_    0.470764 0.559035 0.278644 0.201757
H7    H     H_    0.029427 0.941015 0.721524 0.204514
H8    H     H_    0.970514 0.058925 0.278409 0.203254
H9    H     H_    0.499304 0.530836 0.705688 0.162326
H10   H     H_    0.500614 0.469112 0.294247 0.163702
H11   H     H_    0.999293 0.030835 0.705678 0.163468
H12   H     H_    0.000718 0.969127 0.294346 0.162172
C25   C     C_R   0.227803 0.460020 0.216011 0.250663
C26   C     C_R   0.772317 0.483780 0.826330 0.254412
C27   C     C_R   0.727561 0.998903 0.168289 0.253488
C28   C     C_R   0.272359 0.988240 0.828868 0.254640
C29   C     C_R   0.206285 0.497464 0.205232 -0.016604
C30   C     C_R   0.793711 0.499965 0.796962 -0.017159
C31   C     C_R   0.706295 0.000915 0.203150 -0.019091
C32   C     C_R   0.293712 0.000324 0.797011 -0.018149
C33   C     C_R   0.228411 0.534029 0.239176 -0.205307
C34   C     C_R   0.771461 0.515085 0.724616 -0.203595
C35   C     C_R   0.728660 0.001895 0.280348 -0.197533
C36   C     C_R   0.271421 0.011368 0.722371 -0.200665
H13   H     H_    0.212126 0.562801 0.231449 0.170234
H14   H     H_    0.787647 0.527356 0.701621 0.171861
H15   H     H_    0.712571 0.003228 0.307457 0.174877
H16   H     H_    0.287576 0.020472 0.697490 0.173591
C37   C     C_R   0.271650 0.533902 0.283699 -0.200786
C38   C     C_R   0.728219 0.514301 0.681005 -0.204770
C39   C     C_R   0.771889 0.000866 0.323398 -0.205418
C40   C     C_R   0.228181 0.010524 0.678915 -0.204142
H17   H     H_    0.288112 0.562643 0.309209 0.173421
H18   H     H_    0.711654 0.526278 0.625175 0.170252
H19   H     H_    0.788546 0.001775 0.383104 0.170324
H20   H     H_    0.211585 0.019305 0.621266 0.170823
C41   C     C_R   0.293551 0.497237 0.294870 -0.017945
C42   C     C_R   0.706448 0.498521 0.709046 -0.016151
C43   C     C_R   0.793538 0.998983 0.290027 -0.016371
C44   C     C_R   0.206451 0.998762 0.709379 -0.016724
C45   C     C_R   0.271797 0.459939 0.260971 0.253181
C46   C     C_R   0.728327 0.483192 0.782107 0.251097
C47   C     C_R   0.771544 0.998088 0.212076 0.253931
C48   C     C_R   0.228370 0.987598 0.784764 0.251799
C49   C     C_1   0.161463 0.498711 0.161360 0.068422
C50   C     C_1   0.838528 0.500044 0.839493 0.070458
C51   C     C_1   0.661475 0.000516 0.160569 0.071140
C52   C     C_1   0.338528 0.000229 0.839510 0.071675
C53   C     C_1   0.338381 0.498773 0.339200 0.067613
C54   C     C_1   0.661616 0.499520 0.662821 0.064826
C55   C     C_1   0.838379 0.999456 0.336666 0.067829
C56   C     C_1   0.161617 0.999612 0.663002 0.065612
C57   C     C_1   0.375827 0.499619 0.376240 -0.107403
C58   C     C_1   0.624168 0.500012 0.624591 -0.109574
C59   C     C_1   0.875830 0.999759 0.375176 -0.109333
C60   C     C_1   0.124169 0.000031 0.624671 -0.109784
C61   C     C_1   0.124022 0.499473 0.124313 -0.102298
C62   C     C_1   0.875972 0.500043 0.875860 -0.099173
C63   C     C_1   0.624030 0.000232 0.124162 -0.099037
C64   C     C_1   0.375972 0.000120 0.875863 -0.097490
O17   O     O_R   0.534640 0.440150 0.034560 -0.551711
O18   O     O_R   0.465360 0.440150 0.965440 -0.589225
O19   O     O_R   0.034640 0.940150 0.034560 -0.552244
O20   O     O_R   0.965360 0.940150 0.965440 -0.589025
C65   C     C_R   0.499948 0.420404 0.999973 0.840360
C66   C     C_R   0.999948 0.920404 0.999973 0.839259
O21   O     O_R   0.534630 0.500000 0.945560 -0.536821
O22   O     O_R   0.465370 0.500000 0.054440 -0.539246
O23   O     O_R   0.034630 1.000000 0.945560 -0.535419
O24   O     O_R   0.965370 1.000000 0.054440 -0.536121
O25   O     O_R   0.465350 0.500000 0.876310 -0.593507
O26   O     O_R   0.534650 0.500000 0.123690 -0.594067
O27   O     O_R   0.965350 0.000000 0.876310 -0.595182
O28   O     O_R   0.034650 1.000000 0.123690 -0.594551
C67   C     C_R   0.499737 0.497824 0.882073 0.895868
C68   C     C_R   0.500265 0.502149 0.117928 0.894361
C69   C     C_R   0.999737 0.997822 0.882074 0.895685
C70   C     C_R   0.000262 0.002168 0.117927 0.894123
Cu5   Cu    Cu3+1 0.541020 0.500000 0.040980 1.062205
Cu6   Cu    Cu3+1 0.458980 0.500000 0.959020 1.058469
Cu7   Cu    Cu3+1 0.041020 1.000000 0.040980 1.064996
Cu8   Cu    Cu3+1 0.958980 0.000000 0.959020 1.064060
O29   O     O_R   0.534640 0.559850 0.034640 -0.587766
O30   O     O_R   0.465360 0.559850 0.965360 -0.551998
O31   O     O_R   0.034640 0.059850 0.034640 -0.586685
O32   O     O_R   0.965360 0.059850 0.965360 -0.551048
C71   C     C_R   0.500050 0.579574 0.999950 0.838846
C72   C     C_R   0.000053 0.079575 0.999954 0.837826
O33   O     O_R   1.000000 0.440190 0.051560 -0.555926
O34   O     O_R   0.000000 0.440190 0.948440 -0.571942
O35   O     O_R   0.500000 0.940190 0.051560 -0.557347
O36   O     O_R   0.500000 0.940190 0.948440 -0.572939
C73   C     C_R   0.000001 0.420614 0.999923 0.823534
C74   C     C_R   0.499981 0.920612 0.999904 0.812451
O37   O     O_R   0.059850 0.500040 0.111340 -0.573818
O38   O     O_R   0.940150 0.500040 0.888660 -0.582732
O39   O     O_R   0.559850 0.000040 0.111340 -0.580350
O40   O     O_R   0.440150 0.000040 0.888660 -0.581833
O41   O     O_R   0.059840 0.499970 0.008270 -0.566043
O42   O     O_R   0.940160 0.499970 0.991730 -0.550110
O43   O     O_R   0.559840 0.999970 0.008270 -0.551417
O44   O     O_R   0.440160 0.999970 0.991730 -0.549828
C75   C     C_R   0.079437 0.499991 0.079541 0.813693
C76   C     C_R   0.920562 0.500007 0.920471 0.811794
C77   C     C_R   0.579439 0.000016 0.079532 0.808621
C78   C     C_R   0.420561 0.000008 0.920471 0.810436
Cu9   Cu    Cu3+1 0.000010 0.500040 0.061000 1.057049
Cu10  Cu    Cu3+1 0.999990 0.500040 0.939000 1.028520
Cu11  Cu    Cu3+1 0.500010 0.000040 0.061000 1.055334
Cu12  Cu    Cu3+1 0.499990 0.000040 0.939000 1.046658
O45   O     O_R   0.000010 0.559880 0.051460 -0.576370
O46   O     O_R   0.999990 0.559880 0.948540 -0.578596
O47   O     O_R   0.500010 0.059880 0.051460 -0.575826
O48   O     O_R   0.499990 0.059880 0.948540 -0.572765
C79   C     C_R   0.000003 0.579507 0.000107 0.803749
C80   C     C_R   0.500004 0.079507 0.000108 0.807671
H21   H     H_    0.466628 0.288374 0.051702 0.150572
H22   H     H_    0.533035 0.288006 0.948111 0.167855
H23   H     H_    0.967991 0.788383 0.054197 0.149461
H24   H     H_    0.031669 0.787997 0.945618 0.164979
C81   C     C_R   0.981989 0.728354 0.030620 -0.153276
C82   C     C_R   0.017792 0.728137 0.969577 -0.160741
C83   C     C_R   0.481225 0.228348 0.029220 -0.150673
C84   C     C_R   0.518562 0.228142 0.970981 -0.153130
H25   H     H_    0.968067 0.711930 0.054437 0.151225
H26   H     H_    0.031748 0.711542 0.945863 0.152430
H27   H     H_    0.466705 0.211920 0.051945 0.153265
H28   H     H_    0.533116 0.211552 0.948359 0.158077
C85   C     C_R   0.999919 0.706380 0.000179 0.139768
C86   C     C_R   0.499922 0.206380 0.000182 0.136545
C87   C     C_R   0.518512 0.271576 0.970831 -0.137268
C88   C     C_R   0.481177 0.271782 0.029072 -0.159110
C89   C     C_R   0.017743 0.771571 0.969429 -0.141561
C90   C     C_R   0.981942 0.771788 0.030474 -0.161404
C91   C     C_R   0.499820 0.293543 0.999878 0.133940
C92   C     C_R   0.999818 0.793543 0.999879 0.136182
C93   C     C_1   0.999954 0.661606 0.000287 -0.046590
C94   C     C_1   0.499957 0.161606 0.000290 -0.039794
C95   C     C_1   0.499816 0.338314 0.999815 -0.033154
C96   C     C_1   0.999815 0.838314 0.999816 -0.036208
C97   C     C_1   0.499846 0.375783 0.999839 -0.109256
C98   C     C_1   0.999846 0.875783 0.999840 -0.110662
C99   C     C_1   0.999980 0.624134 0.000283 -0.142139
C100  C     C_1   0.499982 0.124134 0.000286 -0.134143
H29   H     H_    0.437440 0.710448 0.904291 0.195921
H30   H     H_    0.561791 0.711293 0.097954 0.194361
H31   H     H_    0.935359 0.210522 0.913327 0.197922
H32   H     H_    0.064356 0.211232 0.089391 0.195539
C101  C     C_R   0.962437 0.271406 0.952320 0.302395
C102  C     C_R   0.036464 0.271818 0.053342 0.298796
C103  C     C_R   0.463326 0.771363 0.946779 0.303575
C104  C     C_R   0.534683 0.771845 0.057906 0.304953
C105  C     C_R   0.999349 0.293698 0.003106 -0.112455
C106  C     C_R   0.498862 0.793690 0.002553 -0.112932
C107  C     C_R   0.534666 0.728270 0.055768 -0.204708
C108  C     C_R   0.464468 0.727794 0.946444 -0.200237
C109  C     C_R   0.036235 0.228239 0.051056 -0.202987
C110  C     C_R   0.963415 0.227837 0.951667 -0.195285
C111  C     C_R   0.499813 0.706346 0.000592 0.015500
C112  C     C_R   0.999985 0.206351 0.000757 0.015127
C113  C     C_1   0.999680 0.338599 0.000970 0.145078
C114  C     C_1   0.499391 0.838594 0.000662 0.143684
C115  C     C_1   0.500053 0.661599 0.000278 0.028614
C116  C     C_1   0.000130 0.161601 0.000349 0.031115
C117  C     C_1   0.500128 0.624154 0.000131 -0.112458
C118  C     C_1   0.000149 0.124156 0.000149 -0.109607
C119  C     C_1   0.999876 0.376046 0.999924 -0.049440
C120  C     C_1   0.499734 0.876042 0.999781 -0.055499
N1    N     N_R   0.555048 0.444111 0.865896 0.147488
O49   O     O_R   0.589154 0.435820 0.871058 -0.287421
O50   O     O_R   0.545950 0.422586 0.904994 -0.355207
N2    N     N_R   0.445139 0.556027 0.134270 0.147027
O51   O     O_R   0.411069 0.564466 0.129142 -0.320791
O52   O     O_R   0.454315 0.577493 0.095224 -0.349569
N3    N     N_R   0.055079 0.944140 0.865925 0.147052
O53   O     O_R   0.089194 0.935877 0.871103 -0.288124
O54   O     O_R   0.045990 0.922602 0.905024 -0.358476
N4    N     N_R   0.944856 0.055766 0.134011 0.149619
O55   O     O_R   0.910715 0.063960 0.128786 -0.289028
O56   O     O_R   0.953932 0.077343 0.094931 -0.348108
N5    N     N_R   0.923863 0.292242 0.901044 0.142874
O57   O     O_R   0.895980 0.274583 0.838552 -0.316136
O58   O     O_R   0.914411 0.326596 0.919496 -0.323472
N6    N     N_R   0.074555 0.293081 0.106671 0.147964
O59   O     O_R   0.110088 0.275744 0.130802 -0.292067
O60   O     O_R   0.074162 0.327531 0.137372 -0.316295
N7    N     N_R   0.426007 0.792161 0.890133 0.142095
O61   O     O_R   0.401075 0.774461 0.826060 -0.321645
O62   O     O_R   0.414371 0.826524 0.904485 -0.328482
N8    N     N_R   0.571260 0.793143 0.116342 0.139501
O63   O     O_R   0.607513 0.775882 0.147474 -0.322195
O64   O     O_R   0.568287 0.827520 0.144292 -0.334843
N9    N     N_R   0.294120 0.422503 0.269774 0.155476
O65   O     O_R   0.324912 0.410861 0.335013 -0.313584
O66   O     O_R   0.284058 0.400152 0.212327 -0.262920
N10   N     N_R   0.706140 0.468502 0.812301 0.157012
O67   O     O_R   0.675351 0.442647 0.775095 -0.302783
O68   O     O_R   0.716325 0.481382 0.876865 -0.257683
N11   N     N_R   0.793626 0.997883 0.177381 0.157260
O69   O     O_R   0.824120 0.972242 0.199132 -0.316496
O70   O     O_R   0.783656 0.023787 0.124444 -0.250963
N12   N     N_R   0.206222 0.977119 0.817178 0.156940
O71   O     O_R   0.175465 0.950926 0.784455 -0.304848
O72   O     O_R   0.216408 0.994191 0.879209 -0.257932
N13   N     N_R   0.205246 0.421992 0.183791 0.160164
O73   O     O_R   0.174429 0.420443 0.114451 -0.306063
O74   O     O_R   0.215119 0.388830 0.224023 -0.242357
N14   N     N_R   0.794999 0.466639 0.899580 0.158714
O75   O     O_R   0.825819 0.486968 0.954898 -0.311793
O76   O     O_R   0.785212 0.430321 0.911094 -0.246031
N15   N     N_R   0.704737 0.996163 0.089054 0.156893
O77   O     O_R   0.674206 0.021387 0.047462 -0.313229
O78   O     O_R   0.714094 0.968026 0.058124 -0.261695
N16   N     N_R   0.295085 0.975228 0.904756 0.158158
O79   O     O_R   0.325883 0.997366 0.956419 -0.311987
O80   O     O_R   0.285362 0.940844 0.922395 -0.251335

loop_
_geom_bond_atom_site_label_1
_geom_bond_atom_site_label_2
_geom_bond_distance
_ccdc_geom_bond_type
C26   C30   1.414086 A    
C84   C87   1.400517 A    
C43   C47   1.413914 A    
N15   O78   1.301244 A    
O33   C73   1.294333 A    
C42   C54   1.446321 S    
O26   Cu5   1.965717 S    
C106  C114  1.449141 S    
C15   H3    1.086134 S    
O33   Cu9   1.940061 S    
O28   Cu7   1.965717 S    
C16   C70   1.458025 S    
O42   C76   1.294047 A    
O9    Cu1   1.964028 S    
O38   C76   1.295532 A    
O34   C73   1.295804 A    
N6    O60   1.301250 A    
C28   C48   1.418647 A    
O39   C77   1.295496 A    
Cu5   Cu6   2.645628 S    
N1    O49   1.301104 A    
C84   C86   1.402036 A    
O44   Cu11  1.939815 S    
O37   C75   1.295269 A    
N13   O73   1.301214 A    
C63   C77   1.437962 S    
C11   C19   1.479501 S    
C56   C60   1.207788 T    
C73   C119  1.437077 S    
C32   C36   1.398763 A    
N14   O76   1.301248 A    
C101  C110  1.405612 A    
N2    O52   1.301393 A    
C41   C53   1.446484 S    
Cu12  O48   1.939985 S    
O42   Cu9   1.939815 S    
C95   C97   1.208163 T    
O28   C70   1.279535 A    
O24   Cu8   1.962226 S    
C55   C59   1.207805 T    
C83   C88   1.400520 A    
C102  C105  1.419662 A    
O23   Cu7   1.962222 S    
O39   Cu11  1.942176 S    
C113  C119  1.207868 T    
C79   C99   1.438979 S    
N11   O69   1.301202 A    
C34   C38   1.394571 A    
C81   H25   1.083402 S    
C9    C13   1.351346 D    
O34   Cu10  1.941719 S    
C33   C37   1.394482 A    
O17   Cu5   1.940168 S    
O21   C67   1.286472 A    
C44   C56   1.446320 S    
C28   N16   1.438057 S    
C2    C58   1.437813 S    
O27   C69   1.279532 A    
C40   C44   1.398914 A    
C50   C62   1.207852 T    
O43   C77   1.294090 A    
C62   C76   1.437923 S    
O44   C78   1.294050 A    
Cu5   O29   1.941368 S    
C37   H17   1.083705 S    
C88   C91   1.402004 A    
C66   C98   1.438776 S    
C13   C67   1.458040 S    
O16   C8    1.280284 A    
O20   C66   1.285941 A    
N11   O70   1.301262 A    
C71   C117  1.437437 S    
C46   N10   1.438186 S    
Cu9   Cu10  2.675274 S    
C9    N1    1.440579 S    
H31   C110  1.083839 S    
Cu9   O45   1.941660 S    
O4    C4    1.285920 A    
O27   Cu8   1.965715 S    
O38   Cu10  1.942176 S    
C91   C95   1.443637 S    
O31   C72   1.285591 A    
C36   H16   1.083704 S    
Cu6   O30   1.940173 S    
C103  C106  1.419502 A    
C49   C61   1.207813 T    
C20   H8    1.086715 S    
O11   C7    1.280241 A    
C12   C16   1.351308 D    
C85   C93   1.443735 S    
O18   C65   1.285942 A    
O12   C8    1.285960 A    
O22   Cu6   1.962226 S    
C14   H2    1.086128 S    
N9    O65   1.301198 A    
O48   C80   1.293511 A    
C81   C90   1.400519 A    
C86   C94   1.443735 S    
N8    O64   1.301247 A    
C38   C42   1.398903 A    
C104  C107  1.405634 A    
C26   C46   1.418626 A    
C17   H5    1.086715 S    
N6    O59   1.301580 A    
C29   C49   1.446361 S    
H30   C107  1.083833 S    
O7    C3    1.285452 A    
C11   N3    1.440571 S    
N1    O50   1.301397 A    
C14   C68   1.457885 S    
N12   O72   1.301247 A    
O4    Cu2   1.941570 S    
N13   O74   1.301250 A    
C7    C23   1.457188 S    
C10   C14   1.351243 D    
O45   C79   1.293996 A    
O13   Cu3   1.961510 S    
O1    C1    1.285832 A    
Cu10  O46   1.939985 S    
C15   C69   1.458054 S    
C72   C118  1.437479 S    
N2    O51   1.301086 A    
O19   Cu7   1.940168 S    
C27   C47   1.418701 A    
O36   C74   1.295832 A    
C105  C113  1.449068 S    
H32   C109  1.083829 S    
N3    O53   1.301108 A    
O22   C68   1.286475 A    
Cu8   O32   1.940173 S    
C30   C34   1.398778 A    
O15   C7    1.286004 A    
O11   Cu2   1.964028 S    
C83   H27   1.083403 S    
H22   C87   1.083430 S    
O16   Cu4   1.963153 S    
C65   C97   1.438779 S    
C26   N14   1.438060 S    
C42   C46   1.413923 A    
C102  C109  1.405728 A    
C27   N15   1.438057 S    
O13   C5    1.285996 A    
O7    Cu4   1.941569 S    
O26   C68   1.279424 A    
C5    C21   1.457185 S    
C8    C24   1.457171 S    
O32   C72   1.285310 A    
C31   C35   1.398748 A    
O5    C1    1.285200 A    
C29   C33   1.398844 A    
N3    O54   1.301401 A    
C48   N12   1.438201 S    
O36   Cu12  1.941719 S    
C47   N11   1.438204 S    
O6    Cu3   1.940364 S    
C16   H4    1.086138 S    
O8    C4    1.285038 A    
C89   C92   1.401951 A    
C43   C55   1.446363 S    
C12   N4    1.440556 S    
C22   H10   1.086036 S    
H23   C90   1.083407 S    
N10   O68   1.301246 A    
N5    O57   1.301586 A    
C12   C20   1.479423 S    
C103  N7    1.441742 S    
N7    O62   1.301257 A    
C82   C89   1.400520 A    
C94   C100  1.208259 T    
O40   Cu12  1.942176 S    
N4    O56   1.301402 A    
O15   Cu4   1.961510 S    
O10   C6    1.285924 A    
O35   C74   1.294347 A    
C110  C112  1.395927 A    
C37   C41   1.398754 A    
C83   C86   1.401967 A    
C112  C116  1.442948 S    
O43   Cu12  1.939830 S    
H29   C108  1.083834 S    
C104  C106  1.419607 A    
O41   Cu10  1.939830 S    
C6    C22   1.457202 S    
C18   H6    1.086711 S    
O41   C75   1.294273 A    
O47   C80   1.293997 A    
O25   C67   1.279522 A    
N9    O66   1.301263 A    
Cu7   O31   1.941368 S    
C18   C22   1.340815 D    
Cu7   Cu8   2.645628 S    
O8    Cu4   1.940364 S    
O19   C66   1.285637 A    
C11   C15   1.351351 D    
C45   N9    1.438061 S    
C35   C39   1.394566 A    
N8    O63   1.301573 A    
C80   C100  1.438976 S    
C25   N13   1.438185 S    
N15   O77   1.301208 A    
O2    C2    1.285949 A    
O30   C71   1.285242 A    
C53   C57   1.207885 T    
N16   O80   1.301245 A    
C101  C105  1.419512 A    
C23   H11   1.086042 S    
C103  C108  1.405695 A    
C24   H12   1.086048 S    
O21   Cu5   1.962222 S    
O17   C65   1.285637 A    
N12   O71   1.301211 A    
C61   C75   1.437869 S    
C82   C85   1.402040 A    
C1    C57   1.437976 S    
O25   Cu6   1.965715 S    
C9    C17   1.479509 S    
O14   C6    1.280332 A    
Cu2   Cu4   2.645347 S    
O46   C79   1.293514 A    
O14   Cu3   1.963153 S    
C40   H20   1.083713 S    
C51   C63   1.207878 T    
O12   Cu2   1.962382 S    
C107  C111  1.395844 A    
O6    C2    1.285006 A    
C90   C92   1.402003 A    
O1    Cu1   1.940369 S    
C64   C78   1.437941 S    
C25   C29   1.413967 A    
C109  C112  1.395941 A    
C36   C40   1.394565 A    
O3    Cu2   1.940369 S    
C87   C91   1.401953 A    
C27   C31   1.414102 A    
C81   C85   1.401963 A    
O35   Cu11  1.940061 S    
C28   C32   1.414107 A    
O40   C78   1.295538 A    
C10   N2    1.440605 S    
N16   O79   1.301194 A    
C101  N5    1.441735 S    
C20   C24   1.340756 D    
C17   C21   1.340768 D    
C39   H19   1.083706 S    
O9    C5    1.280249 A    
O5    Cu3   1.941569 S    
C39   C43   1.398915 A    
O37   Cu9   1.942176 S    
C34   H14   1.083703 S    
C44   C48   1.413914 A    
C111  C115  1.442916 S    
C19   H7    1.086717 S    
C108  C111  1.395975 A    
C33   H13   1.083699 S    
C30   C50   1.446426 S    
C3    C59   1.437846 S    
C74   C120  1.437162 S    
N10   O67   1.301210 A    
N5    O58   1.301258 A    
C82   H26   1.083408 S    
C96   C98   1.208163 T    
C13   H1    1.086132 S    
O2    Cu1   1.941570 S    
C35   H15   1.083705 S    
O10   Cu1   1.962382 S    
Cu11  O47   1.941660 S    
N4    O55   1.301099 A    
O29   C71   1.285640 A    
C4    C60   1.437817 S    
O3    C3    1.285516 A    
C52   C64   1.207859 T    
C21   H9    1.086041 S    
O24   C70   1.286448 A    
C114  C120  1.207914 T    
C84   H28   1.083409 S    
O23   C69   1.286470 A    
C104  N8    1.441724 S    
C116  C118  1.207399 T    
C38   H18   1.083709 S    
C31   C51   1.446480 S    
N7    O61   1.301585 A    
C115  C117  1.207378 T    
O18   Cu6   1.941377 S    
C54   C58   1.207788 T    
C10   C18   1.479441 S    
C32   C52   1.446444 S    
O20   Cu8   1.941377 S    
Cu11  Cu12  2.675274 S    
C102  N6    1.441838 S    
C19   C23   1.340759 D    
H21   C88   1.083406 S    
C25   C45   1.418762 A    
C93   C99   1.208259 T    
C41   C45   1.414102 A    
H24   C89   1.083433 S    
C92   C96   1.443634 S    
N14   O75   1.301193 A    
Cu1   Cu3   2.645347 S    
