data_mof_unit_55978.cif
_audit_creation_date              2012-12-10T17:12:00-0500
_audit_creation_method            fapswitch 2.2
_symmetry_space_group_name_H-M    P1
_symmetry_Int_Tables_number       1
_space_group_crystal_system       triclinic
_cell_length_a                    11.781089
_cell_length_b                    12.975529
_cell_length_c                    15.699916
_cell_angle_alpha                 95.123503
_cell_angle_beta                  73.30399
_cell_angle_gamma                 99.821985
_cell_volume                      2263.04403504

loop_
_atom_site_label
_atom_site_type_symbol
_atom_type_description
_atom_site_fract_x
_atom_site_fract_y
_atom_site_fract_z
_atom_type_partial_charge
C1    C     C_R   0.525535 0.700177 0.491765 0.847422
C2    C     C_R   0.474465 0.299822 0.508235 0.847422
C3    C     C_R   0.404828 0.384256 0.060222 0.136190
C4    C     C_R   0.595172 0.615745 0.939778 0.136190
C5    C     C_R   0.304739 0.370848 0.024957 0.148764
C6    C     C_R   0.695261 0.629152 0.975044 0.148764
C7    C     C_R   0.454451 0.185626 0.522267 -0.153628
C8    C     C_R   0.545549 0.814374 0.477732 -0.153627
C9    C     C_R   0.657291 0.985910 0.496962 0.408522
C10   C     C_R   0.342709 0.014090 0.503038 0.408522
C11   C     C_R   0.655421 0.877898 0.477658 0.038972
C12   C     C_R   0.344579 0.122102 0.522342 0.038972
C13   C     C_R   0.453226 0.861636 0.464467 0.119391
C14   C     C_R   0.546774 0.138364 0.535533 0.119391
C15   C     C_R   0.448782 0.968836 0.490136 -0.052873
C16   C     C_R   0.551218 0.031164 0.509864 -0.052873
C17   C     C_R   0.945099 0.615568 0.569613 0.005949
C18   C     C_R   0.054901 0.384432 0.430387 0.005949
C19   C     C_R   0.823366 0.595384 0.570950 0.490204
C20   C     C_R   0.176634 0.404616 0.429050 0.490204
C21   C     C_R   0.859842 0.455057 0.463954 0.505292
C22   C     C_R   0.140158 0.544943 0.536046 0.505292
C23   C     C_R   0.425801 0.492045 0.668728 0.871993
C24   C     C_R   0.574199 0.507955 0.331272 0.871993
C25   C     C_R   0.978020 0.458648 0.473355 -0.134618
C26   C     C_R   0.021980 0.541352 0.526645 -0.134618
C27   C     C_R   0.378788 0.478327 0.766281 -0.208360
C28   C     C_R   0.621212 0.521673 0.233719 -0.208360
C29   C     C_R   0.226633 0.409171 0.898889 0.354136
C30   C     C_R   0.773367 0.590829 0.101111 0.354136
C31   C     C_R   0.259853 0.432879 0.808168 0.347811
C32   C     C_R   0.740147 0.567121 0.191832 0.347811
C33   C     C_R   0.457716 0.508895 0.818431 -0.271934
C34   C     C_R   0.542284 0.491104 0.181568 -0.271935
C35   C     C_R   0.424805 0.489839 0.909548 0.003444
C36   C     C_R   0.575195 0.510161 0.090452 0.003444
C37   C     C_R   0.314797 0.424921 0.947015 -0.039795
C38   C     C_R   0.685203 0.575079 0.052985 -0.039795
C39   C     C_R   0.505242 0.526660 0.961640 0.033244
C40   C     C_R   0.494758 0.473340 0.038360 0.033244
Cu1   Cu    Cu3+1 0.386820 0.492450 0.493500 1.062663
Cu2   Cu    Cu3+1 0.613180 0.507550 0.506500 1.062663
H1    H     H_    0.451397 0.456452 0.213491 0.233878
H2    H     H_    0.548603 0.543548 0.786509 0.233878
N1    N     N_R   0.216750 0.481110 0.483710 -0.250930
N2    N     N_R   0.783250 0.518890 0.516290 -0.250930
O1    O     O_R   0.419950 0.645670 0.495380 -0.552535
O2    O     O_R   0.580050 0.354330 0.504620 -0.552534
O3    O     O_R   0.611110 0.658410 0.506370 -0.539977
O4    O     O_R   0.388890 0.341590 0.493630 -0.539976
O5    O     O_R   0.350820 0.490050 0.621260 -0.491982
O6    O     O_R   0.649180 0.509950 0.378740 -0.491982
O7    O     O_R   0.541970 0.502800 0.632250 -0.560322
O8    O     O_R   0.458030 0.497200 0.367750 -0.560322
C41   C     C_3   0.196449 0.290754 0.064739 -0.685798
H3    H     H_    0.205770 0.247795 0.119491 0.224426
H4    H     H_    0.117790 0.330985 0.095668 0.285905
H5    H     H_    0.178873 0.231193 0.012905 0.248616
C42   C     C_3   0.803550 0.709246 0.935262 -0.685799
H6    H     H_    0.794229 0.752206 0.880510 0.224426
H7    H     H_    0.821127 0.768807 0.987096 0.248616
H8    H     H_    0.882210 0.669016 0.904332 0.285905
Cl1   Cl    Cl    0.276453 0.327356 0.356522 -0.656751
Cl2   Cl    Cl    0.723547 0.672644 0.643478 -0.656751
C43   C     C_3   0.991342 0.722334 0.604120 -0.589879
H9    H     H_    0.084147 0.748909 0.564621 0.274777
H10   H     H_    0.940759 0.783223 0.594906 0.250258
H11   H     H_    0.984769 0.720760 0.675979 0.267644
C44   C     C_3   0.008658 0.277666 0.395880 -0.589879
H12   H     H_    0.915853 0.251091 0.435379 0.274777
H13   H     H_    0.015231 0.279239 0.324020 0.267644
H14   H     H_    0.059241 0.216777 0.405094 0.250258
Cl3   Cl    Cl    0.848066 0.603030 0.252177 -0.496778
Cl4   Cl    Cl    0.151934 0.396970 0.747823 -0.496778
Cl5   Cl    Cl    0.071905 0.369360 0.949565 -0.486446
Cl6   Cl    Cl    0.928095 0.630639 0.050435 -0.486446
C45   C     C_3   0.427109 0.293872 0.105386 -0.794602
H15   H     H_    0.521701 0.301366 0.107031 0.255820
H16   H     H_    0.367642 0.287618 0.174105 0.275563
H17   H     H_    0.410236 0.219393 0.067111 0.240497
C46   C     C_3   0.572891 0.706128 0.894614 -0.794602
H18   H     H_    0.632357 0.712382 0.825895 0.275563
H19   H     H_    0.478299 0.698634 0.892968 0.255820
H20   H     H_    0.589763 0.780607 0.932890 0.240497
C47   C     C_3   0.619476 0.196403 0.595463 -0.655481
H21   H     H_    0.567964 0.252272 0.642478 0.191107
H22   H     H_    0.638410 0.141465 0.638156 0.250450
H23   H     H_    0.704218 0.241010 0.555672 0.273309
C48   C     C_3   0.380524 0.803597 0.404537 -0.655481
H24   H     H_    0.432036 0.747728 0.357521 0.191107
H25   H     H_    0.295782 0.758990 0.444328 0.273309
H26   H     H_    0.361590 0.858534 0.361843 0.250450
C49   C     C_3   0.226908 0.165634 0.552987 -0.595261
H27   H     H_    0.157714 0.112473 0.599577 0.259414
H28   H     H_    0.233604 0.240072 0.592903 0.236926
H29   H     H_    0.194436 0.175520 0.495038 0.267178
C50   C     C_3   0.773092 0.834366 0.447013 -0.595261
H30   H     H_    0.842286 0.887527 0.400423 0.259414
H31   H     H_    0.805564 0.824479 0.504962 0.267178
H32   H     H_    0.766395 0.759928 0.407097 0.236925
Cl7   Cl    Cl    0.797580 0.061982 0.496593 -0.656083
Cl8   Cl    Cl    0.202420 0.938018 0.503407 -0.656083
Cl9   Cl    Cl    0.185802 0.620004 0.623235 -0.535733
Cl10  Cl    Cl    0.814198 0.379996 0.376765 -0.535733

loop_
_geom_bond_atom_site_label_1
_geom_bond_atom_site_label_2
_ccdc_geom_bond_type
C24   O6    A    
C41   H3    S    
C49   H27   S    
C5    C37   A    
C1    C8    S    
Cu1   Cu2   S    
C2    C7    S    
C50   H32   S    
C46   H18   S    
C19   N2    A    
C45   H15   S    
C27   C33   A    
C8    C13   A    
C17   C26   A    
C35   C37   A    
C9    C16   A    
C10   C15   A    
Cu2   O7    S    
C33   C35   A    
C45   H17   S    
C24   O8    A    
C15   C16   A    
C50   H30   S    
C30   C38   A    
Cu2   N2    S    
C44   H13   S    
C36   C40   A    
C2    O4    A    
C50   H31   S    
C21   Cl10  S    
C7    C14   A    
C4    C46   S    
C43   H10   S    
C6    C38   A    
C23   C27   S    
C48   H25   S    
C18   C20   A    
C20   N1    A    
C18   C44   S    
C47   H22   S    
C28   C34   A    
C42   H6    S    
C49   H28   S    
C18   C25   A    
C46   H19   S    
C23   O7    A    
C45   H16   S    
C7    C12   A    
C42   H7    S    
C27   C31   A    
C10   Cl8   S    
C4    C6    A    
C39   C40   A    
C1    O1    A    
C31   Cl4   S    
C2    O2    A    
C25   C26   A    
C47   H21   S    
C22   Cl9   S    
C44   H14   S    
C35   C39   A    
C30   Cl6   S    
C23   O5    A    
C4    C39   A    
C28   C32   A    
C19   Cl2   S    
C43   H11   S    
Cu1   O1    S    
Cu2   O2    S    
C48   H26   S    
C9    C11   A    
C10   C12   A    
C3    C40   A    
C49   H29   S    
C41   H4    S    
C14   C16   A    
C12   C49   S    
C3    C45   S    
Cu1   O4    S    
C32   Cl3   S    
C46   H20   S    
C21   N2    A    
C47   H23   S    
C21   C25   A    
C42   H8    S    
C13   C48   S    
C33   H2    S    
C6    C42   S    
C5    C41   S    
C34   H1    S    
C24   C28   S    
C14   C47   S    
C3    C5    A    
C29   Cl5   S    
C17   C43   S    
C11   C50   S    
C20   Cl1   S    
C13   C15   A    
C29   C31   A    
C30   C32   A    
C8    C11   A    
C36   C38   A    
C17   C19   A    
C34   C36   A    
C44   H12   S    
Cu1   O8    S    
Cu2   O3    S    
C22   N1    A    
C9    Cl7   S    
C43   H9    S    
C22   C26   A    
C41   H5    S    
C29   C37   A    
Cu1   N1    S    
C48   H24   S    
C1    O3    A    
Cu1   O5    S    
Cu2   O6    S    
