data_mof_unit_62946.cif
_audit_creation_date              2012-12-10T17:49:23-0500
_audit_creation_method            fapswitch 2.2
_symmetry_space_group_name_H-M    P1
_symmetry_Int_Tables_number       1
_space_group_crystal_system       triclinic
_cell_length_a                    23.529461
_cell_length_b                    23.529428
_cell_length_c                    46.963309
_cell_angle_alpha                 90.00181
_cell_angle_beta                  90.000521
_cell_angle_gamma                 90.000129
_cell_volume                      26000.5202214

loop_
_atom_site_label
_atom_site_type_symbol
_atom_type_description
_atom_site_fract_x
_atom_site_fract_y
_atom_site_fract_z
_atom_type_partial_charge
C1    C     C_R   1.000000 0.390215 0.499999 0.883236
C2    C     C_R   0.609785 0.000000 0.500001 0.883190
C3    C     C_R   1.000000 0.609785 0.500000 0.883249
C4    C     C_R   0.390215 1.000000 0.500001 0.883220
C5    C     C_R   0.499999 0.890215 0.000000 0.883283
C6    C     C_R   0.109785 0.500000 0.000000 0.883234
C7    C     C_R   0.500000 0.109785 0.000001 0.883282
C8    C     C_R   0.890215 0.500000 1.000000 0.883246
C9    C     C_R   0.000000 0.499998 0.354064 0.083246
C10   C     C_R   0.500007 0.999989 0.354064 0.083275
C11   C     C_R   0.000008 0.499993 0.645935 0.083264
C12   C     C_R   0.500009 0.000010 0.645939 0.083292
C13   C     C_R   0.500008 0.000005 0.854068 0.083185
C14   C     C_R   0.000008 0.499988 0.854064 0.083283
C15   C     C_R   0.500008 0.999993 0.145936 0.083271
C16   C     C_R   0.999997 0.500004 0.145935 0.083249
C17   C     C_1   0.999999 0.329760 0.500000 -0.199921
C18   C     C_1   0.670240 0.000000 0.500002 -0.199873
C19   C     C_1   0.999999 0.670240 0.499999 -0.199907
C20   C     C_1   0.329760 1.000000 0.500002 -0.199826
C21   C     C_1   0.499998 0.829760 0.000003 -0.199971
C22   C     C_1   0.170240 0.500001 0.999999 -0.199924
C23   C     C_1   0.499999 0.170240 0.000002 -0.199990
C24   C     C_1   0.829760 0.500001 1.000000 -0.199904
C25   C     C_1   0.999998 0.278832 0.500001 -0.000688
C26   C     C_1   0.721167 0.000000 0.500002 -0.000655
C27   C     C_1   0.999999 0.721167 0.499998 -0.000735
C28   C     C_1   0.278832 1.000000 0.500003 -0.000800
C29   C     C_1   0.499997 0.778832 0.000005 -0.000721
C30   C     C_1   0.221167 0.500001 0.999998 -0.000673
C31   C     C_1   0.499998 0.221167 0.000001 -0.000675
C32   C     C_1   0.778833 0.500001 0.000000 -0.000731
C33   C     C_1   0.999998 0.219310 0.500001 0.000230
C34   C     C_1   0.780690 0.000001 0.500001 0.000214
C35   C     C_1   0.999999 0.780690 0.499998 0.000244
C36   C     C_1   0.219311 1.000000 0.500002 0.000257
C37   C     C_1   0.499997 0.719310 0.000004 0.000251
C38   C     C_1   0.280689 0.500001 0.999998 0.000229
C39   C     C_1   0.499998 0.280689 0.000000 0.000235
C40   C     C_1   0.719310 0.500001 0.000000 0.000244
C41   C     C_1   0.999999 0.168372 0.500001 -0.181101
C42   C     C_1   0.831628 0.000000 0.500000 -0.181083
C43   C     C_1   0.999999 0.831628 0.499999 -0.181093
C44   C     C_1   0.168372 1.000000 0.500001 -0.181063
C45   C     C_1   0.499999 0.668372 0.000002 -0.181126
C46   C     C_1   0.331628 0.500000 0.999999 -0.181107
C47   C     C_1   0.499999 0.331628 0.999999 -0.181132
C48   C     C_1   0.668372 0.500001 0.000000 -0.181100
C49   C     C_R   0.107879 1.000000 0.500000 0.881041
C50   C     C_R   1.000000 0.107879 0.500000 0.881050
C51   C     C_R   0.892121 0.000000 0.500000 0.881050
C52   C     C_R   1.000000 0.892121 0.499999 0.881047
C53   C     C_R   0.607879 0.500000 0.000000 0.881048
C54   C     C_R   0.500000 0.607879 0.000000 0.881053
C55   C     C_R   0.392121 0.500000 1.000000 0.881053
C56   C     C_R   0.500000 0.392121 1.000000 0.881054
C57   C     C_R   0.000000 0.500001 0.444462 0.982880
C58   C     C_R   0.500002 0.999999 0.444462 0.982921
C59   C     C_R   0.000001 0.499997 0.555538 0.982917
C60   C     C_R   0.500002 0.000001 0.555538 0.982785
C61   C     C_R   0.500000 0.000004 0.944463 0.983000
C62   C     C_R   0.000002 0.499999 0.944462 0.982886
C63   C     C_R   0.500001 0.999997 0.055538 0.982883
C64   C     C_R   0.999999 0.500001 0.055538 0.982927
C65   C     C_R   0.036464 0.464568 0.190362 0.502065
C66   C     C_R   0.535436 0.036465 0.190364 0.502069
C67   C     C_R   0.963532 0.535439 0.190364 0.502068
C68   C     C_R   0.464581 0.963518 0.190362 0.502077
C69   C     C_R   0.036498 0.535399 0.809637 0.502074
C70   C     C_R   0.535530 0.963624 0.809639 0.502062
C71   C     C_R   0.963521 0.464574 0.809635 0.502067
C72   C     C_R   0.464487 0.036388 0.809641 0.502076
C73   C     C_R   0.536574 0.964677 0.690365 0.502059
C74   C     C_R   0.035442 0.536459 0.690364 0.502072
C75   C     C_R   0.463448 0.035347 0.690367 0.502054
C76   C     C_R   0.964575 0.463523 0.690362 0.502078
C77   C     C_R   0.536491 0.035407 0.309638 0.502075
C78   C     C_R   0.035418 0.463516 0.309636 0.502064
C79   C     C_R   0.463526 0.964570 0.309636 0.502069
C80   C     C_R   0.964579 0.536479 0.309638 0.502067
C81   C     C_R   0.963064 0.536534 0.220104 -0.021763
C82   C     C_R   0.463483 0.963050 0.220102 -0.021767
C83   C     C_R   0.036932 0.463470 0.220102 -0.021763
C84   C     C_R   0.536536 0.036930 0.220104 -0.021763
C85   C     C_R   0.963055 0.463476 0.779895 -0.021764
C86   C     C_R   0.463391 0.036857 0.779900 -0.021766
C87   C     C_R   0.036965 0.536498 0.779897 -0.021766
C88   C     C_R   0.536628 0.963160 0.779899 -0.021757
C89   C     C_R   0.462976 0.036441 0.720107 -0.021759
C90   C     C_R   0.963477 0.463055 0.720102 -0.021767
C91   C     C_R   0.537046 0.963582 0.720105 -0.021762
C92   C     C_R   0.036542 0.536923 0.720104 -0.021763
C93   C     C_R   0.463060 0.963471 0.279896 -0.021763
C94   C     C_R   0.963482 0.536949 0.279898 -0.021764
C95   C     C_R   0.536958 0.036506 0.279898 -0.021767
C96   C     C_R   0.036514 0.463048 0.279896 -0.021762
C97   C     C_R   0.999998 0.500001 0.235033 -0.022010
C98   C     C_R   0.500009 0.999990 0.235033 -0.022010
C99   C     C_R   0.000010 0.499987 0.764966 -0.022010
C100  C     C_R   0.500010 0.000009 0.764970 -0.022012
C101  C     C_R   0.500011 0.000011 0.735036 -0.022007
C102  C     C_R   0.000010 0.499989 0.735033 -0.022011
C103  C     C_R   0.500009 0.999989 0.264966 -0.022011
C104  C     C_R   0.999998 0.500000 0.264966 -0.022009
C105  C     C_R   0.926688 0.573013 0.235176 -0.165816
C106  C     C_R   0.427005 0.926671 0.235172 -0.165817
C107  C     C_R   0.073308 0.426989 0.235172 -0.165817
C108  C     C_R   0.573013 0.073309 0.235176 -0.165816
C109  C     C_R   0.926661 0.427014 0.764823 -0.165817
C110  C     C_R   0.426826 0.073148 0.764830 -0.165818
C111  C     C_R   0.073359 0.572961 0.764827 -0.165818
C112  C     C_R   0.573194 0.926871 0.764827 -0.165816
C113  C     C_R   0.426498 0.072819 0.735179 -0.165816
C114  C     C_R   0.926994 0.426682 0.735172 -0.165817
C115  C     C_R   0.573523 0.927203 0.735176 -0.165818
C116  C     C_R   0.073025 0.573296 0.735176 -0.165815
C117  C     C_R   0.426672 0.927003 0.264823 -0.165816
C118  C     C_R   0.927018 0.573342 0.264827 -0.165817
C119  C     C_R   0.573346 0.072974 0.264827 -0.165818
C120  C     C_R   0.072978 0.426657 0.264823 -0.165816
C121  C     C_R   0.961325 0.465085 0.368837 0.132733
C122  C     C_R   0.534903 0.961300 0.368838 0.132675
C123  C     C_R   0.038678 0.534909 0.368838 0.132693
C124  C     C_R   0.465106 0.038678 0.368836 0.132718
C125  C     C_R   0.961333 0.534908 0.631164 0.132732
C126  C     C_R   0.534839 0.038758 0.631165 0.132655
C127  C     C_R   0.038684 0.465082 0.631161 0.132675
C128  C     C_R   0.465173 0.961264 0.631166 0.132692
C129  C     C_R   0.461428 0.964986 0.868840 0.132818
C130  C     C_R   0.034897 0.461294 0.868837 0.132666
C131  C     C_R   0.538593 0.035019 0.868842 0.132711
C132  C     C_R   0.965113 0.538682 0.868836 0.132708
C133  C     C_R   0.461328 0.034903 0.131164 0.132724
C134  C     C_R   0.034925 0.538665 0.131163 0.132719
C135  C     C_R   0.538689 0.965088 0.131161 0.132669
C136  C     C_R   0.965069 0.461341 0.131162 0.132704
C137  C     C_R   0.963047 0.463522 0.398652 0.354918
C138  C     C_R   0.536465 0.963022 0.398653 0.354944
C139  C     C_R   0.036958 0.536474 0.398653 0.354938
C140  C     C_R   0.463540 0.036961 0.398651 0.354914
C141  C     C_R   0.963051 0.536473 0.601349 0.354905
C142  C     C_R   0.536405 0.037037 0.601349 0.354980
C143  C     C_R   0.036963 0.463521 0.601345 0.354941
C144  C     C_R   0.463602 0.962979 0.601351 0.354951
C145  C     C_R   0.463152 0.963426 0.898654 0.354848
C146  C     C_R   0.036459 0.463015 0.898653 0.354948
C147  C     C_R   0.536866 0.036577 0.898658 0.354909
C148  C     C_R   0.963548 0.536967 0.898651 0.354922
C149  C     C_R   0.463046 0.036469 0.101349 0.354909
C150  C     C_R   0.036490 0.536942 0.101347 0.354914
C151  C     C_R   0.536968 0.963526 0.101346 0.354943
C152  C     C_R   0.963506 0.463062 0.101346 0.354922
C153  C     C_R   0.000001 0.500000 0.413457 -0.353032
C154  C     C_R   0.500003 0.999995 0.413457 -0.353020
C155  C     C_R   0.000004 0.499996 0.586543 -0.353002
C156  C     C_R   0.500004 0.000005 0.586545 -0.353080
C157  C     C_R   0.500004 0.000005 0.913460 -0.352984
C158  C     C_R   0.000004 0.499995 0.913456 -0.353011
C159  C     C_R   0.500004 0.999996 0.086543 -0.352993
C160  C     C_R   0.999998 0.500002 0.086543 -0.353015
H1    H     H_    0.898002 0.601477 0.224131 0.189629
H2    H     H_    0.398546 0.897981 0.224126 0.189629
H3    H     H_    0.101994 0.398527 0.224126 0.189629
H4    H     H_    0.601471 0.101999 0.224132 0.189628
H5    H     H_    0.897959 0.398567 0.775868 0.189628
H6    H     H_    0.398295 0.101766 0.775876 0.189629
H7    H     H_    0.102061 0.601408 0.775873 0.189629
H8    H     H_    0.601724 0.898250 0.775872 0.189628
H9    H     H_    0.397733 0.101202 0.724134 0.189629
H10   H     H_    0.898530 0.397997 0.724126 0.189629
H11   H     H_    0.602289 0.898820 0.724130 0.189630
H12   H     H_    0.101489 0.601982 0.724131 0.189628
H13   H     H_    0.397975 0.898551 0.275868 0.189628
H14   H     H_    0.898568 0.602040 0.275873 0.189630
H15   H     H_    0.602043 0.101426 0.275874 0.189628
H16   H     H_    0.101428 0.397958 0.275868 0.189629
N1    N     N_R   0.999998 0.500004 0.176293 -0.333101
N2    N     N_R   0.500008 0.999992 0.176294 -0.333107
N3    N     N_R   0.000010 0.499987 0.823706 -0.333106
N4    N     N_R   0.500008 0.000006 0.823709 -0.333102
N5    N     N_R   0.500011 0.000012 0.676297 -0.333093
N6    N     N_R   0.000008 0.499991 0.676294 -0.333108
N7    N     N_R   0.500009 0.999988 0.323706 -0.333106
N8    N     N_R   0.999999 0.499997 0.323706 -0.333100
O1    O     O_R   0.953170 0.417210 0.499940 -0.619944
O2    O     O_R   0.582790 0.953170 0.499940 -0.620003
O3    O     O_R   0.046830 0.582790 0.499940 -0.620017
O4    O     O_R   0.417210 0.046830 0.499940 -0.619962
O5    O     O_R   0.953170 0.582790 0.500060 -0.619956
O6    O     O_R   0.582790 0.046830 0.500060 -0.620096
O7    O     O_R   0.046830 0.417210 0.500060 -0.620047
O8    O     O_R   0.417210 0.953170 0.500060 -0.620063
O9    O     O_R   0.453170 0.917210 0.999940 -0.619746
O10   O     O_R   0.082790 0.453170 0.999940 -0.620075
O11   O     O_R   0.546830 0.082790 0.999940 -0.619908
O12   O     O_R   0.917210 0.546830 0.999940 -0.619998
O13   O     O_R   0.453170 0.082790 0.000060 -0.619998
O14   O     O_R   0.082790 0.546830 0.000060 -0.619925
O15   O     O_R   0.546830 0.917210 0.000060 -0.620128
O16   O     O_R   0.917210 0.453170 0.000060 -0.619976
O17   O     O_R   0.953160 0.500010 0.458010 -0.591801
O18   O     O_R   0.499990 0.953160 0.458010 -0.591769
O19   O     O_R   0.046840 0.499990 0.458010 -0.591789
O20   O     O_R   0.500010 0.046840 0.458010 -0.591775
O21   O     O_R   0.953160 0.499990 0.541990 -0.591802
O22   O     O_R   0.499990 0.046840 0.541990 -0.591714
O23   O     O_R   0.046840 0.500010 0.541990 -0.591785
O24   O     O_R   0.500010 0.953160 0.541990 -0.591718
O25   O     O_R   0.453160 0.000010 0.958010 -0.591917
O26   O     O_R   0.999990 0.453160 0.958010 -0.591767
O27   O     O_R   0.546840 0.999990 0.958010 -0.591886
O28   O     O_R   0.000010 0.546840 0.958010 -0.591780
O29   O     O_R   0.453160 0.999990 0.041990 -0.591811
O30   O     O_R   0.999990 0.546840 0.041990 -0.591816
O31   O     O_R   0.546840 0.000010 0.041990 -0.591786
O32   O     O_R   0.000010 0.453160 0.041990 -0.591804
O33   O     O_2   0.072197 0.430839 0.175536 -0.578527
O34   O     O_2   0.569154 0.072210 0.175540 -0.578533
O35   O     O_2   0.927799 0.569169 0.175539 -0.578525
O36   O     O_2   0.430861 0.927776 0.175536 -0.578517
O37   O     O_2   0.072255 0.569104 0.824463 -0.578519
O38   O     O_2   0.569342 0.927969 0.824464 -0.578539
O39   O     O_2   0.927763 0.430871 0.824459 -0.578534
O40   O     O_2   0.430672 0.072039 0.824466 -0.578510
O41   O     O_2   0.572399 0.931046 0.675540 -0.578521
O42   O     O_2   0.069166 0.572198 0.675540 -0.578532
O43   O     O_2   0.427622 0.068978 0.675542 -0.578534
O44   O     O_2   0.930849 0.427787 0.675536 -0.578518
O45   O     O_2   0.572242 0.069117 0.324464 -0.578520
O46   O     O_2   0.069131 0.427767 0.324460 -0.578530
O47   O     O_2   0.427774 0.930860 0.324460 -0.578532
O48   O     O_2   0.930866 0.572227 0.324463 -0.578523
O49   O     O_R   0.081480 0.000000 0.475630 -0.607358
O50   O     O_R   0.000000 0.081480 0.475630 -0.607356
O51   O     O_R   0.918520 0.000000 0.475630 -0.607357
O52   O     O_R   1.000000 0.918520 0.475630 -0.607355
O53   O     O_R   0.081480 0.000000 0.524370 -0.607347
O54   O     O_R   1.000000 0.918520 0.524370 -0.607353
O55   O     O_R   0.918520 0.000000 0.524370 -0.607348
O56   O     O_R   0.000000 0.081480 0.524370 -0.607351
O57   O     O_R   0.581480 0.500000 0.975630 -0.607355
O58   O     O_R   0.500000 0.581480 0.975630 -0.607366
O59   O     O_R   0.418520 0.500000 0.975630 -0.607356
O60   O     O_R   0.500000 0.418520 0.975630 -0.607363
O61   O     O_R   0.581480 0.500000 0.024370 -0.607356
O62   O     O_R   0.500000 0.418520 0.024370 -0.607350
O63   O     O_R   0.418520 0.500000 0.024370 -0.607357
O64   O     O_R   0.500000 0.581480 0.024370 -0.607349
Zn1   Zn    Zn3+2 0.937490 0.500000 0.500000 0.996837
Zn2   Zn    Zn3+2 0.500000 0.937490 0.500000 0.996774
Zn3   Zn    Zn3+2 0.062510 0.500000 0.500000 0.996784
Zn4   Zn    Zn3+2 0.500000 0.062510 0.500000 0.996777
Zn5   Zn    Zn3+2 0.437490 0.000000 0.000000 0.996905
Zn6   Zn    Zn3+2 0.000000 0.437490 0.000000 0.996796
Zn7   Zn    Zn3+2 0.562510 0.000000 0.000000 0.996808
Zn8   Zn    Zn3+2 0.000000 0.562510 0.000000 0.996838
Zn9   Zn    Zn3+2 0.000000 0.000000 0.468500 0.978297
Zn10  Zn    Zn3+2 0.000000 1.000000 0.531500 0.978317
Zn11  Zn    Zn3+2 0.500000 0.500000 0.968500 0.978271
Zn12  Zn    Zn3+2 0.500000 0.500000 0.031500 0.978293
N9    N     N_2   0.922302 0.429529 0.353892 -0.291717
H17   H     H_    0.934860 0.417383 0.333769 0.231866
C161  C     C_3   0.863756 0.448202 0.354792 -0.690474
H18   H     H_    0.836421 0.416306 0.344020 0.221276
H19   H     H_    0.859119 0.489550 0.343633 0.257964
H20   H     H_    0.848876 0.452636 0.377112 0.272656
N10   N     N_2   0.570435 0.922256 0.353892 -0.291838
H21   H     H_    0.582584 0.934803 0.333769 0.231861
C162  C     C_3   0.551737 0.863718 0.354796 -0.690481
H22   H     H_    0.583623 0.836366 0.344029 0.221279
H23   H     H_    0.510389 0.859095 0.343635 0.258007
H24   H     H_    0.547293 0.848847 0.377117 0.272668
N11   N     N_2   0.077709 0.570455 0.353892 -0.291784
H25   H     H_    0.065153 0.582600 0.333769 0.231865
C163  C     C_3   0.136252 0.551773 0.354794 -0.690488
H26   H     H_    0.163592 0.583664 0.344024 0.221280
H27   H     H_    0.140883 0.510424 0.343634 0.257984
H28   H     H_    0.151129 0.547339 0.377115 0.272661
N12   N     N_2   0.429564 0.077710 0.353890 -0.291744
H29   H     H_    0.417417 0.065155 0.333767 0.231857
C164  C     C_3   0.448251 0.136252 0.354792 -0.690457
H30   H     H_    0.416360 0.163595 0.344023 0.221276
H31   H     H_    0.489598 0.140879 0.343631 0.257977
H32   H     H_    0.452693 0.151129 0.377113 0.272658
N13   N     N_2   0.922314 0.570467 0.646111 -0.291729
H33   H     H_    0.934874 0.582607 0.666234 0.231857
C165  C     C_3   0.863765 0.551805 0.645208 -0.690454
H34   H     H_    0.836435 0.583706 0.655978 0.221272
H35   H     H_    0.859119 0.510458 0.656368 0.257975
H36   H     H_    0.848887 0.547372 0.622887 0.272659
N14   N     N_2   0.570301 0.077867 0.646110 -0.291822
H37   H     H_    0.582476 0.065339 0.666233 0.231877
C166  C     C_3   0.551488 0.136368 0.645210 -0.690516
H38   H     H_    0.583319 0.163780 0.655980 0.221294
H39   H     H_    0.510130 0.140907 0.656370 0.257983
H40   H     H_    0.547017 0.151235 0.622889 0.272659
N15   N     N_2   0.077715 0.429535 0.646106 -0.291839
H41   H     H_    0.065162 0.417392 0.666230 0.231859
C167  C     C_3   0.136260 0.448210 0.645202 -0.690482
H42   H     H_    0.163599 0.416315 0.655969 0.221277
H43   H     H_    0.140899 0.489557 0.656362 0.258009
H44   H     H_    0.151133 0.452647 0.622880 0.272669
N16   N     N_2   0.429703 0.922165 0.646112 -0.291737
H45   H     H_    0.417531 0.934700 0.666234 0.231872
C168  C     C_3   0.448506 0.863660 0.645213 -0.690496
H46   H     H_    0.416669 0.836256 0.655982 0.221293
H47   H     H_    0.489862 0.859117 0.656376 0.257953
H48   H     H_    0.452979 0.848789 0.622893 0.272651
N17   N     N_2   0.422515 0.929310 0.853894 -0.291598
H49   H     H_    0.435112 0.917197 0.833773 0.231858
C169  C     C_3   0.363912 0.947806 0.854791 -0.690430
H50   H     H_    0.336675 0.915825 0.844021 0.221263
H51   H     H_    0.359152 0.989136 0.843629 0.257932
H52   H     H_    0.349015 0.952201 0.877111 0.272646
N18   N     N_2   0.070423 0.422243 0.853892 -0.291846
H53   H     H_    0.082573 0.434788 0.833768 0.231862
C170  C     C_3   0.051713 0.363708 0.854796 -0.690478
H54   H     H_    0.083596 0.336350 0.844030 0.221284
H55   H     H_    0.010366 0.359093 0.843634 0.258008
H56   H     H_    0.047263 0.348840 0.877117 0.272670
N19   N     N_2   0.577530 0.070668 0.853897 -0.291801
H57   H     H_    0.564945 0.082780 0.833774 0.231860
C171  C     C_3   0.636124 0.052146 0.854802 -0.690477
H58   H     H_    0.663379 0.084111 0.844032 0.221269
H59   H     H_    0.640869 0.010810 0.843642 0.257998
H60   H     H_    0.651011 0.047753 0.877123 0.272668
N20   N     N_2   0.929578 0.577721 0.853889 -0.291749
H61   H     H_    0.917429 0.565166 0.833766 0.231857
C172  C     C_3   0.948276 0.636259 0.854790 -0.690453
H62   H     H_    0.916389 0.663607 0.844022 0.221279
H63   H     H_    0.989623 0.640878 0.843629 0.257978
H64   H     H_    0.952722 0.651135 0.877111 0.272659
N21   N     N_2   0.422305 0.070456 0.146111 -0.291733
H65   H     H_    0.434863 0.082600 0.166234 0.231857
C173  C     C_3   0.363758 0.051785 0.145209 -0.690448
H66   H     H_    0.336423 0.083683 0.155978 0.221274
H67   H     H_    0.359119 0.010439 0.156370 0.257975
H68   H     H_    0.348881 0.047346 0.122888 0.272658
N22   N     N_2   0.070494 0.577676 0.146109 -0.291741
H69   H     H_    0.082633 0.565115 0.166232 0.231864
C174  C     C_3   0.051845 0.636230 0.145208 -0.690473
H70   H     H_    0.083750 0.663553 0.155979 0.221278
H71   H     H_    0.010497 0.640884 0.156366 0.257971
H72   H     H_    0.047419 0.651109 0.122887 0.272656
N23   N     N_2   0.577726 0.929547 0.146107 -0.291841
H73   H     H_    0.565175 0.917403 0.166230 0.231860
C175  C     C_3   0.636268 0.948232 0.145202 -0.690476
H74   H     H_    0.663612 0.916341 0.155969 0.221278
H75   H     H_    0.640900 0.989580 0.156363 0.258009
H76   H     H_    0.651139 0.952672 0.122881 0.272669
N24   N     N_2   0.929503 0.422329 0.146107 -0.291772
H77   H     H_    0.917362 0.434891 0.166229 0.231865
C176  C     C_3   0.948155 0.363776 0.145205 -0.690477
H78   H     H_    0.916249 0.336452 0.155974 0.221279
H79   H     H_    0.989500 0.359124 0.156365 0.257978
H80   H     H_    0.952586 0.348896 0.122884 0.272660
O65   O     O_3   0.927931 0.426680 0.413435 -0.613555
C177  C     C_3   0.954683 0.373013 0.414902 0.108453
H81   H     H_    0.995326 0.376045 0.427019 0.117537
H82   H     H_    0.963578 0.356125 0.393174 0.163567
C178  C     C_3   0.915396 0.331383 0.430238 -0.320066
H83   H     H_    0.909458 0.345432 0.452635 0.233472
H84   H     H_    0.873181 0.331023 0.419609 0.235346
C179  C     C_3   0.939748 0.271257 0.429950 -0.943401
H85   H     H_    0.941764 0.254908 0.407784 0.267708
H86   H     H_    0.912086 0.242705 0.442688 0.271892
H87   H     H_    0.983141 0.270828 0.439228 0.270014
O66   O     O_3   0.573272 0.927876 0.413441 -0.613570
C180  C     C_3   0.626981 0.954549 0.414886 0.108337
H88   H     H_    0.624003 0.995289 0.426926 0.117530
H89   H     H_    0.643917 0.963248 0.393149 0.163741
C181  C     C_3   0.668512 0.915303 0.430315 -0.320108
H90   H     H_    0.654405 0.909553 0.452713 0.233535
H91   H     H_    0.668820 0.873008 0.419763 0.235327
C182  C     C_3   0.728679 0.939550 0.430015 -0.943411
H92   H     H_    0.745087 0.941355 0.407856 0.267709
H93   H     H_    0.757152 0.911942 0.442828 0.271895
H94   H     H_    0.729162 0.983017 0.439206 0.270006
O67   O     O_3   0.072085 0.573304 0.413439 -0.613564
C183  C     C_3   0.045371 0.626991 0.414891 0.108384
H95   H     H_    0.004675 0.623988 0.426965 0.117541
H96   H     H_    0.036582 0.643900 0.393157 0.163667
C184  C     C_3   0.084631 0.668575 0.430277 -0.320095
H97   H     H_    0.090467 0.654501 0.452676 0.233501
H98   H     H_    0.126890 0.668909 0.419691 0.235338
C185  C     C_3   0.060330 0.728721 0.429979 -0.943399
H99   H     H_    0.058422 0.745094 0.407816 0.267706
H100  H     H_    0.087964 0.757238 0.442755 0.271894
H101  H     H_    0.016900 0.729179 0.439212 0.270015
O68   O     O_3   0.426709 0.072090 0.413434 -0.613551
C186  C     C_3   0.373030 0.045361 0.414896 0.108438
H102  H     H_    0.376045 0.004697 0.426996 0.117542
H103  H     H_    0.356132 0.036508 0.393166 0.163593
C187  C     C_3   0.331424 0.084643 0.430252 -0.320079
H104  H     H_    0.345490 0.090551 0.452647 0.233502
H105  H     H_    0.331070 0.126871 0.419635 0.235332
C188  C     C_3   0.271291 0.060310 0.429967 -0.943417
H106  H     H_    0.254930 0.058312 0.407803 0.267706
H107  H     H_    0.242753 0.087973 0.442714 0.271896
H108  H     H_    0.270853 0.016912 0.439237 0.270018
O69   O     O_3   0.927937 0.573319 0.586567 -0.613561
C189  C     C_3   0.954691 0.626985 0.585103 0.108438
H109  H     H_    0.995338 0.623954 0.572989 0.117551
H110  H     H_    0.963581 0.643870 0.606832 0.163570
C190  C     C_3   0.915410 0.668618 0.569766 -0.320076
H111  H     H_    0.909467 0.654566 0.547370 0.233485
H112  H     H_    0.873196 0.668988 0.580396 0.235339
C191  C     C_3   0.939773 0.728739 0.570051 -0.943398
H113  H     H_    0.941813 0.745086 0.592216 0.267705
H114  H     H_    0.912105 0.757298 0.557319 0.271899
H115  H     H_    0.983157 0.729161 0.560764 0.270016
O70   O     O_3   0.573157 0.072241 0.586563 -0.613522
C192  C     C_3   0.626905 0.045649 0.585115 0.108402
H116  H     H_    0.623980 0.004881 0.573095 0.117484
H117  H     H_    0.643877 0.037019 0.606852 0.163758
C193  C     C_3   0.668357 0.084928 0.569655 -0.320128
H118  H     H_    0.654215 0.090613 0.547257 0.233580
H119  H     H_    0.668614 0.127244 0.580186 0.235317
C194  C     C_3   0.728562 0.060773 0.569948 -0.943458
H120  H     H_    0.745001 0.059039 0.592102 0.267722
H121  H     H_    0.756976 0.088398 0.557111 0.271886
H122  H     H_    0.729098 0.017288 0.560778 0.270014
O71   O     O_3   0.072096 0.426702 0.586557 -0.613579
C195  C     C_3   0.045407 0.373002 0.585113 0.108326
H123  H     H_    0.004674 0.375989 0.573068 0.117539
H124  H     H_    0.036690 0.356074 0.606850 0.163738
C196  C     C_3   0.084647 0.331453 0.569692 -0.320110
H125  H     H_    0.090411 0.345548 0.547293 0.233520
H126  H     H_    0.126937 0.331136 0.580248 0.235331
C197  C     C_3   0.060382 0.271292 0.569995 -0.943385
H127  H     H_    0.058564 0.254894 0.592155 0.267706
H128  H     H_    0.087987 0.242806 0.557186 0.271896
H129  H     H_    0.016918 0.270819 0.560800 0.270008
O72   O     O_3   0.426827 0.927789 0.586569 -0.613507
C198  C     C_3   0.373106 0.954432 0.585105 0.108494
H130  H     H_    0.376064 0.995131 0.573031 0.117491
H131  H     H_    0.356170 0.963202 0.606836 0.163625
C199  C     C_3   0.331586 0.915117 0.569712 -0.320093
H132  H     H_    0.345688 0.909293 0.547316 0.233544
H133  H     H_    0.331294 0.872861 0.580301 0.235326
C200  C     C_3   0.271410 0.939344 0.569994 -0.943462
H134  H     H_    0.255018 0.941253 0.592154 0.267718
H135  H     H_    0.242936 0.911666 0.557219 0.271885
H136  H     H_    0.270907 0.982766 0.560753 0.270026
O73   O     O_3   0.428152 0.926469 0.913434 -0.613594
C201  C     C_3   0.455101 0.872902 0.914919 0.108492
H137  H     H_    0.495600 0.876065 0.927148 0.117610
H138  H     H_    0.464307 0.856121 0.893202 0.163357
C202  C     C_3   0.415823 0.831053 0.930111 -0.319991
H139  H     H_    0.409590 0.844985 0.952506 0.233342
H140  H     H_    0.373723 0.830565 0.919368 0.235386
C203  C     C_3   0.440420 0.771026 0.929825 -0.943314
H141  H     H_    0.442759 0.754786 0.907647 0.267690
H142  H     H_    0.412727 0.742303 0.942450 0.271907
H143  H     H_    0.483705 0.770730 0.939226 0.270008
O74   O     O_3   0.073259 0.427862 0.913441 -0.613567
C204  C     C_3   0.126973 0.454524 0.914885 0.108339
H144  H     H_    0.124004 0.495270 0.926921 0.117524
H145  H     H_    0.143915 0.463209 0.893148 0.163750
C205  C     C_3   0.168492 0.415274 0.930320 -0.320111
H146  H     H_    0.154381 0.409539 0.952719 0.233539
H147  H     H_    0.168791 0.372975 0.919773 0.235327
C206  C     C_3   0.228665 0.439507 0.930019 -0.943424
H148  H     H_    0.245077 0.441296 0.907861 0.267708
H149  H     H_    0.257129 0.411897 0.942837 0.271892
H150  H     H_    0.229157 0.482978 0.939205 0.270012
O75   O     O_3   0.571904 0.073488 0.913446 -0.613626
C207  C     C_3   0.545074 0.127118 0.914891 0.108285
H151  H     H_    0.504416 0.124039 0.926992 0.117612
H152  H     H_    0.536191 0.143975 0.893157 0.163654
C208  C     C_3   0.584279 0.168817 0.930235 -0.320068
H153  H     H_    0.590201 0.154797 0.952636 0.233429
H154  H     H_    0.626512 0.169224 0.919623 0.235356
C209  C     C_3   0.559846 0.228909 0.929923 -0.943316
H155  H     H_    0.557852 0.245238 0.907754 0.267688
H156  H     H_    0.587445 0.257510 0.942670 0.271906
H157  H     H_    0.516435 0.229289 0.939181 0.270001
O76   O     O_3   0.926722 0.572102 0.913433 -0.613548
C210  C     C_3   0.873039 0.545380 0.914895 0.108439
H158  H     H_    0.876048 0.504713 0.926992 0.117538
H159  H     H_    0.856138 0.536536 0.893164 0.163596
C211  C     C_3   0.831442 0.584666 0.930254 -0.320083
H160  H     H_    0.845512 0.590568 0.952649 0.233508
H161  H     H_    0.831091 0.626896 0.919639 0.235329
C212  C     C_3   0.771305 0.560339 0.929970 -0.943434
H162  H     H_    0.754942 0.558345 0.907807 0.267705
H163  H     H_    0.742772 0.588005 0.942719 0.271896
H164  H     H_    0.770864 0.516941 0.939239 0.270021
O77   O     O_3   0.427928 0.073310 0.086567 -0.613555
C213  C     C_3   0.454675 0.126980 0.085104 0.108444
H165  H     H_    0.495325 0.123954 0.072992 0.117546
H166  H     H_    0.463559 0.143867 0.106833 0.163572
C214  C     C_3   0.415392 0.168607 0.069764 -0.320076
H167  H     H_    0.409456 0.154554 0.047368 0.233483
H168  H     H_    0.373175 0.168972 0.080392 0.235337
C215  C     C_3   0.439748 0.228732 0.070050 -0.943408
H169  H     H_    0.441778 0.245080 0.092216 0.267703
H170  H     H_    0.412080 0.257287 0.057315 0.271894
H171  H     H_    0.483135 0.229159 0.060767 0.270019
O78   O     O_3   0.073346 0.572043 0.086564 -0.613567
C216  C     C_3   0.127009 0.545282 0.085106 0.108410
H172  H     H_    0.123973 0.504626 0.072999 0.117558
H173  H     H_    0.143891 0.536406 0.106836 0.163597
C217  C     C_3   0.168648 0.584546 0.069761 -0.320068
H174  H     H_    0.154602 0.590468 0.047364 0.233472
H175  H     H_    0.169017 0.626770 0.080382 0.235346
C218  C     C_3   0.228768 0.560180 0.070055 -0.943382
H176  H     H_    0.245115 0.558174 0.092221 0.267702
H177  H     H_    0.257329 0.587828 0.057313 0.271901
H178  H     H_    0.229190 0.516782 0.060783 0.270008
O79   O     O_3   0.572106 0.926712 0.086558 -0.613575
C219  C     C_3   0.545425 0.873007 0.085114 0.108334
H179  H     H_    0.504690 0.875989 0.073071 0.117535
H180  H     H_    0.536716 0.856078 0.106851 0.163740
C220  C     C_3   0.584669 0.831465 0.069691 -0.320111
H181  H     H_    0.590427 0.845563 0.047291 0.233521
H182  H     H_    0.626961 0.831155 0.080244 0.235330
C221  C     C_3   0.560414 0.771301 0.069994 -0.943397
H183  H     H_    0.558604 0.754901 0.092154 0.267706
H184  H     H_    0.588021 0.742820 0.057184 0.271891
H185  H     H_    0.516949 0.770821 0.060801 0.270014
O80   O     O_3   0.926658 0.427954 0.086560 -0.613569
C222  C     C_3   0.872986 0.454699 0.085107 0.108378
H186  H     H_    0.876011 0.495376 0.073020 0.117553
H187  H     H_    0.856091 0.463528 0.106840 0.163643
C223  C     C_3   0.831370 0.415445 0.069739 -0.320080
H188  H     H_    0.845429 0.409570 0.047340 0.233483
H189  H     H_    0.831014 0.373200 0.080338 0.235343
C224  C     C_3   0.771239 0.439784 0.070037 -0.943378
H190  H     H_    0.754878 0.441731 0.092202 0.267701
H191  H     H_    0.742698 0.412153 0.057273 0.271898
H192  H     H_    0.770804 0.483203 0.060791 0.270009

loop_
_geom_bond_atom_site_label_1
_geom_bond_atom_site_label_2
_ccdc_geom_bond_type
C186  C187  S    
C196  H125  S    
O65   C177  S    
C76   O44   S    
C172  H63   S    
C204  H144  S    
O29   Zn5   S    
N14   H37   S    
C34   C42   T    
N16   C168  S    
C14   C132  A    
N21   H65   S    
C164  H32   S    
C108  H4    S    
C143  O71   S    
C54   O58   A    
C5    O9    A    
C68   O36   S    
C91   C101  A    
C10   C124  A    
C188  H107  S    
C218  H177  S    
C12   C126  A    
O14   Zn8   S    
C72   O40   S    
C181  H90   S    
C30   C38   S    
C177  C178  S    
C137  O65   S    
C74   C92   A    
O4    Zn4   S    
C201  C202  S    
O25   Zn5   S    
C132  N20   S    
C163  H26   S    
C78   C96   A    
C202  H140  S    
C46   C55   S    
C9    C121  A    
C165  H35   S    
C3    C19   S    
O22   Zn4   S    
C129  C145  A    
C92   C102  A    
C180  C181  S    
C89   C101  A    
C138  C154  A    
N17   C169  S    
C58   O20   A    
C192  H117  S    
C82   C98   A    
C96   C120  A    
O66   C180  S    
C176  H79   S    
C176  H78   S    
C178  C179  S    
C125  N13   S    
C206  H148  S    
C161  H18   S    
C194  H122  S    
C49   O53   A    
C173  H67   S    
C200  H136  S    
C20   C28   T    
C27   C35   S    
C21   C29   T    
C215  H171  S    
C23   C31   T    
C7    O13   A    
C170  H56   S    
C185  H100  S    
C24   C32   T    
C73   N5    A    
C12   N5    S    
C219  H179  S    
C137  C153  A    
C127  C143  A    
C128  C144  A    
C79   O47   S    
C150  C160  A    
C191  H114  S    
C211  H161  S    
C162  H23   S    
C204  C205  S    
C105  C118  A    
C36   C44   T    
C185  H101  S    
C111  H7    S    
C213  H165  S    
C37   C45   T    
C184  H97   S    
C107  C120  A    
C6    O10   A    
C217  H174  S    
C52   O52   A    
C39   C47   T    
C14   C130  A    
C117  H13   S    
C40   C48   T    
C148  O76   S    
C201  H138  S    
C86   C110  A    
C2    O6    A    
C10   C122  A    
C3    O3    A    
O49   Zn9   S    
C182  H92   S    
C221  H183  S    
C12   C128  A    
C1    O1    A    
C166  H40   S    
C211  C212  S    
C77   O45   S    
C181  C182  S    
C17   C25   T    
C193  H118  S    
C4    O4    A    
C150  O78   S    
C33   C41   T    
N13   C165  S    
C9    N8    S    
C190  H111  S    
C65   O33   S    
O15   Zn7   S    
C209  H155  S    
O8    Zn2   S    
C220  H181  S    
C75   O43   S    
C77   N7    A    
C78   N8    A    
N12   C164  S    
O3    Zn3   S    
O73   C201  S    
C197  H128  S    
C187  H104  S    
O1    Zn1   S    
C173  H66   S    
C4    C20   S    
C5    C21   S    
C58   O18   A    
N19   H57   S    
O53   Zn10  S    
C62   O28   A    
C134  N22   S    
C152  O80   S    
O16   Zn6   S    
C183  H95   S    
C198  H131  S    
O28   Zn8   S    
C222  H187  S    
C194  H120  S    
C63   C159  S    
C220  C221  S    
C16   C134  A    
C93   C103  A    
C221  H185  S    
C184  H98   S    
O69   C189  S    
C196  H126  S    
C212  H162  S    
C51   O51   A    
O70   C192  S    
N14   C166  S    
C53   O57   A    
C208  H154  S    
N9    H17   S    
C222  C223  S    
C43   C52   S    
C11   C125  A    
C219  C220  S    
C123  C139  A    
C179  H85   S    
C170  H55   S    
C121  C137  A    
O61   Zn12  S    
C90   C102  A    
C145  O73   S    
C125  C141  A    
O74   C204  S    
C168  H47   S    
O7    Zn3   S    
C205  C206  S    
C131  C147  A    
C35   C43   T    
C69   O37   S    
C217  C218  S    
C52   O54   A    
C119  H15   S    
C90   C114  A    
C56   O60   A    
C216  H172  S    
N15   C167  S    
C93   C117  A    
C80   O48   S    
O31   Zn7   S    
C95   C103  A    
C174  H71   S    
C48   C53   S    
C81   C105  A    
O30   Zn8   S    
C193  C194  S    
C163  H28   S    
O62   Zn12  S    
C190  C191  S    
N20   C172  S    
C129  N17   S    
C128  N16   S    
C171  H59   S    
C151  C159  A    
C144  C156  A    
C11   C127  A    
C138  O66   S    
C166  H38   S    
C85   C99   A    
C167  H43   S    
C143  C155  A    
C215  H170  S    
C224  H190  S    
C62   O26   A    
C191  H113  S    
C177  H82   S    
C136  N24   S    
C109  C114  A    
C183  C184  S    
O19   Zn3   S    
C195  H123  S    
C107  H3    S    
C67   C81   A    
O17   Zn1   S    
C169  H51   S    
C223  H189  S    
C8    O16   A    
C72   N4    A    
O79   C219  S    
C16   C136  A    
C189  H109  S    
C182  H94   S    
C59   O23   A    
C186  H103  S    
O32   Zn6   S    
C22   C30   T    
N22   C174  S    
C203  H141  S    
N10   H21   S    
C146  C158  A    
C164  H31   S    
C13   N4    S    
C1    C17   S    
C179  H87   S    
C141  O69   S    
C68   C82   A    
C67   O35   S    
C184  C185  S    
C74   O42   S    
C188  H106  S    
C175  H76   S    
C94   C118  A    
C60   O22   A    
C65   N1    A    
C7    C23   S    
C100  C101  A    
C8    C24   S    
C181  H91   S    
C105  H1    S    
C80   N8    A    
O76   C210  S    
C167  H44   S    
C38   C46   T    
O80   C222  S    
C75   C89   A    
C94   C104  A    
C207  H151  S    
C118  H14   S    
C202  H139  S    
C216  C217  S    
C57   O17   A    
C31   C39   S    
C13   C129  A    
O56   Zn10  S    
C162  H22   S    
O23   Zn3   S    
C139  O67   S    
C123  N11   S    
C25   C33   S    
C47   C56   S    
C180  H89   S    
C147  C157  A    
C192  H116  S    
O11   Zn7   S    
O50   Zn9   S    
O58   Zn11  S    
C4    O8    A    
C210  H158  S    
C18   C26   T    
O72   C198  S    
C210  C211  S    
O67   C183  S    
C5    O15   A    
C140  O68   S    
C178  H84   S    
C55   O59   A    
C194  H121  S    
C212  H164  S    
C85   C109  A    
O5    Zn1   S    
C200  H135  S    
C87   C111  A    
C139  C153  A    
C98   C103  A    
C6    C22   S    
C224  H192  S    
C116  H12   S    
C151  O79   S    
C172  H62   S    
C50   O50   A    
C199  H132  S    
C58   C154  S    
C136  C152  A    
O64   Zn12  S    
C120  H16   S    
C195  C196  S    
N24   H77   S    
C219  H180  S    
C206  H150  S    
N12   H29   S    
C62   C158  S    
C111  C116  A    
C54   O64   A    
N23   C175  S    
C86   C100  A    
C69   C87   A    
C59   O21   A    
N18   H53   S    
C214  H167  S    
C10   N7    S    
C204  H145  S    
C108  C119  A    
C214  C215  S    
C11   N6    S    
C213  H166  S    
C203  H143  S    
C217  H175  S    
C89   C113  A    
N21   C173  S    
C53   O61   A    
C218  H176  S    
C122  C138  A    
C115  H11   S    
C188  H108  S    
C175  H74   S    
C60   O24   A    
C218  H178  S    
C221  H184  S    
N17   H49   S    
C57   C153  S    
C126  C142  A    
C171  H58   S    
C6    O14   A    
C199  C200  S    
C193  H119  S    
C208  H153  S    
C60   C156  S    
N13   H33   S    
C61   C157  S    
C127  N15   S    
C209  H156  S    
N22   H69   S    
C207  C208  S    
C222  H186  S    
C202  C203  S    
C64   C160  S    
C13   C131  A    
C165  H36   S    
O59   Zn11  S    
C197  H129  S    
C88   C100  A    
C109  H5    S    
C74   N6    A    
C9    C123  A    
C192  C193  S    
C106  C117  A    
C7    O11   A    
C41   C50   S    
C176  H80   S    
C209  H157  S    
C183  H96   S    
O63   Zn12  S    
C124  C140  A    
C141  C155  A    
O27   Zn7   S    
C220  H182  S    
C187  C188  S    
C173  H68   S    
C72   C86   A    
N24   C176  S    
O68   C186  S    
C78   O46   S    
O12   Zn8   S    
C95   C119  A    
C50   O56   A    
C185  H99   S    
N20   H61   S    
C66   O34   S    
C69   N3    A    
C130  C146  A    
N10   C162  S    
C70   N4    A    
C135  C151  A    
C68   N2    A    
C70   O38   S    
C179  H86   S    
C8    O12   A    
C106  H2    S    
O2    Zn2   S    
C97   C104  A    
O21   Zn1   S    
C88   C112  A    
C87   C99   A    
O10   Zn6   S    
C84   C108  A    
C99   C102  A    
C205  H146  S    
C28   C36   S    
C212  H163  S    
C211  H160  S    
C83   C97   A    
C162  H24   S    
C29   C37   S    
C51   O55   A    
C63   O31   A    
C213  C214  S    
C149  O77   S    
C76   C90   A    
C134  C150  A    
C44   C49   S    
C161  H20   S    
C169  H50   S    
C152  C160  A    
C201  H137  S    
C2    C18   S    
N15   H41   S    
O55   Zn10  S    
C167  H42   S    
C70   C88   A    
C186  H102  S    
C214  H168  S    
C174  H70   S    
O78   C216  S    
C66   N2    A    
O52   Zn9   S    
C168  H46   S    
C64   O30   A    
C163  H27   S    
C144  O72   S    
C79   C93   A    
C190  H112  S    
C65   C83   A    
C15   C135  A    
C112  H8    S    
C145  C157  A    
C61   O27   A    
C71   N3    A    
C197  H127  S    
O26   Zn6   S    
C49   O49   A    
C121  N9    S    
C71   C85   A    
C26   C34   S    
N16   H45   S    
C79   N7    A    
N19   C171  S    
N11   C163  S    
C66   C84   A    
C19   C27   T    
O77   C213  S    
C14   N3    S    
C42   C51   S    
C198  C199  S    
C82   C106  A    
O13   Zn5   S    
C55   O63   A    
C223  C224  S    
C57   O19   A    
C170  H54   S    
O60   Zn11  S    
C76   N6    A    
C124  N12   S    
C122  N10   S    
C189  H110  S    
C182  H93   S    
C146  O74   S    
C196  C197  S    
N18   C170  S    
C71   O39   S    
C135  N23   S    
C142  C156  A    
C133  C149  A    
C73   C91   A    
C3    O5    A    
C203  H142  S    
C67   N1    A    
C208  C209  S    
O71   C195  S    
N9    C161  S    
C59   C155  S    
O24   Zn2   S    
C142  O70   S    
C164  H30   S    
C56   O62   A    
C77   C95   A    
C113  H9    S    
C198  H130  S    
C61   O25   A    
C2    O2    A    
C175  H75   S    
C189  C190  S    
C92   C116  A    
O75   C207  S    
C191  H115  S    
O51   Zn9   S    
C168  H48   S    
O6    Zn4   S    
N11   H25   S    
C148  C158  A    
C63   O29   A    
C149  C159  A    
C110  C113  A    
O9    Zn5   S    
C131  N19   S    
C187  H105  S    
O18   Zn2   S    
C207  H152  S    
C45   C54   S    
C216  H173  S    
C165  H34   S    
C172  H64   S    
C15   N2    S    
C75   N5    A    
C1    O7    A    
C16   N1    S    
C180  H88   S    
C174  H72   S    
C114  H10   S    
C130  N18   S    
C91   C115  A    
O57   Zn11  S    
C132  C148  A    
C64   O32   A    
C205  H147  S    
C210  H159  S    
C15   C133  A    
C178  H83   S    
C171  H60   S    
C84   C98   A    
C96   C104  A    
C166  H39   S    
C161  H19   S    
C73   O41   S    
C110  H6    S    
C200  H134  S    
C81   C97   A    
C147  O75   S    
C195  H124  S    
C215  H169  S    
C224  H191  S    
C83   C107  A    
O54   Zn10  S    
C32   C40   S    
C177  H81   S    
C199  H133  S    
C133  N21   S    
C126  N14   S    
O20   Zn4   S    
C169  H52   S    
C206  H149  S    
C223  H188  S    
N23   H73   S    
C80   C94   A    
C112  C115  A    
C140  C154  A    
