data_mof_unit_59559.cif
_audit_creation_date              2012-12-10T17:19:22-0500
_audit_creation_method            fapswitch 2.2
_symmetry_space_group_name_H-M    P1
_symmetry_Int_Tables_number       1
_space_group_crystal_system       triclinic
_cell_length_a                    15.076406
_cell_length_b                    10.861668
_cell_length_c                    9.603708
_cell_angle_alpha                 89.489314
_cell_angle_beta                  89.629321
_cell_angle_gamma                 94.356755
_cell_volume                      1568.00745069

loop_
_atom_site_label
_atom_site_type_symbol
_atom_type_description
_atom_site_fract_x
_atom_site_fract_y
_atom_site_fract_z
_atom_type_partial_charge
C1    C     C_R   0.503829 0.262394 0.501859 0.797023
C2    C     C_R   0.907041 0.511275 0.626792 0.109600
C3    C     C_R   0.953688 0.476878 0.247861 -0.214163
C4    C     C_R   0.046182 0.477365 0.248017 -0.212529
C5    C     C_R   0.092876 0.488615 0.373611 0.107530
C6    C     C_R   0.046461 0.499801 0.500341 0.062434
C7    C     C_R   0.092937 0.510992 0.627270 0.109515
C8    C     C_R   0.046215 0.522325 0.752633 -0.213015
C9    C     C_R   0.953740 0.522600 0.752378 -0.212666
C10   C     C_R   0.185262 0.488753 0.374664 -0.244521
C11   C     C_R   0.231742 0.499597 0.500681 -0.072695
C12   C     C_R   0.328698 0.499498 0.500348 0.805506
C13   C     C_R   0.185385 0.510658 0.626574 -0.250123
C14   C     C_R   0.511057 0.110941 0.769918 -0.183237
C15   C     C_R   0.482980 0.046188 0.890261 -0.176730
C16   C     C_R   0.440630 0.928746 0.880108 -0.127364
C17   C     C_R   0.434232 0.871575 0.751047 -0.144104
C18   C     C_R   0.470463 0.931834 0.629585 0.109434
C19   C     C_R   0.496282 0.059108 0.635877 0.107027
C20   C     C_R   0.505862 0.127488 0.508023 -0.115565
C21   C     C_R   0.506300 0.064548 0.381347 -0.211930
C22   C     C_R   0.498299 0.937114 0.379115 -0.229115
C23   C     C_R   0.492182 0.736275 0.500194 0.796334
C24   C     C_R   0.482901 0.869421 0.502561 -0.116825
C25   C     C_R   0.607919 0.695933 0.130674 0.149830
C26   C     C_R   0.642426 0.794625 0.046937 -0.322483
C27   C     C_R   0.645055 0.783995 0.905066 0.135498
C28   C     C_R   0.606846 0.678461 0.845676 -0.122683
C29   C     C_R   0.552368 0.589841 0.921743 0.102364
C30   C     C_R   0.552548 0.593303 0.071720 0.190623
C31   C     C_R   0.450469 0.414213 0.075307 -0.079375
C32   C     C_R   0.450137 0.414718 0.927663 -0.075614
C33   C     C_R   0.671254 0.499608 0.499777 0.821979
C34   C     C_R   0.814651 0.511348 0.625643 -0.243859
C35   C     C_R   0.768181 0.499423 0.499679 -0.075204
C36   C     C_R   0.814530 0.487280 0.374017 -0.260875
C37   C     C_R   0.906982 0.487908 0.373263 0.110528
C38   C     C_R   0.953464 0.499706 0.500130 0.063561
Cu1   Cu    Cu3+1 0.499990 0.499990 0.640660 0.924174
Cu2   Cu    Cu3+1 0.500010 0.500010 0.359340 0.953089
H1    H     H_    0.779096 0.520949 0.722997 0.154473
H2    H     H_    0.547936 0.198464 0.785944 0.171944
H3    H     H_    0.493187 0.087970 0.991414 0.130628
H4    H     H_    0.415324 0.880236 0.972791 0.133865
H5    H     H_    0.399425 0.780938 0.747687 0.156349
H6    H     H_    0.504598 0.891709 0.279982 0.167407
H7    H     H_    0.409719 0.343801 0.131457 0.134286
H8    H     H_    0.679167 0.873346 0.093589 0.154317
H9    H     H_    0.622465 0.671003 0.738783 0.221453
H10   H     H_    0.778809 0.477090 0.276669 0.155701
H11   H     H_    0.409039 0.344700 0.873727 0.141748
H12   H     H_    0.918713 0.467993 0.149787 0.138104
H13   H     H_    0.081170 0.468820 0.150046 0.137701
H14   H     H_    0.220808 0.479920 0.277177 0.155207
H15   H     H_    0.221109 0.519422 0.724053 0.154562
H16   H     H_    0.081169 0.531003 0.850736 0.138007
H17   H     H_    0.918756 0.531516 0.850291 0.138305
H18   H     H_    0.514446 0.113824 0.282957 0.159559
N1    N     N_R   0.500860 0.501210 0.147910 -0.181339
N2    N     N_R   0.500890 0.501290 0.852040 -0.192677
O1    O     O_R   0.499990 0.319640 0.618810 -0.594485
O2    O     O_R   0.500000 0.319660 0.381240 -0.585164
O3    O     O_R   0.370250 0.499960 0.618800 -0.588885
O4    O     O_R   0.370260 0.499980 0.381230 -0.585322
O5    O     O_R   0.500000 0.680340 0.618760 -0.608490
O6    O     O_R   0.500010 0.680360 0.381190 -0.557887
O7    O     O_R   0.629740 0.500020 0.618770 -0.615104
O8    O     O_R   0.629750 0.500040 0.381200 -0.551520
N3    N     N_3   0.646962 0.695898 0.264925 -0.497794
H19   H     H_    0.643072 0.782377 0.310852 0.203438
H20   H     H_    0.714842 0.684644 0.251945 0.198469
N4    N     N_3   0.692457 0.876278 0.820118 -0.593357
H21   H     H_    0.665035 0.960395 0.837385 0.237149
H22   H     H_    0.758531 0.885263 0.853314 0.217979

loop_
_geom_bond_atom_site_label_1
_geom_bond_atom_site_label_2
_ccdc_geom_bond_type
C8    C9    A    
C4    H13   S    
C35   C36   A    
C1    O2    A    
C8    H16   S    
C7    C8    A    
C26   C27   A    
C29   C30   A    
C18   C24   A    
C23   O6    A    
C36   C37   A    
C17   H5    S    
C34   C35   A    
C5    C6    A    
C12   O4    A    
C15   C16   A    
Cu2   O2    S    
C18   C19   A    
C31   N1    A    
N3    H20   S    
C19   C20   A    
C16   C17   A    
C23   C24   S    
C6    C38   A    
C16   H4    S    
C26   H8    S    
C14   H2    S    
C2    C34   A    
Cu2   N1    S    
Cu2   O6    S    
C21   C22   A    
Cu1   O5    S    
C34   H1    S    
C5    C10   A    
Cu1   O1    S    
N4    H22   S    
Cu1   Cu2   S    
C12   O3    A    
N4    H21   S    
C25   C26   A    
C32   H11   S    
C37   C38   A    
C28   H9    S    
C2    C38   A    
C31   C32   A    
C29   N2    A    
C11   C12   S    
C30   N1    A    
C17   C18   A    
C22   H6    S    
C22   C24   A    
C25   N3    S    
C32   N2    A    
C3    C4    A    
C36   H10   S    
C33   O7    A    
C25   C30   A    
C28   C29   A    
C1    C20   S    
Cu1   O7    S    
C14   C19   A    
C4    C5    A    
C1    O1    A    
C3    H12   S    
C6    C7    A    
Cu1   O3    S    
Cu2   O4    S    
C23   O5    A    
C15   H3    S    
C21   H18   S    
C11   C13   A    
Cu1   N2    S    
C33   C35   S    
C9    H17   S    
N3    H19   S    
C10   H14   S    
C10   C11   A    
C7    C13   A    
C20   C21   A    
C3    C37   A    
Cu2   O8    S    
C27   C28   A    
C14   C15   A    
C31   H7    S    
C2    C9    A    
C27   N4    S    
C33   O8    A    
C13   H15   S    
