data_mof_unit_8048.cif
_audit_creation_date              2012-12-11T14:42:06-0500
_audit_creation_method            fapswitch 2.2
_symmetry_space_group_name_H-M    P1
_symmetry_Int_Tables_number       1
_space_group_crystal_system       triclinic
_cell_length_a                    19.021981
_cell_length_b                    10.863437
_cell_length_c                    18.883268
_cell_angle_alpha                 89.80609
_cell_angle_beta                  90.226308
_cell_angle_gamma                 90.070824
_cell_volume                      3902.06007104

loop_
_atom_site_label
_atom_site_type_symbol
_atom_type_description
_atom_site_fract_x
_atom_site_fract_y
_atom_site_fract_z
_atom_type_partial_charge
C1    C     C_R   0.724982 0.960274 0.855661 0.536085
C2    C     C_R   0.272941 0.956411 0.146294 0.541633
C3    C     C_R   0.224982 0.460275 0.855661 0.536361
C4    C     C_R   0.772940 0.456409 0.146295 0.541263
C5    C     C_R   0.704118 0.486775 0.035910 -0.131510
C6    C     C_R   0.302822 0.457556 0.961780 -0.144319
C7    C     C_R   0.204120 0.986777 0.035909 -0.131333
C8    C     C_R   0.802824 0.957551 0.961780 -0.144473
C9    C     C_R   0.752799 0.417183 0.075727 0.031348
C10   C     C_R   0.237250 0.435337 0.930258 0.033814
C11   C     C_R   0.252801 0.917188 0.075725 0.031587
C12   C     C_R   0.737250 0.935338 0.930258 0.033691
C13   C     C_R   0.792650 0.326163 0.043129 -0.136532
C14   C     C_R   0.178672 0.409162 0.972624 -0.133733
C15   C     C_R   0.292654 0.826173 0.043128 -0.136483
C16   C     C_R   0.678670 0.909171 0.972626 -0.133816
C17   C     C_R   0.788461 0.311389 0.970968 -0.126102
C18   C     C_R   0.185640 0.401337 0.045064 -0.130172
C19   C     C_R   0.288463 0.811397 0.970967 -0.126142
C20   C     C_R   0.685638 0.901346 0.045066 -0.130230
C21   C     C_R   0.742968 0.385282 0.930023 0.029278
C22   C     C_R   0.251917 0.414254 0.076473 0.031055
C23   C     C_R   0.242968 0.885284 0.930023 0.029452
C24   C     C_R   0.751917 0.914256 0.076473 0.030880
C25   C     C_R   0.520228 0.276049 0.529401 -0.144245
C26   C     C_R   0.520835 0.272718 0.457338 -0.153616
C27   C     C_R   0.982000 0.773782 0.541451 -0.150796
C28   C     C_R   0.983179 0.776387 0.469441 -0.151348
C29   C     C_R   0.507312 0.162694 0.422288 0.001329
C30   C     C_R   0.510710 0.168041 0.569115 -0.040626
C31   C     C_R   0.990486 0.667503 0.430486 -0.001123
C32   C     C_R   0.993474 0.663562 0.577350 -0.045203
C33   C     C_R   0.505379 0.049669 0.460058 0.026040
C34   C     C_R   0.501968 0.053181 0.534687 -0.044165
C35   C     C_R   0.997461 0.552649 0.465712 0.025877
C36   C     C_R   0.994005 0.550093 0.540374 -0.038362
C37   C     C_R   0.796473 0.324589 0.530983 -0.112693
C38   C     C_R   0.204818 0.321730 0.469808 -0.096783
C39   C     C_R   0.295725 0.823056 0.530636 -0.103611
C40   C     C_R   0.703541 0.824371 0.469261 -0.101178
C41   C     C_R   0.798308 0.333929 0.458451 -0.118161
C42   C     C_R   0.203154 0.331493 0.542383 -0.115073
C43   C     C_R   0.297371 0.832272 0.458064 -0.115561
C44   C     C_R   0.701645 0.834073 0.541787 -0.119574
C45   C     C_R   0.557860 0.181602 0.858443 0.555635
C46   C     C_R   0.440442 0.182249 0.141801 0.563076
C47   C     C_R   0.057871 0.681603 0.858443 0.554154
C48   C     C_R   0.940446 0.682249 0.141801 0.563970
C49   C     C_R   0.752833 0.414649 0.423330 0.023279
C50   C     C_R   0.247542 0.414679 0.576831 0.016576
C51   C     C_R   0.252445 0.914074 0.423120 0.022280
C52   C     C_R   0.747044 0.915228 0.576592 0.018072
C53   C     C_R   0.700358 0.476656 0.461365 -0.138097
C54   C     C_R   0.299177 0.478341 0.538177 -0.135876
C55   C     C_R   0.200286 0.976650 0.461285 -0.133693
C56   C     C_R   0.799434 0.977484 0.538230 -0.139473
C57   C     C_R   0.696642 0.463384 0.534651 -0.143660
C58   C     C_R   0.302841 0.464645 0.464922 -0.137789
C59   C     C_R   0.196655 0.963410 0.534586 -0.140544
C60   C     C_R   0.803229 0.963843 0.464982 -0.142726
C61   C     C_R   0.746003 0.389473 0.569980 0.020861
C62   C     C_R   0.254227 0.388598 0.430169 0.040350
C63   C     C_R   0.245782 0.888879 0.569805 0.021772
C64   C     C_R   0.753974 0.889401 0.429954 0.038905
C65   C     C_R   0.736600 0.357390 0.855118 0.543191
C66   C     C_R   0.261875 0.364915 0.147372 0.545407
C67   C     C_R   0.236599 0.857388 0.855118 0.544107
C68   C     C_R   0.761875 0.864916 0.147373 0.545617
C69   C     C_R   0.728040 0.954762 0.647548 0.544647
C70   C     C_R   0.271841 0.954342 0.352313 0.547412
C71   C     C_R   0.228136 0.454612 0.647624 0.546067
C72   C     C_R   0.771924 0.454498 0.352385 0.545459
C73   C     C_R   0.530832 0.176077 0.643357 0.553743
C74   C     C_R   0.473013 0.174990 0.353682 0.574633
C75   C     C_R   0.027099 0.675184 0.646249 0.554505
C76   C     C_R   0.969506 0.675856 0.356454 0.581076
C77   C     C_R   0.738267 0.358176 0.644507 0.548751
C78   C     C_R   0.261806 0.357790 0.355585 0.563785
C79   C     C_R   0.238221 0.858021 0.644438 0.554937
C80   C     C_R   0.761755 0.857995 0.355503 0.563437
C81   C     C_2   0.533754 0.176656 0.931415 -0.100622
C82   C     C_2   0.462156 0.178610 0.068040 -0.098131
C83   C     C_2   0.033784 0.676651 0.931424 -0.100343
C84   C     C_2   0.962153 0.678609 0.068036 -0.098504
C85   C     C_2   0.480317 0.074432 0.034745 -0.153824
C86   C     C_2   0.506503 0.075019 0.961385 -0.158844
C87   C     C_2   0.980337 0.574424 0.034748 -0.153927
C88   C     C_2   0.006511 0.575022 0.961383 -0.159148
C89   C     C_R   0.698939 0.470227 0.963044 -0.145589
C90   C     C_R   0.310318 0.446125 0.034871 -0.147937
C91   C     C_R   0.198939 0.970226 0.963043 -0.145449
C92   C     C_R   0.810319 0.946120 0.034871 -0.147980
Cr1   Cr    Cr6+3 0.769270 0.163730 0.750710 1.038614
Cr2   Cr    Cr6+3 0.230730 0.163730 0.249290 1.015672
Cr3   Cr    Cr6+3 0.269270 0.663730 0.750710 1.040896
Cr4   Cr    Cr6+3 0.730730 0.663730 0.249290 1.015325
Cr5   Cr    Cr6+3 0.612620 0.009790 0.748780 1.070453
Cr6   Cr    Cr6+3 0.387380 0.009790 0.251220 1.052501
Cr7   Cr    Cr6+3 0.112620 0.509790 0.748780 1.070976
Cr8   Cr    Cr6+3 0.887380 0.509790 0.251220 1.052072
Cr9   Cr    Cr6+3 0.614160 0.322500 0.747710 1.027370
Cr10  Cr    Cr6+3 0.385840 0.322500 0.252290 1.020284
Cr11  Cr    Cr6+3 0.114160 0.822500 0.747710 1.029126
Cr12  Cr    Cr6+3 0.885840 0.822500 0.252290 1.020420
H1    H     H_    0.475648 0.986007 0.061331 0.148262
H2    H     H_    0.504130 0.989133 0.932228 0.147659
H3    H     H_    0.975691 0.485990 0.061340 0.148186
H4    H     H_    0.004114 0.489147 0.932214 0.147707
H5    H     H_    0.838272 0.282952 0.430334 0.175440
H6    H     H_    0.164227 0.278657 0.571109 0.175811
H7    H     H_    0.336775 0.780374 0.429736 0.176184
H8    H     H_    0.661763 0.782817 0.570146 0.174791
H9    H     H_    0.664241 0.538771 0.435004 0.127787
H10   H     H_    0.334678 0.541931 0.564048 0.137465
H11   H     H_    0.164366 0.039158 0.434989 0.131546
H12   H     H_    0.835482 0.039919 0.564304 0.135319
H13   H     H_    0.655765 0.510825 0.563499 0.131168
H14   H     H_    0.343011 0.513606 0.435623 0.133832
H15   H     H_    0.156086 0.011466 0.563538 0.136796
H16   H     H_    0.844092 0.011439 0.435919 0.130142
H17   H     H_    0.462059 0.266464 0.040694 0.097317
H18   H     H_    0.539815 0.261404 0.960898 0.102167
H19   H     H_    0.962024 0.766467 0.040677 0.097150
H20   H     H_    0.039879 0.761380 0.960926 0.102508
H21   H     H_    0.661965 0.524883 0.932593 0.127310
H22   H     H_    0.362154 0.455728 0.058154 0.124954
H23   H     H_    0.161963 0.024879 0.932593 0.127478
H24   H     H_    0.862156 0.955718 0.058153 0.125035
H25   H     H_    0.672839 0.558187 0.060282 0.139030
H26   H     H_    0.348033 0.481973 0.929966 0.124811
H27   H     H_    0.172840 0.058185 0.060281 0.139202
H28   H     H_    0.848036 0.981961 0.929965 0.124689
H29   H     H_    0.829865 0.270599 0.072789 0.131914
H30   H     H_    0.126785 0.396423 0.950022 0.131219
H31   H     H_    0.329871 0.770613 0.072787 0.131795
H32   H     H_    0.626782 0.896437 0.950025 0.131057
H33   H     H_    0.820979 0.240757 0.947493 0.141991
H34   H     H_    0.139685 0.377886 0.076091 0.134006
H35   H     H_    0.320982 0.740769 0.947491 0.141828
H36   H     H_    0.639683 0.877902 0.076094 0.134191
H37   H     H_    0.529296 0.364880 0.553752 0.158742
H38   H     H_    0.525966 0.359355 0.429121 0.148584
H39   H     H_    0.978122 0.860978 0.568937 0.155320
H40   H     H_    0.975971 0.865513 0.444523 0.155116
H41   H     H_    0.834102 0.263736 0.556140 0.171391
H42   H     H_    0.167889 0.259235 0.445086 0.151094
H43   H     H_    0.333148 0.761785 0.555725 0.173514
H44   H     H_    0.666025 0.763113 0.444356 0.153837
O1    O     O_R   0.784320 0.290430 0.830510 -0.516188
O2    O     O_R   0.215680 0.290430 0.169490 -0.519797
O3    O     O_R   0.284320 0.790430 0.830510 -0.515961
O4    O     O_R   0.715680 0.790430 0.169490 -0.518952
O5    O     O_R   0.554640 0.080370 0.673500 -0.463411
O6    O     O_R   0.445360 0.080370 0.326500 -0.466032
O7    O     O_R   0.054640 0.580370 0.673500 -0.466722
O8    O     O_R   0.945360 0.580370 0.326500 -0.465938
O9    O     O_R   0.543920 0.282180 0.666790 -0.519659
O10   O     O_R   0.456080 0.282180 0.333210 -0.524591
O11   O     O_R   0.043920 0.782180 0.666790 -0.515783
O12   O     O_R   0.956080 0.782180 0.333210 -0.526773
O13   O     O_R   0.679040 0.374160 0.674430 -0.503399
O14   O     O_R   0.320960 0.374160 0.325570 -0.502921
O15   O     O_R   0.179040 0.874160 0.674430 -0.500955
O16   O     O_R   0.820960 0.874160 0.325570 -0.507085
O17   O     O_3   0.665350 0.165340 0.749070 -0.277563
O18   O     O_3   0.334650 0.165340 0.250930 -0.272108
O19   O     O_3   0.165350 0.665340 0.749070 -0.277426
O20   O     O_3   0.834650 0.665340 0.250930 -0.273556
O21   O     O_R   0.762640 0.040960 0.825200 -0.509262
O22   O     O_R   0.237360 0.040960 0.174800 -0.507087
O23   O     O_R   0.262640 0.540960 0.825200 -0.509635
O24   O     O_R   0.737360 0.540960 0.174800 -0.507602
O25   O     O_R   0.667400 0.923970 0.829950 -0.530803
O26   O     O_R   0.332600 0.923970 0.170050 -0.531898
O27   O     O_R   0.167400 0.423970 0.829950 -0.530286
O28   O     O_R   0.832600 0.423970 0.170050 -0.531582
O29   O     O_R   0.553960 0.081340 0.821780 -0.492142
O30   O     O_R   0.446040 0.081340 0.178220 -0.490453
O31   O     O_R   0.053960 0.581340 0.821780 -0.494392
O32   O     O_R   0.946040 0.581340 0.178220 -0.489764
O33   O     O_R   0.543180 0.283240 0.826740 -0.508515
O34   O     O_R   0.456820 0.283240 0.173260 -0.514645
O35   O     O_R   0.043180 0.783240 0.826740 -0.511232
O36   O     O_R   0.956820 0.783240 0.173260 -0.511758
O37   O     O_R   0.678360 0.375140 0.822710 -0.517515
O38   O     O_R   0.321640 0.375140 0.177290 -0.520509
O39   O     O_R   0.178360 0.875140 0.822710 -0.517612
O40   O     O_R   0.821640 0.875140 0.177290 -0.520409
O41   O     O_R   0.785050 0.289380 0.670560 -0.496340
O42   O     O_R   0.214950 0.289380 0.329440 -0.519287
O43   O     O_R   0.285050 0.789380 0.670560 -0.491880
O44   O     O_R   0.714950 0.789380 0.329440 -0.512083
O45   O     O_R   0.763320 0.039990 0.676930 -0.505005
O46   O     O_R   0.236680 0.039990 0.323070 -0.508266
O47   O     O_R   0.263320 0.539990 0.676930 -0.505991
O48   O     O_R   0.736680 0.539990 0.323070 -0.509286
O49   O     O_R   0.668130 0.922920 0.670000 -0.496416
O50   O     O_R   0.331870 0.922920 0.330000 -0.502403
O51   O     O_R   0.168130 0.422920 0.670000 -0.492123
O52   O     O_R   0.831870 0.422920 0.330000 -0.504138
C93   C     C_2   0.508289 0.930727 0.421177 0.611763
O53   O     O_2   0.469188 0.845683 0.436912 -0.523743
O54   O     O_R   0.555569 0.917660 0.365185 -0.688695
H45   H     H_    0.552944 0.833322 0.342488 0.331067
C94   C     C_2   0.488772 0.938976 0.576614 0.634047
O55   O     O_2   0.527167 0.849900 0.569885 -0.466756
O56   O     O_R   0.433731 0.933068 0.625356 -0.658409
H46   H     H_    0.403861 0.010241 0.625509 0.288107
C95   C     C_2   0.009873 0.438087 0.424688 0.614416
O57   O     O_2   0.973929 0.346482 0.435067 -0.522323
O58   O     O_R   0.062160 0.436675 0.372864 -0.689908
H47   H     H_    0.065549 0.354307 0.348037 0.336095
C96   C     C_2   0.991076 0.431139 0.580090 0.631208
O59   O     O_2   0.033201 0.349591 0.567491 -0.468169
O60   O     O_R   0.941373 0.412206 0.633409 -0.659627
H48   H     H_    0.907474 0.483495 0.638433 0.290736

loop_
_geom_bond_atom_site_label_1
_geom_bond_atom_site_label_2
_ccdc_geom_bond_type
C58   C62   A    
C87   C88   S    
Cr6   O6    S    
Cr11  O19   S    
C73   O5    A    
C55   C59   A    
C80   O44   A    
C93   O53   D    
C14   C18   A    
Cr1   O1    S    
C35   C36   A    
C78   O42   A    
C84   C87   D    
C6    H26   S    
Cr11  O11   S    
Cr2   O18   S    
C32   C75   S    
C93   O54   S    
C45   O33   A    
C21   C89   A    
C96   O59   D    
C84   H19   S    
C7    C11   A    
Cr1   O21   S    
C31   C76   S    
C50   C54   A    
C91   H23   S    
C46   O30   A    
Cr11  O35   S    
C32   C36   A    
C17   H33   S    
C56   C60   A    
C66   O2    A    
Cr6   O26   S    
C49   C53   A    
C15   H31   S    
C39   H43   S    
Cr4   O4    S    
C73   O9    A    
C8    H28   S    
C58   H14   S    
C74   O6    A    
C23   C67   S    
C57   C61   A    
C18   H34   S    
C9    C13   A    
C22   C66   S    
C47   O31   A    
C52   C69   S    
C53   H9    S    
C46   C82   S    
C11   C15   A    
C89   H21   S    
C80   O16   A    
C38   H42   S    
C12   C16   A    
C29   C33   A    
C61   C77   S    
C49   C72   S    
Cr7   O7    S    
Cr8   O28   S    
Cr3   O47   S    
Cr4   O20   S    
C28   H40   S    
C51   C70   S    
Cr5   O5    S    
C83   H20   S    
Cr6   O30   S    
C18   C22   A    
C82   H17   S    
C7    H27   S    
C81   C86   D    
C2    O26   A    
C8    C12   A    
C71   O47   A    
C88   H4    S    
C70   O46   A    
C44   C52   A    
C42   H6    S    
C5    H25   S    
C83   C88   D    
Cr1   O17   S    
Cr10  O18   S    
C79   O43   A    
C69   O49   A    
C64   C80   S    
Cr10  O10   S    
C86   H2    S    
C1    C12   S    
C43   H7    S    
Cr12  O12   S    
Cr9   O37   S    
C2    C11   S    
C92   H24   S    
C41   C49   A    
C67   O39   A    
C95   O57   D    
Cr7   O19   S    
C96   O60   S    
C34   C94   S    
C77   O13   A    
Cr12  O40   S    
C65   O37   A    
Cr5   O25   S    
Cr6   O50   S    
C67   O3    A    
O56   H46   S    
Cr10  O34   S    
Cr5   O49   S    
Cr11  O39   S    
C47   O35   A    
C10   C14   A    
C48   O36   A    
C30   C73   S    
C30   C34   A    
C19   C23   A    
C63   C79   S    
C29   C74   S    
C14   H30   S    
C51   C55   A    
C25   C26   A    
C85   C86   S    
C76   O8    A    
C17   C21   A    
C48   C84   S    
Cr3   O19   S    
Cr7   O31   S    
C15   C19   A    
C50   C71   S    
Cr2   O42   S    
C5    C9    A    
C68   O4    A    
C36   C96   S    
C72   O52   A    
C22   C90   A    
Cr5   O29   S    
O58   H47   S    
Cr4   O48   S    
C16   C20   A    
C1    O25   A    
C69   O45   A    
C33   C34   A    
C56   H12   S    
C25   H37   S    
C27   H39   S    
Cr10  O38   S    
C74   O10   A    
Cr9   O17   S    
Cr6   O18   S    
C42   C50   A    
C8    C92   A    
Cr8   O52   S    
C3    O27   A    
Cr12  O36   S    
C2    O22   A    
C78   O14   A    
C47   C83   S    
C66   O38   A    
Cr4   O24   S    
C24   C92   A    
C23   C91   A    
C59   C63   A    
Cr3   O3    S    
Cr8   O8    S    
Cr7   O51   S    
C16   H32   S    
C44   H8    S    
C7    C91   A    
C48   O32   A    
Cr9   O33   S    
Cr10  O14   S    
C57   H13   S    
C54   C58   A    
C75   O11   A    
C25   C30   A    
C94   O55   D    
C20   H36   S    
C76   O12   A    
C40   H44   S    
C59   H15   S    
Cr3   O43   S    
C4    O24   A    
C21   C65   S    
C27   C32   A    
Cr2   O46   S    
C13   H29   S    
C62   C78   S    
C28   C31   A    
C45   C81   S    
C79   O15   A    
C87   H3    S    
C53   C57   A    
C72   O48   A    
C39   C43   A    
Cr12  O20   S    
C71   O51   A    
Cr1   O41   S    
Cr2   O2    S    
C82   C85   D    
C39   C63   A    
Cr11  O15   S    
C40   C64   A    
C60   C64   A    
C81   H18   S    
Cr8   O20   S    
C77   O41   A    
C46   O34   A    
Cr9   O13   S    
C35   C95   S    
C3    C10   S    
C6    C90   A    
Cr2   O22   S    
C45   O29   A    
C33   C93   S    
C3    O23   A    
Cr12  O16   S    
C55   H11   S    
C43   C51   A    
Cr5   O17   S    
C54   H10   S    
C1    O21   A    
C95   O58   S    
C60   H16   S    
C31   C35   A    
O60   H48   S    
C37   C41   A    
Cr4   O44   S    
C6    C10   A    
C24   C68   S    
Cr9   O9    S    
C13   C17   A    
C38   C42   A    
C75   O7    A    
C90   H22   S    
C40   C44   A    
C37   C61   A    
Cr7   O27   S    
C68   O40   A    
C26   C29   A    
C70   O50   A    
C4    O28   A    
Cr1   O45   S    
C27   C28   A    
C65   O1    A    
C41   H5    S    
C85   H1    S    
O54   H45   S    
C37   H41   S    
C4    C9    S    
C26   H38   S    
C94   O56   S    
Cr3   O23   S    
C20   C24   A    
C19   H35   S    
C5    C89   A    
C52   C56   A    
C38   C62   A    
Cr8   O32   S    
