data_mof_unit_27924.cif
_audit_creation_date              2013-03-05T16:34:24-0500
_audit_creation_method            fapswitch 2.2
_symmetry_space_group_name_H-M    P1
_symmetry_Int_Tables_number       1
_space_group_crystal_system       triclinic
_cell_length_a                    10.994006
_cell_length_b                    9.0956
_cell_length_c                    7.787131
_cell_angle_alpha                 89.830084
_cell_angle_beta                  89.448862
_cell_angle_gamma                 89.611853
_cell_volume                      778.633200973

loop_
_atom_site_label
_atom_site_type_symbol
_atom_site_description
_atom_site_fract_x
_atom_site_fract_y
_atom_site_fract_z
_atom_type_partial_charge
O1    O     O_R   0.500000 0.288390 0.642760 -0.581661
O2    O     O_R   0.500000 0.711610 0.642760 -0.578306
O3    O     O_R   0.500000 0.288370 0.357190 -0.574784
O4    O     O_R   0.500000 0.711630 0.357190 -0.573095
C1    C     C_R   0.500182 0.220020 0.500137 0.827102
C2    C     C_R   0.500014 0.779977 0.499826 0.830546
O5    O     O_R   0.321940 0.500000 0.642750 -0.553282
O6    O     O_R   0.678060 0.500000 0.642750 -0.568867
O7    O     O_R   0.321930 0.500000 0.357180 -0.604466
O8    O     O_R   0.678070 0.500000 0.357180 -0.597891
C3    C     C_R   0.264944 0.493321 0.500467 0.736636
C4    C     C_R   0.734722 0.500979 0.498629 0.709600
Cu1   Cu    Cu3+1 0.500000 0.500000 0.669080 1.008612
Cu2   Cu    Cu3+1 0.500000 0.500000 0.330920 0.984562
C5    C     C_2   0.934394 0.440064 0.383733 0.123930
C6    C     C_2   0.063540 0.474499 0.365435 0.076065
C7    C     C_2   0.865378 0.522243 0.491670 0.340604
C8    C     C_2   0.135701 0.458220 0.504320 0.312731
C9    C     C_1   0.500235 0.065367 0.500224 -0.189575
C10   C     C_1   0.500189 0.934633 0.499794 -0.191187
N1    N     N_1   0.500000 0.500000 0.076820 -0.047570
N2    N     N_1   0.500000 0.500000 0.923180 -0.047196
C11   C     C_3   0.885102 0.314810 0.278114 -0.918695
H1    H     H_    0.960496 0.251122 0.217468 0.240228
H2    H     H_    0.832784 0.238155 0.361477 0.222061
H3    H     H_    0.826356 0.357713 0.174034 0.268119
C12   C     C_3   0.105602 0.533428 0.193120 -0.827141
H4    H     H_    0.147107 0.643467 0.208978 0.236157
H5    H     H_    0.171733 0.456489 0.132483 0.250691
H6    H     H_    0.027955 0.546170 0.103841 0.260269
O9    O     O_3   0.919224 0.629921 0.592038 -0.554876
C13   C     C_3   0.861081 0.767246 0.566271 0.062491
H7    H     H_    0.771135 0.770095 0.632912 0.156860
H8    H     H_    0.848882 0.791350 0.426851 0.125283
C14   C     C_3   0.939062 0.887761 0.641546 -0.784326
H9    H     H_    0.029838 0.888582 0.577545 0.242133
H10   H     H_    0.894232 0.996246 0.621820 0.198511
H11   H     H_    0.950789 0.868742 0.781428 0.255992
O10   O     O_3   0.086654 0.407383 0.658301 -0.541466
C15   C     C_3   0.113333 0.255916 0.674480 0.055772
H12   H     H_    0.213316 0.235097 0.673542 0.140509
H13   H     H_    0.070960 0.192641 0.568645 0.135760
C16   C     C_3   0.062136 0.200280 0.844460 -0.768519
H14   H     H_    0.961725 0.214636 0.847928 0.251602
H15   H     H_    0.084899 0.082054 0.860737 0.200517
H16   H     H_    0.102468 0.262073 0.952122 0.249562

loop_
_geom_bond_atom_site_label_1
_geom_bond_atom_site_label_2
_geom_bond_distance
_ccdc_geom_bond_type
C4    C7    1.451175 S    
O7    Cu2   1.966397 S    
C3    C8    1.458442 S    
O6    Cu1   1.966339 S    
C1    C9    1.406653 S    
C12   H5    1.108939 S    
C2    C10   1.406696 S    
O9    C13   1.413920 S    
O6    C4    1.278366 A    
O2    Cu1   1.934997 S    
C11   H1    1.110512 S    
C12   H4    1.110505 S    
C13   H7    1.112518 S    
C14   H11   1.111013 S    
C6    C12   1.512885 S    
C5    C11   1.513453 S    
C6    C8    1.354608 D    
N1    N2    1.196416 T    
C12   H6    1.111347 S    
O5    C3    1.279926 A    
C16   H15   1.109595 S    
O2    C2    1.273361 A    
O3    Cu2   1.935139 S    
O8    C4    1.270667 A    
O1    C1    1.274459 A    
Cu2   N1    1.978709 S    
C15   H13   1.114137 S    
C15   H12   1.114091 S    
C14   H10   1.110918 S    
Cu1   N2    1.978709 S    
O7    C3    1.275874 A    
C16   H14   1.110820 S    
O4    Cu2   1.936345 S    
C7    O9    1.393492 S    
C16   H16   1.108465 S    
O1    Cu1   1.936207 S    
C5    C6    1.461567 S    
C13   C14   1.518678 S    
O5    Cu1   1.970263 S    
C11   H2    1.110825 S    
O4    C2    1.274469 A    
O8    Cu2   1.970309 S    
C11   H3    1.109537 S    
O10   C15   1.412141 S    
C5    C7    1.350803 D    
C8    O10   1.389246 S    
Cu1   Cu2   2.633297 S    
C15   C16   1.520036 S    
C9    C10   1.189129 T    
O3    C1    1.273384 A    
C14   H9    1.111275 S    
C13   H8    1.116129 S    
