data_mof_unit_26616.cif
_audit_creation_date              2012-12-11T15:32:32-0500
_audit_creation_method            fapswitch 2.2
_symmetry_space_group_name_H-M    P1
_symmetry_Int_Tables_number       1
_space_group_crystal_system       triclinic
_cell_length_a                    6.952969
_cell_length_b                    20.462199
_cell_length_c                    24.379038
_cell_angle_alpha                 89.711609
_cell_angle_beta                  90.664941
_cell_angle_gamma                 89.535471
_cell_volume                      3468.08657318

loop_
_atom_site_label
_atom_site_type_symbol
_atom_type_description
_atom_site_fract_x
_atom_site_fract_y
_atom_site_fract_z
_atom_type_partial_charge
O1    O     O_R   0.507320 0.423560 0.460500 -0.536614
O2    O     O_R   0.170760 0.556250 0.437010 -0.536910
O3    O     O_R   0.004030 0.576440 0.539500 -0.523150
C1    C     C_R   0.338589 0.576362 0.421058 0.719044
O4    O     O_R   0.177370 0.422820 0.454110 -0.539095
O5    O     O_R   0.010680 0.442050 0.556720 -0.533289
C2    C     C_R   0.345749 0.398863 0.443335 0.702035
O6    O     O_R   0.500680 0.557950 0.443280 -0.535944
O7    O     O_3   0.340380 0.506470 0.533650 -0.361406
V1    V     V_3+5 0.064130 0.498800 0.493760 1.448595
O8    O     O_R   0.681160 0.443750 0.562990 -0.538869
C3    C     C_R   0.851032 0.423706 0.578864 0.727459
O9    O     O_R   0.674560 0.577180 0.545890 -0.544168
C4    C     C_R   0.842737 0.601230 0.556454 0.724377
V2    V     V_3+5 0.564560 0.501200 0.506240 1.436593
O10   O     O_3   0.838180 0.493530 0.466350 -0.370093
C5    C     C_R   0.970010 0.837298 0.912382 -0.093317
C6    C     C_R   0.845012 0.662091 0.588806 -0.034525
C7    C     C_R   0.949140 0.719437 0.909895 -0.135528
C8    C     C_R   0.966962 0.776852 0.939978 0.184809
C9    C     C_R   0.952787 0.839126 0.854877 -0.268495
C10   C     C_R   0.915849 0.781797 0.823975 0.092614
C11   C     C_R   0.925237 0.721319 0.852646 0.085012
C12   C     C_R   0.874121 0.781663 0.765805 0.021246
C13   C     C_R   0.886246 0.720707 0.736587 0.026509
C14   C     C_R   0.890280 0.662444 0.767621 -0.182668
C15   C     C_R   0.907574 0.662797 0.824287 -0.189092
C16   C     C_R   0.802902 0.837565 0.736191 0.182578
C17   C     C_R   0.766366 0.833525 0.680100 -0.160299
C18   C     C_R   0.796811 0.776153 0.650934 0.050675
C19   C     C_R   0.868060 0.719153 0.677739 0.035302
C20   C     C_R   0.746290 0.775114 0.595144 -0.150775
C21   C     C_R   0.762080 0.717929 0.565210 -0.217042
C22   C     C_R   0.910566 0.663221 0.643941 0.144170
H1    H     H_    0.908074 0.616510 0.846140 0.119409
H2    H     H_    0.711672 0.717432 0.522977 0.116004
H3    H     H_    0.705943 0.876036 0.659169 0.142813
H4    H     H_    0.951818 0.673008 0.931555 0.132077
H5    H     H_    0.974248 0.885618 0.835402 0.121677
H6    H     H_    0.865971 0.615581 0.749167 0.130789
H7    H     H_    0.686512 0.818201 0.575036 0.120022
C23   C     C_3   0.764547 0.291534 0.759343 -0.126407
C24   C     C_3   0.945169 0.282637 0.796926 -0.178162
H8    H     H_    0.972054 0.309318 0.835762 0.118049
H9    H     H_    0.643138 0.325794 0.766807 0.115255
H10   H     H_    0.212970 0.311486 0.741657 0.111806
C25   C     C_1   0.960250 0.121754 0.875359 -0.187399
C26   C     C_1   0.863972 0.378202 0.624621 -0.191347
C27   C     C_3   0.747548 0.216095 0.754301 -0.176007
C28   C     C_3   0.927637 0.207759 0.791470 0.150523
C29   C     C_3   0.877562 0.217518 0.702777 -0.189348
C30   C     C_3   0.895430 0.292376 0.708648 0.131542
C31   C     C_3   0.054343 0.209896 0.740812 0.247538
C32   C     C_3   0.076191 0.284331 0.745631 -0.134763
C33   C     C_1   0.946602 0.160320 0.837435 -0.030366
C34   C     C_1   0.877257 0.339683 0.662592 -0.048559
H11   H     H_    0.852710 0.190450 0.664024 0.121992
H12   H     H_    0.612323 0.188128 0.758270 0.158499
C35   C     C_3   0.530832 0.725321 0.214197 0.230651
C36   C     C_3   0.338039 0.693802 0.229746 -0.207258
H13   H     H_    0.100977 0.773430 0.204475 0.148037
C37   C     C_1   0.347800 0.621843 0.375076 -0.186639
C38   C     C_1   0.476234 0.878204 0.124926 -0.192145
C39   C     C_3   0.576943 0.737959 0.274466 0.235521
C40   C     C_3   0.385571 0.707298 0.290936 0.123067
C41   C     C_3   0.483932 0.806519 0.270330 -0.231588
C42   C     C_3   0.436404 0.793018 0.209148 0.117879
C43   C     C_3   0.288263 0.775571 0.286735 -0.174064
C44   C     C_3   0.241042 0.762708 0.225064 -0.157240
C45   C     C_1   0.362251 0.660206 0.337028 -0.013711
C46   C     C_1   0.461134 0.839915 0.162996 -0.020643
H14   H     H_    0.186501 0.796375 0.316870 0.122636
H15   H     H_    0.545872 0.852073 0.287315 0.121336
C47   C     C_R   0.473884 0.162023 0.089003 -0.068391
C48   C     C_R   0.347529 0.337656 0.411435 -0.106646
C49   C     C_R   0.566171 0.275126 0.097596 -0.161051
C50   C     C_R   0.548253 0.218966 0.066111 -0.162378
C51   C     C_R   0.413175 0.162248 0.143888 -0.173767
C52   C     C_R   0.419561 0.220172 0.176249 0.116055
C53   C     C_R   0.507531 0.275682 0.152492 0.124479
C54   C     C_R   0.353823 0.223960 0.232177 0.014491
C55   C     C_R   0.404193 0.279345 0.265028 0.017939
C56   C     C_R   0.501018 0.331611 0.239479 -0.158607
C57   C     C_R   0.544448 0.330645 0.184137 -0.204229
C58   C     C_R   0.232020 0.176386 0.255511 0.132508
C59   C     C_R   0.200444 0.174672 0.312648 0.133806
C60   C     C_R   0.267561 0.225767 0.346975 0.045350
C61   C     C_R   0.356293 0.281175 0.322210 0.004234
C62   C     C_R   0.239721 0.225588 0.405208 0.237459
C63   C     C_R   0.278953 0.281241 0.435901 -0.156777
C64   C     C_R   0.390109 0.337324 0.355463 -0.193361
H16   H     H_    0.615692 0.372585 0.166439 0.123662
H17   H     H_    0.439092 0.382974 0.338786 0.103280
H18   H     H_    0.248090 0.281201 0.479416 0.126938
H19   H     H_    0.630919 0.317916 0.079316 0.114936
H20   H     H_    0.598395 0.219290 0.024191 0.110262
H21   H     H_    0.376269 0.115551 0.161242 0.138352
H22   H     H_    0.546957 0.374563 0.261058 0.123111
O11   O     O_R   0.323550 0.942140 0.056770 -0.535927
O12   O     O_R   0.647080 0.077200 0.045890 -0.537601
O13   O     O_R   0.813610 0.057920 0.943260 -0.534806
C65   C     C_R   0.478575 0.101171 0.056701 0.696028
O14   O     O_R   0.653470 0.943760 0.063000 -0.537581
O15   O     O_R   0.820050 0.923540 0.960490 -0.537287
C66   C     C_R   0.485628 0.923655 0.078941 0.717733
O16   O     O_R   0.317110 0.076520 0.039540 -0.533166
O17   O     O_3   0.483830 0.993580 0.966380 -0.366166
V3    V     V_3+5 0.760140 0.001190 0.006240 1.428982
O18   O     O_R   0.149510 0.922740 0.954070 -0.539540
C67   C     C_R   0.980804 0.898737 0.943623 0.697455
O19   O     O_R   0.143120 0.056170 0.936970 -0.535735
C68   C     C_R   0.973258 0.076236 0.921104 0.725514
V4    V     V_3+5 0.259690 0.998700 0.993700 1.432313
O20   O     O_3   0.986130 0.006420 0.033620 -0.365480
N1    N     N_3   0.214019 0.165130 0.731155 -0.682950
H23   H     H_    0.272201 0.177392 0.693171 0.223897
H24   H     H_    0.156799 0.118295 0.727241 0.229133
H25   H     H_    0.279801 0.647766 0.212612 0.130205
N2    N     N_3   0.667667 0.698439 0.175412 -0.662863
H26   H     H_    0.704487 0.651422 0.189020 0.236116
H27   H     H_    0.595110 0.693174 0.137939 0.227880
N3    N     N_3   0.038453 0.611365 0.661221 -0.679839
H28   H     H_    0.131920 0.626463 0.692439 0.244290
H29   H     H_    0.958519 0.570723 0.673015 0.206162
N4    N     N_3   0.761650 0.723286 0.300606 -0.659543
H30   H     H_    0.863353 0.753192 0.282112 0.231914
H31   H     H_    0.752731 0.738036 0.341476 0.217643
N5    N     N_3   0.089863 0.122144 0.334975 -0.704832
H32   H     H_    0.157857 0.077737 0.326171 0.229334
H33   H     H_    0.951816 0.122793 0.317574 0.236340
N6    N     N_3   0.121873 0.134093 0.220570 -0.685377
H34   H     H_    0.975602 0.144599 0.225217 0.240097
H35   H     H_    0.148464 0.085416 0.231644 0.221376
N7    N     N_3   0.171701 0.170322 0.435446 -0.672529
H36   H     H_    0.256096 0.129266 0.426663 0.256074
H37   H     H_    0.026667 0.162575 0.426131 0.266719
N8    N     N_3   0.984350 0.772543 0.998522 -0.667684
H38   H     H_    0.113538 0.794395 0.010475 0.225281
H39   H     H_    0.871064 0.799034 0.015730 0.227880
N9    N     N_3   0.729950 0.895446 0.761868 -0.684029
H40   H     H_    0.660520 0.884644 0.798561 0.245338
H41   H     H_    0.838968 0.929908 0.766180 0.226361

loop_
_geom_bond_atom_site_label_1
_geom_bond_atom_site_label_2
_ccdc_geom_bond_type
C13   C19   A    
C41   C43   S    
C60   C61   A    
N1    H24   S    
C4    C6    S    
C7    C11   A    
C7    C8    A    
C16   N9    S    
C1    O6    A    
N5    H32   S    
C21   H2    S    
C54   C55   A    
C31   C32   S    
O13   C68   A    
N8    H39   S    
C14   C15   A    
C25   C33   T    
C16   C17   A    
N9    H41   S    
C49   H19   S    
O5    C3    A    
C18   C19   A    
C40   C45   S    
C1    C37   S    
C5    C8    A    
C37   C45   T    
V3    O20   S    
O17   V4    S    
C48   C63   A    
C35   C42   S    
O8    V2    S    
O19   C68   A    
C43   C44   S    
C27   C29   S    
C47   C50   A    
O17   V3    S    
C36   H25   S    
O14   V3    S    
C29   H11   S    
C11   C15   A    
C38   C66   S    
O7    V1    S    
C39   N4    S    
C3    C26   S    
C47   C65   S    
O13   V3    S    
C41   C42   S    
C35   C36   S    
C22   N3    S    
O9    C4    A    
C5    C67   S    
C30   C32   S    
C63   H18   S    
N2    H27   S    
N9    H40   S    
O11   C66   A    
O12   V3    S    
C28   C31   S    
O16   V4    S    
C59   N5    S    
C29   C30   S    
C18   C20   A    
C49   C53   A    
C49   C50   A    
O14   C66   A    
C62   C63   A    
C53   C57   A    
C52   C54   A    
C59   C60   A    
C2    C48   S    
C15   H1    S    
C13   C14   A    
C58   C59   A    
C41   H15   S    
C56   H22   S    
C5    C9    A    
C27   H12   S    
C42   C44   S    
C23   H9    S    
C39   C41   S    
C8    N8    S    
O2    C1    A    
C24   H8    S    
O5    V1    S    
C17   C18   A    
C7    H4    S    
C64   H17   S    
C24   C32   S    
C56   C57   A    
C9    H5    S    
C61   C64   A    
C43   H14   S    
C40   C43   S    
H10   C32   S    
C51   H21   S    
O12   C65   A    
C35   C39   S    
C19   C22   A    
O19   V4    S    
C12   C13   A    
O18   V4    S    
C6    C22   A    
O3    C4    A    
O1    V2    S    
C38   C46   T    
C36   C40   S    
C55   C56   A    
O6    V2    S    
C60   C62   A    
N4    H30   S    
C10   C12   A    
C23   C24   S    
C20   H7    S    
N3    H29   S    
N6    H34   S    
O2    V1    S    
O15   V3    S    
C25   C68   S    
O4    C2    A    
V4    O20   S    
H13   C44   S    
C26   C34   T    
C35   N2    S    
C62   N7    S    
O1    C2    A    
C12   C16   A    
N6    H35   S    
N5    H33   S    
O11   V4    S    
N7    H37   S    
N2    H26   S    
C24   C28   S    
N7    H36   S    
C48   C64   A    
N8    H38   S    
C50   H20   S    
C28   C33   S    
C20   C21   A    
O9    V2    S    
O7    V2    S    
O4    V1    S    
O3    V1    S    
V1    O10   S    
O18   C67   A    
C39   C40   S    
O15   C67   A    
C51   C52   A    
C14   H6    S    
N1    H23   S    
C30   C34   S    
C36   C44   S    
C55   C61   A    
C65   O16   A    
C42   C46   S    
C6    C21   A    
C54   C58   A    
C23   C27   S    
C52   C53   A    
C31   N1    S    
C27   C28   S    
C47   C51   A    
C17   H3    S    
N4    H31   S    
C10   C11   A    
C57   H16   S    
C29   C31   S    
N3    H28   S    
C9    C10   A    
C58   N6    S    
V2    O10   S    
O8    C3    A    
C23   C30   S    
