data_mof_unit_51549.cif
_audit_creation_date              2012-12-10T19:26:42-0500
_audit_creation_method            fapswitch 2.2
_symmetry_space_group_name_H-M    P1
_symmetry_Int_Tables_number       1
_space_group_crystal_system       triclinic
_cell_length_a                    19.230546
_cell_length_b                    10.522112
_cell_length_c                    9.782951
_cell_angle_alpha                 91.68907
_cell_angle_beta                  86.10119
_cell_angle_gamma                 88.890601
_cell_volume                      1973.64809725

loop_
_atom_site_label
_atom_site_type_symbol
_atom_type_description
_atom_site_fract_x
_atom_site_fract_y
_atom_site_fract_z
_atom_type_partial_charge
C1    C     C_R   0.502505 0.257582 0.497871 0.877124
C2    C     C_3   0.525765 0.029402 0.378115 0.311883
C3    C     C_3   0.489611 0.387014 0.046558 -0.112768
C4    C     C_3   0.510355 0.612756 0.952950 -0.139852
C5    C     C_3   0.548140 0.425731 0.943211 0.295992
C6    C     C_3   0.451858 0.574218 0.056052 0.286440
C7    C     C_3   0.441023 0.461972 0.958199 -0.137676
C8    C     C_3   0.558927 0.538162 0.041435 -0.159818
C9    C     C_R   0.364980 0.491922 0.504034 0.898486
C10   C     C_R   0.634361 0.513984 0.496756 0.894517
C11   C     C_R   0.244952 0.478327 0.636059 0.107292
C12   C     C_R   0.497764 0.742182 0.502205 0.855278
C13   C     C_R   0.753563 0.558889 0.371842 0.097756
C14   C     C_R   0.171662 0.493912 0.632752 0.128187
C15   C     C_R   0.826615 0.566581 0.380020 0.139602
C16   C     C_R   0.142832 0.507478 0.504850 -0.060482
C17   C     C_R   0.854109 0.563711 0.509970 -0.046601
C18   C     C_R   0.183512 0.491732 0.379988 0.094839
C19   C     C_R   0.810954 0.572190 0.632066 0.086831
C20   C     C_R   0.255152 0.464883 0.383939 0.161100
C21   C     C_R   0.738266 0.577898 0.622696 0.162328
C22   C     C_R   0.287471 0.477806 0.510040 -0.203829
C23   C     C_3   0.542123 0.043209 0.597264 -0.212973
C24   C     C_R   0.709719 0.549272 0.494804 -0.215800
C25   C     C_R   0.928856 0.549619 0.516255 0.303570
C26   C     C_R   0.068102 0.524268 0.501993 0.302998
C27   C     C_3   0.275937 0.447168 0.770633 -0.366760
C28   C     C_3   0.299430 0.307295 0.769556 -0.896912
C29   C     C_3   0.723772 0.568299 0.233289 -0.377659
C30   C     C_3   0.721417 0.436938 0.163038 -0.857437
C31   C     C_3   0.123388 0.494264 0.764485 -0.388738
C32   C     C_3   0.123864 0.622088 0.842944 -0.878839
C33   C     C_3   0.876396 0.579196 0.251709 -0.400335
C34   C     C_3   0.458487 0.955749 0.404640 -0.245219
C35   C     C_3   0.894295 0.718168 0.229191 -0.875037
C36   C     C_3   0.150651 0.506185 0.243186 -0.396910
C37   C     C_3   0.132158 0.378137 0.179217 -0.844175
C38   C     C_3   0.842536 0.571635 0.771227 -0.398309
C39   C     C_3   0.851782 0.706110 0.829031 -0.848604
C40   C     C_3   0.317624 0.284789 0.263729 -0.742359
C41   C     C_3   0.666440 0.749437 0.729797 -0.733696
C42   C     C_3   0.428426 0.029563 0.854455 -0.830367
C43   C     C_3   0.573599 0.949207 0.155219 -0.813603
C44   C     C_3   0.606228 0.340699 0.872285 -0.379802
C45   C     C_3   0.565494 0.949326 0.476794 -0.236387
C46   C     C_3   0.621034 0.223555 0.953683 -0.974896
C47   C     C_3   0.397935 0.671085 0.120583 -0.379474
C48   C     C_3   0.345894 0.711898 0.018870 -0.981063
C49   C     C_3   0.435103 0.049551 0.525235 -0.272517
C50   C     C_3   0.497883 0.876833 0.505352 -0.073642
C51   C     C_3   0.502919 0.122454 0.495482 -0.077633
C52   C     C_3   0.474989 0.968780 0.623205 0.314807
H1    H     H_    0.392387 0.425666 0.921811 0.146162
H2    H     H_    0.346733 0.289735 0.699765 0.274244
H3    H     H_    0.310898 0.279725 0.874463 0.233559
H4    H     H_    0.317239 0.513864 0.793069 0.219422
H5    H     H_    0.240024 0.462743 0.862374 0.202025
H6    H     H_    0.772496 0.386022 0.162658 0.247529
H7    H     H_    0.681866 0.377884 0.216908 0.282704
H8    H     H_    0.708881 0.447231 0.055203 0.235298
H9    H     H_    0.672763 0.618502 0.243040 0.208164
H10   H     H_    0.754180 0.632601 0.165660 0.197020
H11   H     H_    0.177380 0.648580 0.866618 0.250335
H12   H     H_    0.607336 0.576671 0.077233 0.134479
H13   H     H_    0.101768 0.697942 0.781187 0.276460
H14   H     H_    0.091357 0.616730 0.940787 0.249016
H15   H     H_    0.068472 0.474848 0.744944 0.213292
H16   H     H_    0.136593 0.414401 0.830117 0.197742
H17   H     H_    0.916320 0.761209 0.321193 0.278641
H18   H     H_    0.933712 0.724105 0.141436 0.245058
H19   H     H_    0.847064 0.773896 0.206578 0.252603
H20   H     H_    0.925366 0.523305 0.258979 0.216551
H21   H     H_    0.855793 0.538630 0.157468 0.212167
H22   H     H_    0.179719 0.321101 0.146785 0.258229
H23   H     H_    0.618312 0.905714 0.455781 0.134429
H24   H     H_    0.099169 0.323420 0.252977 0.276001
H25   H     H_    0.102708 0.394187 0.087304 0.240321
H26   H     H_    0.102574 0.566704 0.255171 0.210721
H27   H     H_    0.185461 0.558556 0.170367 0.186874
H28   H     H_    0.880563 0.764631 0.752319 0.273789
H29   H     H_    0.800693 0.752602 0.859590 0.254405
H30   H     H_    0.882074 0.701633 0.921281 0.248954
H31   H     H_    0.810856 0.515231 0.845543 0.184078
H32   H     H_    0.894098 0.521826 0.764502 0.210250
H33   H     H_    0.282767 0.448692 0.168945 0.222615
H34   H     H_    0.382356 0.093412 0.546397 0.141297
H35   H     H_    0.290451 0.227771 0.187238 0.210913
H36   H     H_    0.307648 0.242678 0.366001 0.229950
H37   H     H_    0.374393 0.278233 0.235711 0.247612
H38   H     H_    0.709053 0.601572 0.834484 0.214874
H39   H     H_    0.632584 0.775217 0.823276 0.222526
H40   H     H_    0.634909 0.757379 0.639683 0.242443
H41   H     H_    0.709698 0.817739 0.720779 0.223554
H42   H     H_    0.407712 0.863962 0.746352 0.220755
H43   H     H_    0.417094 0.988887 0.956823 0.243981
H44   H     H_    0.381286 0.081523 0.824942 0.243037
H45   H     H_    0.575678 0.081081 0.676246 0.151487
H46   H     H_    0.471772 0.096899 0.861536 0.254008
H47   H     H_    0.524809 0.125026 0.196246 0.227506
H48   H     H_    0.525957 0.901531 0.123647 0.235286
H49   H     H_    0.606217 0.880473 0.208145 0.245325
H50   H     H_    0.604568 0.978178 0.062224 0.245416
H51   H     H_    0.668109 0.172089 0.906860 0.263705
H52   H     H_    0.629388 0.249615 0.061660 0.287249
H53   H     H_    0.576121 0.159502 0.951156 0.260429
H54   H     H_    0.591325 0.307547 0.770641 0.249244
H55   H     H_    0.654342 0.395987 0.856302 0.199667
H56   H     H_    0.424447 0.918579 0.326341 0.143573
H57   H     H_    0.373134 0.735306 0.919802 0.276519
H58   H     H_    0.308940 0.634300 0.001817 0.245635
H59   H     H_    0.315622 0.796921 0.060729 0.263493
H60   H     H_    0.368040 0.631614 0.208705 0.246001
H61   H     H_    0.425763 0.755517 0.156863 0.198750
H62   H     H_    0.479561 0.292481 0.089255 0.114841
H63   H     H_    0.517984 0.708077 0.909387 0.153654
H64   H     H_    0.257228 0.245475 0.735878 0.256589
N1    N     N_R   0.037435 0.639649 0.531489 -0.179617
N2    N     N_2   0.554817 0.059611 0.243092 -0.301101
N3    N     N_R   0.959578 0.434083 0.488847 -0.196511
N4    N     N_R   0.968469 0.652369 0.537603 -0.173754
N5    N     N_R   0.028414 0.421439 0.482567 -0.182836
N6    N     N_3   0.499950 0.500030 0.863290 -0.102767
N7    N     N_3   0.500050 0.499970 0.136710 -0.103169
N8    N     N_2   0.294471 0.416860 0.263280 -0.279539
N9    N     N_2   0.693604 0.620865 0.738603 -0.279076
N10   N     N_2   0.447029 0.928109 0.755255 -0.298352
O1    O     O_R   0.500000 0.313960 0.616610 -0.634662
O2    O     O_R   0.500000 0.686040 0.383390 -0.627607
O3    O     O_R   0.500030 0.313950 0.383350 -0.628793
O4    O     O_R   0.499970 0.686050 0.616650 -0.619710
O5    O     O_R   0.398120 0.499990 0.616660 -0.620061
O6    O     O_R   0.601880 0.500010 0.383340 -0.615965
O7    O     O_R   0.398150 0.499980 0.383410 -0.603091
O8    O     O_R   0.601850 0.500020 0.616590 -0.597802
Zn1   Zn    Zn3+2 0.499980 0.500010 0.655740 0.929383
Zn2   Zn    Zn3+2 0.500020 0.499990 0.344260 0.923711

loop_
_geom_bond_atom_site_label_1
_geom_bond_atom_site_label_2
_ccdc_geom_bond_type
C48   H58   S    
C37   H22   S    
C23   C45   S    
C38   H31   S    
C4    H63   S    
O4    Zn1   S    
C26   N1    A    
C14   C31   S    
C4    C8    S    
C2    N2    S    
C31   H15   S    
C10   O8    A    
C12   O4    A    
C42   H44   S    
C40   H35   S    
C13   C29   S    
C36   C37   S    
C19   C21   A    
O1    Zn1   S    
C3    C7    S    
O2    Zn2   S    
C38   C39   S    
C11   C14   A    
C9    C22   S    
C47   H60   S    
C46   H53   S    
H33   N8    S    
C15   C17   A    
C9    O5    A    
C28   H64   S    
C33   H20   S    
C17   C19   A    
C41   H41   S    
C31   C32   S    
C35   H18   S    
C3    N7    S    
C49   C51   S    
C30   H8    S    
O7    Zn2   S    
C50   C52   S    
C41   H39   S    
C26   N5    A    
C40   H37   S    
C2    C34   S    
N3    N5    A    
C48   H57   S    
C1    O3    A    
C35   H19   S    
C6    N7    S    
C25   N3    A    
C28   H3    S    
C44   C46   S    
H42   N10   S    
C2    C45   S    
C16   C26   S    
C31   H16   S    
C40   N8    S    
C29   H9    S    
C34   C50   S    
C6    C47   S    
C42   H43   S    
C41   N9    S    
C43   H48   S    
C39   H29   S    
C4    C6    S    
C27   H5    S    
N1    N4    A    
C28   H2    S    
C27   H4    S    
C10   C24   S    
C37   H25   S    
C5    N6    S    
C36   H27   S    
C13   C24   A    
C43   H49   S    
C29   C30   S    
C19   C38   S    
O3    Zn2   S    
C23   C51   S    
C47   C48   S    
C11   C27   S    
O6    Zn2   S    
C49   C52   S    
C30   H7    S    
C41   H40   S    
C4    N6    S    
C1    C51   S    
O8    Zn1   S    
C8    H12   S    
C33   H21   S    
C23   H45   S    
C5    C44   S    
C20   C22   A    
C13   C15   A    
C14   C16   A    
C7    H1    S    
C7    N6    S    
C21   N9    S    
C25   N4    A    
C32   H14   S    
C44   H55   S    
C47   H61   S    
C29   H10   S    
C34   C49   S    
C52   N10   S    
C38   H32   S    
C49   H34   S    
C37   H24   S    
C1    O1    A    
C39   H30   S    
C3    C5    S    
C3    H62   S    
C5    C8    S    
C12   C50   S    
C8    N7    S    
C6    C7    S    
C12   O2    A    
C44   H54   S    
C32   H11   S    
C46   H51   S    
C11   C22   A    
O5    Zn1   S    
N7    Zn2   S    
C45   H23   S    
C34   H56   S    
C39   H28   S    
C40   H36   S    
C42   H46   S    
C43   H50   S    
C17   C25   S    
C36   H26   S    
H47   N2    S    
C23   C52   S    
C46   H52   S    
C45   C50   S    
C30   H6    S    
C33   C35   S    
H38   N9    S    
C18   C20   A    
C10   O6    A    
N6    Zn1   S    
C20   N8    S    
C2    C51   S    
C42   N10   S    
C43   N2    S    
C48   H59   S    
C35   H17   S    
C16   C18   A    
C21   C24   A    
C27   C28   S    
C18   C36   S    
C15   C33   S    
C32   H13   S    
C9    O7    A    
