data_mof_unit_40542.cif
_audit_creation_date              2012-12-10T18:00:48-0500
_audit_creation_method            fapswitch 2.2
_symmetry_space_group_name_H-M    P1
_symmetry_Int_Tables_number       1
_space_group_crystal_system       triclinic
_cell_length_a                    15.862994
_cell_length_b                    10.927732
_cell_length_c                    9.531278
_cell_angle_alpha                 89.793031
_cell_angle_beta                  90.210218
_cell_angle_gamma                 90.284748
_cell_volume                      1652.17193567

loop_
_atom_site_label
_atom_site_type_symbol
_atom_type_description
_atom_site_fract_x
_atom_site_fract_y
_atom_site_fract_z
_atom_type_partial_charge
C1    C     C_R   0.499636 0.261680 0.500284 0.908573
C2    C     C_R   0.499877 0.737596 0.499863 0.937678
C3    C     C_R   0.522188 0.937635 0.378625 0.244627
C4    C     C_R   0.496528 0.059408 0.628651 0.279569
C5    C     C_R   0.499194 0.871017 0.499837 -0.391192
C6    C     C_R   0.499002 0.126936 0.500858 -0.388458
C7    C     C_R   0.431509 0.459082 0.073896 0.096225
C8    C     C_R   0.568182 0.542144 0.925968 0.033022
C9    C     C_R   0.431610 0.458794 0.925492 0.079370
C10   C     C_R   0.568339 0.541465 0.074440 0.092281
C11   C     C_R   0.339839 0.499845 0.499703 0.831596
C12   C     C_R   0.660169 0.500300 0.500296 0.830712
C13   C     C_3   0.972152 0.426953 0.603625 -0.223881
C14   C     C_3   0.027930 0.575928 0.396528 -0.250701
C15   C     C_3   0.027429 0.386279 0.477762 -0.251694
C16   C     C_3   0.972620 0.616599 0.522363 -0.267317
C17   C     C_1   0.250202 0.500102 0.498908 -0.096229
C18   C     C_1   0.749825 0.501159 0.501091 -0.088686
C19   C     C_3   0.028791 0.540861 0.622098 0.442713
C20   C     C_3   0.971297 0.462004 0.378025 0.418966
C21   C     C_3   0.083059 0.500866 0.498351 0.004570
C22   C     C_3   0.916996 0.501992 0.501748 0.003214
C23   C     C_1   0.174689 0.500410 0.498226 0.074360
C24   C     C_1   0.825350 0.501793 0.501799 0.072150
C25   C     C_R   0.500568 0.060886 0.372849 0.243543
C26   C     C_R   0.475241 0.935528 0.621368 0.288392
Cu1   Cu    Cu3+1 0.500000 0.500020 0.640660 1.049718
Cu2   Cu    Cu3+1 0.500000 0.499980 0.359340 1.079483
H1    H     H_    0.050571 0.292292 0.457587 0.200456
H2    H     H_    0.949471 0.710588 0.542501 0.187486
H3    H     H_    0.948647 0.367331 0.689692 0.214289
H4    H     H_    0.051448 0.635614 0.310529 0.201290
H5    H     H_    0.376353 0.426293 0.128688 0.172013
H6    H     H_    0.622734 0.577001 0.870914 0.146946
H7    H     H_    0.376796 0.424739 0.870137 0.156195
H8    H     H_    0.623118 0.575635 0.129757 0.185663
N1    N     N_R   0.500020 0.500030 0.852070 -0.181910
N2    N     N_R   0.499980 0.499970 0.147930 -0.185717
O1    O     O_R   0.500000 0.319660 0.618740 -0.527484
O2    O     O_R   0.500000 0.680340 0.381260 -0.525289
O3    O     O_R   0.499990 0.319630 0.381170 -0.519732
O4    O     O_R   0.500010 0.680370 0.618830 -0.536934
O5    O     O_R   0.379080 0.500000 0.618760 -0.581835
O6    O     O_R   0.620920 0.500000 0.381240 -0.563454
O7    O     O_R   0.379080 0.499970 0.381190 -0.591149
O8    O     O_R   0.620920 0.500030 0.618810 -0.599198
S1    S     S_3+6 0.931921 0.408993 0.213675 0.072489
O9    O     O_2   0.877426 0.298102 0.237638 -0.223363
O10   O     O_2   0.880418 0.507585 0.144899 -0.238121
O11   O     O_3   0.012749 0.371339 0.109062 -0.442013
H9    H     H_    0.051525 0.442579 0.112726 0.373462
S2    S     S_3+6 0.068556 0.593956 0.786126 0.040099
O12   O     O_2   0.125907 0.498811 0.847942 -0.255991
O13   O     O_2   0.117226 0.710789 0.764550 -0.257745
O14   O     O_3   0.988132 0.618781 0.896563 -0.456907
H10   H     H_    0.950433 0.675924 0.845803 0.350668
S3    S     S_3+6 0.459941 0.118933 0.211595 0.124520
O15   O     O_2   0.526732 0.194159 0.139895 -0.192341
O16   O     O_2   0.433290 0.016271 0.116662 -0.135428
O17   O     O_3   0.375070 0.206447 0.242052 -0.536453
H11   H     H_    0.336522 0.153807 0.297529 0.340682
S4    S     S_3+6 0.406679 0.871467 0.750607 0.107341
O18   O     O_2   0.457139 0.802931 0.858741 -0.209525
O19   O     O_2   0.357707 0.970882 0.821539 -0.182096
O20   O     O_3   0.338057 0.774829 0.673350 -0.535963
H12   H     H_    0.309387 0.732089 0.751759 0.394017
S5    S     S_3+6 0.588788 0.877365 0.245827 0.100184
O21   O     O_2   0.536322 0.811694 0.138164 -0.179857
O22   O     O_2   0.636857 0.978866 0.174876 -0.184982
O23   O     O_3   0.658266 0.778608 0.316147 -0.541608
H13   H     H_    0.687447 0.825357 0.390924 0.334957
S6    S     S_3+6 0.530747 0.118027 0.793454 0.125603
O24   O     O_2   0.459808 0.188159 0.858610 -0.224046
O25   O     O_2   0.555960 0.015087 0.889359 -0.136492
O26   O     O_3   0.615070 0.210304 0.772361 -0.518302
H14   H     H_    0.621646 0.253128 0.863213 0.382973

loop_
_geom_bond_atom_site_label_1
_geom_bond_atom_site_label_2
_ccdc_geom_bond_type
O14   H10   S    
S1    O10   D    
C17   C23   T    
C18   C24   T    
C14   C21   S    
C19   C21   S    
Cu1   N1    S    
S3    O16   D    
C6    C25   A    
Cu2   O2    S    
C16   H2    S    
Cu2   O3    S    
S4    O19   D    
C19   S2    S    
Cu1   O1    S    
C11   O5    A    
O23   H13   S    
S2    O14   S    
C7    H5    S    
C25   S3    S    
S6    O26   S    
S2    O13   D    
C15   H1    S    
S1    O11   S    
C15   C20   S    
Cu2   O7    S    
C13   C19   S    
S5    O21   D    
C14   C20   S    
C3    C25   A    
C4    C6    A    
S3    O17   S    
Cu2   O6    S    
C1    C6    S    
O17   H11   S    
S5    O22   D    
C12   O8    A    
O26   H14   S    
S4    O18   D    
Cu1   O5    S    
S1    O9    D    
Cu2   N2    S    
C9    N1    A    
O11   H9    S    
C8    H6    S    
Cu1   O8    S    
S6    O25   D    
C20   C22   S    
C13   C15   S    
C14   C16   S    
C11   O7    A    
C2    C5    S    
C8    N1    A    
C4    S6    S    
S2    O12   D    
C1    O3    A    
C7    C9    A    
C11   C17   S    
C16   C22   S    
S4    O20   S    
C13   H3    S    
C3    S5    S    
C14   H4    S    
S6    O24   D    
C3    C5    A    
C4    C26   A    
C10   N2    A    
S5    O23   S    
C21   C23   S    
C26   S4    S    
C12   O6    A    
Cu1   O4    S    
S3    O15   D    
C2    O4    A    
C16   C19   S    
C7    N2    A    
C13   C22   S    
C22   C24   S    
C20   S1    S    
C1    O1    A    
C5    C26   A    
C2    O2    A    
C15   C21   S    
C8    C10   A    
O20   H12   S    
C12   C18   S    
Cu1   Cu2   S    
C9    H7    S    
C10   H8    S    
