data_mof_unit_37159.cif
_audit_creation_date              2012-12-10T17:31:13-0500
_audit_creation_method            fapswitch 2.2
_symmetry_space_group_name_H-M    P1
_symmetry_Int_Tables_number       1
_space_group_crystal_system       triclinic
_cell_length_a                    12.007293
_cell_length_b                    12.874038
_cell_length_c                    15.44588
_cell_angle_alpha                 86.790332
_cell_angle_beta                  116.321962
_cell_angle_gamma                 93.688558
_cell_volume                      2134.65927377

loop_
_atom_site_label
_atom_site_type_symbol
_atom_type_description
_atom_site_fract_x
_atom_site_fract_y
_atom_site_fract_z
_atom_type_partial_charge
C1    C     C_R   0.476734 0.299470 0.497837 0.922643
C2    C     C_R   0.634051 0.971751 0.476163 -0.192717
C3    C     C_R   0.369861 0.135988 0.516189 -0.198803
C4    C     C_R   0.629695 0.864041 0.483053 -0.202556
C5    C     C_R   0.548698 0.133390 0.481415 -0.202854
C6    C     C_R   0.450609 0.866697 0.517484 -0.207709
C7    C     C_R   0.545694 0.026467 0.488804 0.161094
C8    C     C_R   0.453558 0.973596 0.510002 0.168146
C9    C     C_R   0.999404 0.595032 0.405601 -0.329210
C10   C     C_R   0.000652 0.405059 0.594478 -0.324348
C11   C     C_R   0.120957 0.586542 0.415602 0.027740
C12   C     C_R   0.523187 0.700546 0.502009 0.919790
C13   C     C_R   0.879094 0.413543 0.584472 0.041052
C14   C     C_R   0.163089 0.459708 0.542043 0.013913
C15   C     C_R   0.836904 0.540277 0.457944 -0.000782
C16   C     C_R   0.577548 0.497330 0.680547 0.939652
C17   C     C_R   0.422425 0.502521 0.319469 0.937202
C18   C     C_R   0.041482 0.465727 0.534662 0.081727
C19   C     C_R   0.958545 0.534313 0.465373 0.083799
C20   C     C_R   0.627783 0.495918 0.785188 -0.165062
C21   C     C_R   0.371976 0.503118 0.214853 -0.168276
C22   C     C_R   0.770370 0.428815 0.942152 -0.176167
C23   C     C_R   0.637493 0.461060 0.112588 -0.119701
C24   C     C_R   0.228850 0.568840 0.057501 -0.176285
C25   C     C_R   0.734543 0.441568 0.843394 -0.254641
C26   C     C_R   0.265162 0.557275 0.156394 -0.253095
C27   C     C_R   0.561340 0.542027 0.826667 0.356274
C28   C     C_R   0.437883 0.455931 0.173523 0.354903
C29   C     C_R   0.577419 0.504976 0.918655 -0.036125
C30   C     C_R   0.421438 0.491802 0.081197 -0.023311
C31   C     C_R   0.690498 0.457687 0.979860 0.121257
C32   C     C_R   0.308357 0.539024 0.019814 0.117712
C33   C     C_R   0.484533 0.510625 0.950911 0.082781
C34   C     C_R   0.361154 0.534640 0.887093 -0.125997
C35   C     C_R   0.514184 0.485483 0.048873 0.097965
C36   C     C_R   0.722112 0.441029 0.077638 -0.194565
C37   C     C_R   0.276505 0.554882 0.921931 -0.191951
C38   C     C_R   0.536831 0.811973 0.502376 -0.038677
C39   C     C_R   0.462790 0.188077 0.496966 -0.043768
C40   C     C_R   0.365259 0.028283 0.522735 -0.191296
H1    H     H_    0.812649 0.413521 0.127257 0.153344
H2    H     H_    0.143517 0.607095 0.011914 0.157454
H3    H     H_    0.669464 0.456004 0.189676 0.189898
H4    H     H_    0.329340 0.539403 0.810017 0.200611
H5    H     H_    0.379719 0.826197 0.533744 0.163958
H6    H     H_    0.619444 0.173950 0.464982 0.188843
H7    H     H_    0.696549 0.821691 0.471163 0.160070
H8    H     H_    0.303175 0.178313 0.528314 0.160806
H9    H     H_    0.294081 0.987979 0.538655 0.144661
H10   H     H_    0.705225 0.012036 0.460230 0.150111
H11   H     H_    0.772518 0.593138 0.405161 0.114912
H12   H     H_    0.185933 0.582240 0.872210 0.153926
H13   H     H_    0.227469 0.406836 0.594816 0.116435
H14   H     H_    0.542577 0.196321 0.165980 0.384797
H15   H     H_    0.329724 0.725446 0.665550 0.372229
H16   H     H_    0.848732 0.366800 0.631122 0.122488
H17   H     H_    0.151350 0.633334 0.368997 0.124423
H18   H     H_    0.937898 0.648543 0.351411 0.149787
H19   H     H_    0.062183 0.351589 0.648702 0.149567
H20   H     H_    0.210443 0.590438 0.187075 0.171850
H21   H     H_    0.789579 0.409133 0.812616 0.172092
H22   H     H_    0.855703 0.390479 0.987580 0.157439
N1    N     N_R   0.799120 0.480200 0.517090 -0.089228
N2    N     N_R   0.200880 0.519800 0.482910 -0.087772
O1    O     O_R   0.580150 0.341050 0.504560 -0.605066
O2    O     O_2   0.413766 0.272326 0.256274 -0.311566
O3    O     O_3   0.505350 0.262567 0.133506 -0.547905
O4    O     O_2   0.493474 0.727688 0.857637 -0.288946
O5    O     O_2   0.581757 0.725667 0.742340 -0.311931
O6    O     O_3   0.355329 0.653374 0.687796 -0.578660
O7    O     O_R   0.419850 0.658950 0.495440 -0.610669
O8    O     O_R   0.388090 0.353760 0.493600 -0.635270
O9    O     O_R   0.611910 0.646240 0.506400 -0.634401
O10   O     O_R   0.650890 0.490020 0.640860 -0.631148
O11   O     O_R   0.349110 0.509980 0.359140 -0.628281
O12   O     O_R   0.458830 0.502730 0.629890 -0.570761
O13   O     O_R   0.541170 0.497270 0.370110 -0.581301
O14   O     O_2   0.626167 0.341867 0.303436 -0.331716
S1    S     S_3+6 0.498484 0.330934 0.220570 0.000643
S2    S     S_3+6 0.498881 0.666550 0.779553 0.004989
Zn1   Zn    Zn3+2 0.628240 0.491510 0.507320 0.987103
Zn2   Zn    Zn3+2 0.371760 0.508490 0.492680 0.982429

loop_
_geom_bond_atom_site_label_1
_geom_bond_atom_site_label_2
_ccdc_geom_bond_type
O4    S2    D    
C21   C26   A    
C6    H5    S    
C27   C29   A    
C34   C37   A    
C24   H2    S    
C14   C18   A    
C2    C7    A    
C7    C8    A    
C15   C19   A    
O2    S1    D    
C30   C35   A    
N1    Zn1   S    
C16   O10   A    
C24   C26   A    
C18   C19   A    
C20   C25   A    
C40   H9    S    
C29   C33   A    
C3    H8    S    
C23   H3    S    
C9    H18   S    
C28   S1    S    
C2    H10   S    
C9    C19   A    
C22   C25   A    
C1    O1    A    
C6    C38   A    
C15   H11   S    
C13   H16   S    
C3    C39   A    
C12   O9    A    
C36   H1    S    
O9    Zn1   S    
C1    O8    A    
C22   C31   A    
O6    S2    S    
C34   H4    S    
C27   S2    S    
O12   Zn2   S    
C5    C7    A    
C37   H12   S    
O14   S1    D    
C6    C8    A    
H14   O3    S    
C17   C21   S    
C2    C4    A    
C24   C32   A    
C22   H22   S    
O1    Zn1   S    
C13   N1    A    
O13   Zn1   S    
C16   C20   S    
C14   N2    A    
C17   O13   A    
C33   C34   A    
O3    S1    S    
C25   H21   S    
C32   C37   A    
C9    C11   A    
N2    Zn2   S    
C21   C28   A    
C4    C38   A    
C3    C40   A    
C11   N2    A    
C23   C35   A    
C5    C39   A    
O10   Zn1   S    
C16   O12   A    
C12   O7    A    
C10   C13   A    
O11   Zn2   S    
C20   C27   A    
C5    H6    S    
O7    Zn2   S    
C28   C30   A    
C10   H19   S    
C29   C31   A    
C30   C32   A    
C10   C18   A    
C33   C35   A    
C12   C38   S    
H15   O6    S    
C1    C39   S    
C14   H13   S    
C23   C36   A    
C17   O11   A    
C15   N1    A    
C31   C36   A    
O5    S2    D    
C8    C40   A    
C11   H17   S    
C26   H20   S    
O8    Zn2   S    
C4    H7    S    
