data_mof_unit_52804.cif
_audit_creation_date              2012-12-10T20:44:45-0500
_audit_creation_method            fapswitch 2.2
_symmetry_space_group_name_H-M    P1
_symmetry_Int_Tables_number       1
_space_group_crystal_system       triclinic
_cell_length_a                    9.869314
_cell_length_b                    10.618719
_cell_length_c                    16.687975
_cell_angle_alpha                 88.30589
_cell_angle_beta                  94.211278
_cell_angle_gamma                 88.451297
_cell_volume                      1742.6586964

loop_
_atom_site_label
_atom_site_type_symbol
_atom_type_description
_atom_site_fract_x
_atom_site_fract_y
_atom_site_fract_z
_atom_type_partial_charge
C1    C     C_R   0.501674 0.260236 0.500398 0.881451
C2    C     C_R   0.650851 0.478525 0.789763 0.123113
C3    C     C_R   0.599705 0.493069 0.137950 0.204812
C4    C     C_R   0.598535 0.506874 0.220425 -0.232018
C5    C     C_R   0.476851 0.467048 0.093767 0.311013
C6    C     C_R   0.477669 0.494488 0.259002 -0.069895
C7    C     C_R   0.356231 0.470128 0.214279 -0.230997
C8    C     C_R   0.355782 0.458522 0.131652 -0.237007
C9    C     C_R   0.546503 0.065681 0.434651 -0.037260
C10   C     C_R   0.502563 0.128201 0.500460 -0.031910
C11   C     C_R   0.430312 0.064011 0.557413 -0.221056
C12   C     C_R   0.517242 0.496921 0.654423 0.894735
C13   C     C_R   0.424724 0.933996 0.555406 -0.214719
C14   C     C_R   0.489810 0.871425 0.495707 -0.101649
C15   C     C_R   0.536938 0.938474 0.431293 0.043740
C16   C     C_3   0.658777 0.923166 0.384373 0.210814
C17   C     C_3   0.673768 0.066301 0.390794 0.254410
C18   C     C_R   0.080554 0.442631 0.561659 0.206167
C19   C     C_R   0.061002 0.569275 0.443596 0.196828
C20   C     C_R   0.917249 0.568185 0.444097 -0.142387
C21   C     C_R   0.938325 0.444076 0.562298 0.171351
C22   C     C_3   0.938850 0.309393 0.590104 -0.507246
C23   C     C_R   0.497737 0.739602 0.498457 0.888396
C24   C     C_3   0.092414 0.306871 0.587046 -0.493851
C25   C     C_R   0.483124 0.500956 0.346191 0.891231
C26   C     C_R   0.526034 0.472129 0.742272 -0.247201
C27   C     C_R   0.408938 0.429179 0.778698 0.417385
C28   C     C_R   0.422549 0.372246 0.855553 0.109937
C29   C     C_R   0.545101 0.383747 0.902535 0.196445
C30   C     C_R   0.657807 0.434710 0.869627 -0.245400
H1    H     H_    0.692712 0.527189 0.254539 0.165052
H2    H     H_    0.377188 0.882435 0.602321 0.144301
H3    H     H_    0.739626 0.861793 0.416721 0.114393
H4    H     H_    0.658276 0.123065 0.333406 0.086396
H5    H     H_    0.853250 0.619755 0.398183 0.142334
H6    H     H_    0.906429 0.298182 0.652193 0.201738
H7    H     H_    0.885603 0.248516 0.546161 0.266298
H8    H     H_    0.147414 0.290999 0.647061 0.244184
H9    H     H_    0.129439 0.247331 0.539125 0.206652
H10   H     H_    0.749534 0.446075 0.908315 0.162573
H11   H     H_    0.262537 0.457946 0.242925 0.156609
H12   H     H_    0.261425 0.440890 0.096990 0.146154
H13   H     H_    0.384158 0.113563 0.604850 0.149945
N1    N     N_2   0.546483 0.376082 0.986547 -0.166196
N2    N     N_2   0.470648 0.460751 0.010008 -0.192143
N3    N     N_R   0.142860 0.499130 0.500540 -0.116314
N4    N     N_R   0.857210 0.499170 0.500530 -0.118001
O1    O     O_R   0.614690 0.316790 0.499990 -0.586904
O2    O     O_R   0.385350 0.316760 0.500000 -0.625136
O3    O     O_R   0.627460 0.498860 0.616130 -0.605931
O4    O     O_R   0.398120 0.498820 0.616130 -0.581802
O5    O     O_R   0.614650 0.683240 0.500000 -0.623986
O6    O     O_R   0.385310 0.683210 0.500010 -0.633984
O7    O     O_R   0.601880 0.501180 0.383870 -0.624475
O8    O     O_R   0.372540 0.501140 0.383870 -0.619916
Zn1   Zn    Zn3+2 0.653130 0.500020 0.499990 0.949496
Zn2   Zn    Zn3+2 0.346870 0.499980 0.500010 0.941109
O9    O     O_3   0.617646 0.887547 0.305572 -0.645222
C31   C     C_3   0.732761 0.870114 0.261373 0.057774
H14   H     H_    0.792929 0.785024 0.284940 0.125099
H15   H     H_    0.797823 0.954006 0.264192 0.127360
C32   C     C_3   0.686116 0.851991 0.173294 -0.287312
H16   H     H_    0.625821 0.765494 0.168057 0.237311
H17   H     H_    0.619968 0.933682 0.150577 0.227198
C33   C     C_3   0.807005 0.841264 0.121621 -0.983588
H18   H     H_    0.863594 0.930292 0.122403 0.265559
H19   H     H_    0.770264 0.823409 0.058608 0.269352
H20   H     H_    0.876924 0.762403 0.144339 0.264068
O10   O     O_3   0.787149 0.097252 0.442544 -0.621079
C34   C     C_3   0.905399 0.110218 0.399822 0.109495
H21   H     H_    0.960772 0.192730 0.422967 0.152339
H22   H     H_    0.884196 0.131197 0.334217 0.067286
C35   C     C_3   0.000813 0.993516 0.412421 -0.398084
H23   H     H_    0.956409 0.913473 0.379744 0.182647
H24   H     H_    0.098645 0.014231 0.386462 0.191202
C36   C     C_3   0.029642 0.954117 0.500949 -0.757113
H25   H     H_    0.075250 0.032231 0.535231 0.247441
H26   H     H_    0.102320 0.872077 0.506206 0.236212
H27   H     H_    0.934631 0.926123 0.527560 0.273406
C37   C     C_3   0.118618 0.643963 0.377046 -0.831072
H28   H     H_    0.201228 0.703944 0.400142 0.273960
H29   H     H_    0.153191 0.579530 0.331560 0.241221
H30   H     H_    0.040305 0.708036 0.345240 0.178257
C38   C     C_3   0.730670 0.509743 0.098129 -0.928902
H31   H     H_    0.715618 0.582040 0.048610 0.253584
H32   H     H_    0.813435 0.540510 0.141203 0.230520
H33   H     H_    0.764885 0.419079 0.073853 0.250028
C39   C     C_3   0.773996 0.540870 0.759974 -0.843441
H34   H     H_    0.823964 0.479223 0.717922 0.253053
H35   H     H_    0.850083 0.559260 0.810217 0.228036
H36   H     H_    0.744289 0.633268 0.729961 0.239034
C40   C     C_3   0.304892 0.305969 0.889785 -0.857903
H37   H     H_    0.341084 0.213571 0.917420 0.235091
H38   H     H_    0.260221 0.363391 0.936204 0.234209
H39   H     H_    0.223184 0.287013 0.842759 0.260329
O11   O     O_3   0.279781 0.442682 0.740272 -0.648705
C41   C     C_3   0.231274 0.569177 0.745057 0.143143
H40   H     H_    0.151458 0.586777 0.695289 0.160949
H41   H     H_    0.310991 0.639637 0.735853 0.113123
C42   C     C_3   0.167756 0.591152 0.824766 -0.395059
H42   H     H_    0.092361 0.517635 0.834855 0.231212
H43   H     H_    0.248033 0.584670 0.875077 0.230537
C43   C     C_3   0.097828 0.721121 0.824684 -0.969023
H44   H     H_    0.172895 0.795895 0.817272 0.267567
H45   H     H_    0.051360 0.733599 0.882648 0.270912
H46   H     H_    0.016515 0.731104 0.775050 0.266314

loop_
_geom_bond_atom_site_label_1
_geom_bond_atom_site_label_2
_ccdc_geom_bond_type
C17   O10   S    
C18   C21   A    
C35   H23   S    
C13   H2    S    
C19   C20   A    
C36   H27   S    
C12   O4    A    
C41   H40   S    
C19   N3    A    
C7    C8    A    
C26   C27   A    
C32   H16   S    
C18   C24   S    
C28   C29   A    
C8    H12   S    
C6    C25   S    
C15   C16   S    
C24   H9    S    
O2    Zn2   S    
C40   H37   S    
C32   H17   S    
C20   H5    S    
C38   H31   S    
C16   C17   S    
C33   H19   S    
C24   H8    S    
C38   H33   S    
C11   H13   S    
C34   H21   S    
O4    Zn2   S    
C9    C10   A    
C7    H11   S    
C31   H14   S    
C21   C22   S    
C35   H24   S    
C27   O11   S    
C19   C37   S    
C37   H30   S    
C18   N3    A    
C40   H38   S    
C41   H41   S    
C23   O6    A    
O7    Zn1   S    
C31   H15   S    
C4    H1    S    
C25   O7    A    
C37   H29   S    
O6    Zn2   S    
C3    C38   S    
O9    C31   S    
C22   H7    S    
C5    N2    S    
C42   C43   S    
O3    Zn1   S    
C12   C26   S    
C14   C23   S    
C29   C30   A    
C16   H3    S    
C39   H36   S    
C33   H20   S    
O11   C41   S    
C34   C35   S    
C42   H43   S    
C30   H10   S    
C43   H45   S    
C16   O9    S    
C36   H25   S    
C2    C39   S    
C4    C6    A    
C39   H35   S    
O8    Zn2   S    
C29   N1    S    
C35   C36   S    
C22   C24   S    
C17   H4    S    
C3    C4    A    
C43   H44   S    
C41   C42   S    
N1    N2    D    
C9    C17   S    
O1    Zn1   S    
C31   C32   S    
C32   C33   S    
C1    C10   S    
C25   O8    A    
C36   H26   S    
C37   H28   S    
C3    C5    A    
C2    C26   A    
C5    C8    A    
C12   O3    A    
C1    O1    A    
C6    C7    A    
C22   H6    S    
C2    C30   A    
C9    C15   A    
N3    Zn2   S    
C11   C13   A    
C23   O5    A    
C42   H42   S    
C43   H46   S    
C40   H39   S    
O10   C34   S    
C20   N4    A    
C10   C11   A    
C28   C40   S    
C39   H34   S    
C33   H18   S    
C27   C28   A    
C14   C15   A    
C38   H32   S    
C34   H22   S    
C13   C14   A    
C1    O2    A    
O5    Zn1   S    
N4    Zn1   S    
C21   N4    A    
