data_mof_unit_41093.cif
_audit_creation_date              2012-12-11T14:29:46-0500
_audit_creation_method            fapswitch 2.2
_symmetry_space_group_name_H-M    P1
_symmetry_Int_Tables_number       1
_space_group_crystal_system       triclinic
_cell_length_a                    6.93882
_cell_length_b                    14.763055
_cell_length_c                    16.288054
_cell_angle_alpha                 90.372526
_cell_angle_beta                  89.913232
_cell_angle_gamma                 90.115144
_cell_volume                      1668.47811203

loop_
_atom_site_label
_atom_site_type_symbol
_atom_type_description
_atom_site_fract_x
_atom_site_fract_y
_atom_site_fract_z
_atom_type_partial_charge
O1    O     O_R   0.494400 0.416610 0.413880 -0.516801
O2    O     O_R   0.823920 0.406790 0.585520 -0.535886
O3    O     O_R   0.994250 0.583390 0.586120 -0.530888
C1    C     C_R   0.654342 0.385983 0.614262 0.800818
O4    O     O_R   0.824110 0.405730 0.414490 -0.568279
O5    O     O_R   0.994440 0.582310 0.413870 -0.547584
C2    C     C_R   0.654966 0.383065 0.387224 0.624483
O6    O     O_R   0.494210 0.417690 0.586130 -0.527437
O7    O     O_3   0.660810 0.557940 0.500000 -0.379227
V1    V     V_3+5 0.935650 0.489250 0.500000 1.581055
O8    O     O_R   0.324160 0.593210 0.414480 -0.535291
C3    C     C_R   0.155429 0.613228 0.385093 0.833758
O9    O     O_R   0.323970 0.594270 0.585510 -0.532297
C4    C     C_R   0.155022 0.615981 0.614031 0.954335
V2    V     V_3+5 0.435660 0.510750 0.500000 1.613400
O10   O     O_3   0.160630 0.442060 0.500000 -0.366628
C5    C     C_R   0.163639 0.561944 0.785060 0.562442
C6    C     C_R   0.162422 0.533614 0.866170 -0.281785
C7    C     C_R   0.146220 0.595911 0.929706 -0.185842
C8    C     C_R   0.132713 0.688298 0.912753 0.550861
C9    C     C_R   0.133437 0.720581 0.830162 -0.098629
C10   C     C_R   0.147714 0.655567 0.764879 -0.125842
C11   C     C_R   0.120019 0.815119 0.812143 -0.096231
C12   C     C_R   0.116690 0.844912 0.728007 -0.037137
C13   C     C_R   0.124634 0.778368 0.663252 -0.136597
C14   C     C_R   0.143951 0.684526 0.681767 -0.118022
C15   C     C_R   0.104547 0.939018 0.704838 -0.200272
C16   C     C_R   0.090280 0.963842 0.621627 -0.256580
C17   C     C_R   0.093749 0.898212 0.560643 0.611344
C18   C     C_R   0.112840 0.807638 0.580244 0.474538
H1    H     H_    0.173529 0.461926 0.879401 0.194898
C19   C     C_2   0.994365 0.724970 0.292469 -0.174053
C20   C     C_2   0.148162 0.670911 0.310800 -0.278197
C21   C     C_2   0.976667 0.776721 0.214654 0.604261
C22   C     C_2   0.123582 0.825924 0.184477 -0.327059
H2    H     H_    0.260604 0.827034 0.216551 0.121830
C23   C     C_2   0.771604 0.231456 0.799735 0.644367
C24   C     C_2   0.616907 0.178288 0.815373 -0.384064
H3    H     H_    0.490489 0.180965 0.776532 0.113381
C25   C     C_2   0.787067 0.293079 0.727705 -0.191925
C26   C     C_2   0.636321 0.320874 0.682573 -0.354447
H4    H     H_    0.929591 0.319554 0.713924 0.207454
H5    H     H_    0.491366 0.299628 0.698296 0.164263
C27   C     C_2   0.762144 0.199314 0.224654 -0.045586
C28   C     C_2   0.622531 0.192313 0.166218 -0.193000
C29   C     C_2   0.783931 0.281206 0.277145 -0.223062
C30   C     C_2   0.639728 0.307342 0.327957 0.463866
O11   O     O_R   0.770210 0.079270 0.910680 -0.510613
O12   O     O_R   0.440150 0.091160 0.082270 -0.544489
O13   O     O_R   0.269970 0.914530 0.082860 -0.539082
C31   C     C_R   0.609586 0.114287 0.109203 0.671300
O14   O     O_R   0.440480 0.090100 0.911240 -0.538327
O15   O     O_R   0.270310 0.913460 0.910610 -0.540786
C32   C     C_R   0.609714 0.112855 0.883973 0.778308
O16   O     O_R   0.769870 0.080340 0.082930 -0.550288
O17   O     O_3   0.603660 0.938980 0.996790 -0.367298
V3    V     V_3+5 0.328750 0.007610 0.996740 1.587281
O18   O     O_R   0.940600 0.902510 0.911180 -0.537539
C33   C     C_R   0.109393 0.881713 0.881721 0.817934
O19   O     O_R   0.940270 0.903570 0.082200 -0.497082
C34   C     C_R   0.108940 0.884410 0.111852 0.909176
V4    V     V_3+5 0.828770 0.986010 0.996670 1.629687
O20   O     O_3   0.103730 0.054750 0.996710 -0.368944
F1    F     F_    0.080713 0.922213 0.480390 -0.625705
C35   C     C_1   0.306180 0.658747 0.253393 0.341901
N1    N     N_1   0.432610 0.648729 0.207810 -0.250400
F2    F     F_    0.800472 0.779561 0.178078 -0.646782
F3    F     F_    0.924615 0.230394 0.851784 -0.656837
C36   C     C_1   0.897172 0.126356 0.239456 0.394911
N2    N     N_1   0.005131 0.068258 0.251383 -0.311362
C37   C     C_1   0.494479 0.267443 0.149516 0.411494
N3    N     N_1   0.393074 0.327463 0.135403 -0.297464
C38   C     C_1   0.965152 0.329877 0.273031 0.327089
N4    N     N_1   0.109329 0.369242 0.270134 -0.255598
F4    F     F_    0.179996 0.495578 0.727427 -0.713241
F5    F     F_    0.471923 0.259248 0.328462 -0.647428
C39   C     C_1   0.142286 0.564295 0.013306 0.485149
N5    N     N_1   0.138783 0.538834 0.080343 -0.303971
F6    F     F_    0.117465 0.744898 0.978373 -0.705798
C40   C     C_1   0.111925 0.013435 0.762849 0.256192
N6    N     N_1   0.118413 0.074245 0.807760 -0.248161
C41   C     C_1   0.072649 0.057743 0.597020 0.462436
N7    N     N_1   0.058495 0.132670 0.577468 -0.325190
F7    F     F_    0.117970 0.749552 0.515611 -0.699758
C42   C     C_1   0.833267 0.734798 0.348518 0.524816
N8    N     N_1   0.704389 0.742984 0.393137 -0.288235

loop_
_geom_bond_atom_site_label_1
_geom_bond_atom_site_label_2
_ccdc_geom_bond_type
O18   V4    S    
C23   F3    S    
C28   C37   S    
C38   N4    T    
C22   H2    S    
C12   C15   A    
C1    O6    A    
O15   C33   A    
C20   C35   S    
C39   N5    T    
O11   C32   A    
C17   C18   A    
C16   C17   A    
C23   C24   D    
C30   F5    S    
C6    C7    A    
C23   C25   S    
O5    C3    A    
C24   H3    S    
C1    C26   S    
C28   C31   S    
V2    O10   S    
O16   V4    S    
O12   V3    S    
O17   V3    S    
O19   V4    S    
C21   C22   D    
C7    C39   S    
O8    V2    S    
C7    C8    A    
C27   C29   S    
O12   C31   A    
C11   C12   A    
O1    V2    S    
O7    V1    S    
C8    F6    S    
C25   H4    S    
C17   F1    S    
O9    C4    A    
C26   H5    S    
C13   C14   A    
O14   C32   A    
V3    O20   S    
C16   C41   S    
C12   C13   A    
C15   C40   S    
O4    C2    A    
O15   V3    S    
O18   C33   A    
C42   N8    T    
O19   C34   A    
C19   C21   S    
O2    C1    A    
V4    O20   S    
O11   V4    S    
C24   C32   S    
C5    C6    A    
C27   C36   S    
C22   C34   S    
C4    C14   S    
O3    C4    A    
C25   C26   D    
C35   N1    T    
O6    V2    S    
O9    V2    S    
O17   V4    S    
O2    V1    S    
C27   C28   D    
C13   C18   A    
C29   C30   D    
C11   C33   S    
O1    C2    A    
O13   V3    S    
C40   N6    T    
C21   F2    S    
O5    V1    S    
O8    C3    A    
C5    C10   A    
C19   C20   D    
C9    C11   A    
O7    V2    S    
C37   N3    T    
O3    V1    S    
V1    O10   S    
C19   C42   S    
C31   O16   A    
C18   F7    S    
C36   N2    T    
O14   V3    S    
O4    V1    S    
C8    C9    A    
C41   N7    T    
C10   C14   A    
C15   C16   A    
C5    F4    S    
O13   C34   A    
C6    H1    S    
C3    C20   S    
C9    C10   A    
C29   C38   S    
C2    C30   S    
