data_mof_unit_51002.cif
_audit_creation_date              2012-10-26T18:39:52-0400
_audit_creation_method            fapswitch 2.2
_symmetry_space_group_name_H-M    P1
_symmetry_Int_Tables_number       1
_space_group_crystal_system       triclinic
_cell_length_a                    27.29045
_cell_length_b                    27.44243
_cell_length_c                    18.034934
_cell_angle_alpha                 89.867641
_cell_angle_beta                  90.096757
_cell_angle_gamma                 89.930538
_cell_volume                      13506.5901005

loop_
_atom_site_label
_atom_site_type_symbol
_atom_type_description
_atom_site_fract_x
_atom_site_fract_y
_atom_site_fract_z
_atom_type_partial_charge
C1    C     C_R   0.065945 0.433152 0.500054 0.553222
C2    C     C_R   0.000617 0.500075 0.840453 0.003543
C3    C     C_R   0.976863 0.386172 0.872922 -0.069528
C4    C     C_R   0.003896 0.407428 0.165012 0.030216
C5    C     C_R   0.963140 0.391698 0.123976 -0.068258
C6    C     C_R   0.962436 0.344918 0.093552 -0.102306
C7    C     C_R   0.002574 0.313814 0.103076 -0.100750
C8    C     C_R   0.043287 0.329255 0.143833 -0.102902
C9    C     C_R   0.043865 0.375786 0.175248 -0.087269
C10   C     C_R   0.986179 0.591581 0.834953 0.032129
C11   C     C_R   0.941911 0.617307 0.827350 -0.086723
C12   C     C_R   0.936784 0.663535 0.858865 -0.102526
C13   C     C_R   0.500750 0.999890 0.159903 0.004352
C14   C     C_R   0.975981 0.684622 0.897012 -0.094595
C15   C     C_R   0.020354 0.659503 0.903731 -0.097518
C16   C     C_R   0.025436 0.612979 0.873279 -0.070911
C17   C     C_R   0.499249 0.092340 0.163937 0.032143
C18   C     C_R   0.540846 0.106767 0.123802 -0.069699
C19   C     C_R   0.543198 0.153375 0.092676 -0.099152
C20   C     C_R   0.503886 0.185630 0.100614 -0.093049
C21   C     C_R   0.462357 0.171499 0.140472 -0.102360
C22   C     C_R   0.460118 0.125128 0.172587 -0.088725
C23   C     C_R   0.515779 0.908742 0.835653 0.031001
C24   C     C_R   0.500615 0.000071 0.840452 0.003536
C25   C     C_R   0.560981 0.884524 0.830021 -0.084886
C26   C     C_R   0.567296 0.838652 0.862576 -0.103670
C27   C     C_R   0.528343 0.816375 0.899669 -0.095904
C28   C     C_R   0.483052 0.839994 0.904399 -0.094765
C29   C     C_R   0.476790 0.886212 0.873004 -0.069433
C30   C     C_R   0.503781 0.907426 0.165010 0.030250
C31   C     C_R   0.462992 0.891745 0.124005 -0.068268
C32   C     C_R   0.462215 0.844963 0.093594 -0.102376
C33   C     C_R   0.502314 0.813806 0.103098 -0.100776
C34   C     C_R   0.543059 0.829197 0.143825 -0.102882
C35   C     C_R   0.998017 0.544123 0.200524 -0.054452
C36   C     C_R   0.543710 0.875730 0.175230 -0.087282
C37   C     C_R   0.486283 0.091592 0.834956 0.032135
C38   C     C_R   0.442048 0.117375 0.827360 -0.086720
C39   C     C_R   0.436983 0.163611 0.858871 -0.102513
C40   C     C_R   0.476212 0.184649 0.897006 -0.094595
C41   C     C_R   0.520553 0.159474 0.903718 -0.097559
C42   C     C_R   0.525571 0.112942 0.873271 -0.070925
C43   C     C_R   0.818715 0.328943 0.638999 0.047835
C44   C     C_R   0.785354 0.358142 0.678035 -0.074257
C45   C     C_R   0.769282 0.343910 0.748395 -0.102795
C46   C     C_R   0.008741 0.456574 0.799485 -0.056437
C47   C     C_R   0.787057 0.300977 0.780525 -0.094200
C48   C     C_R   0.820747 0.272106 0.742183 -0.102467
C49   C     C_R   0.836257 0.285751 0.671287 -0.077875
C50   C     C_R   0.160744 0.689998 0.360368 0.045785
C51   C     C_R   0.150498 0.739947 0.352901 -0.071308
C52   C     C_R   0.155914 0.762989 0.284240 -0.106831
C53   C     C_R   0.171951 0.736509 0.222757 -0.099954
C54   C     C_R   0.182351 0.686845 0.229775 -0.104746
C55   C     C_R   0.176518 0.663530 0.298204 -0.083414
C56   C     C_R   0.186053 0.667276 0.637366 0.045393
C57   C     C_R   0.003458 0.455728 0.201038 -0.055644
C58   C     C_R   0.236549 0.658952 0.645845 -0.069160
C59   C     C_R   0.259184 0.666898 0.714298 -0.101294
C60   C     C_R   0.231714 0.683482 0.774543 -0.097440
C61   C     C_R   0.181488 0.691979 0.766488 -0.106526
C62   C     C_R   0.158600 0.683644 0.698279 -0.085135
C63   C     C_R   0.827170 0.322375 0.357627 0.048185
C64   C     C_R   0.859781 0.296456 0.312179 -0.081773
C65   C     C_R   0.845470 0.282135 0.241021 -0.105824
C66   C     C_R   0.798865 0.294209 0.214466 -0.096289
C67   C     C_R   0.766517 0.320566 0.259068 -0.096443
C68   C     C_R   0.992278 0.543578 0.799203 -0.056125
C69   C     C_R   0.780365 0.334294 0.330695 -0.069505
C70   C     C_R   0.162087 0.313043 0.357852 0.047451
C71   C     C_R   0.183978 0.341543 0.302247 -0.085994
C72   C     C_R   0.191752 0.322145 0.231611 -0.109119
C73   C     C_R   0.177065 0.274533 0.215738 -0.103958
C74   C     C_R   0.154805 0.246177 0.270587 -0.107141
C75   C     C_R   0.147698 0.265125 0.341631 -0.074009
C76   C     C_R   0.830706 0.684318 0.637368 0.046904
C77   C     C_R   0.836561 0.734872 0.645819 -0.067118
C78   C     C_R   0.827699 0.756823 0.714341 -0.097565
C79   C     C_R   0.497999 0.044123 0.200526 -0.054473
C80   C     C_R   0.812826 0.728588 0.774805 -0.103710
C81   C     C_R   0.806885 0.678306 0.766882 -0.116268
C82   C     C_R   0.816040 0.656133 0.698573 -0.090074
C83   C     C_R   0.813479 0.664387 0.358453 0.047023
C84   C     C_R   0.764618 0.651048 0.345061 -0.070783
C85   C     C_R   0.743718 0.658786 0.275228 -0.098902
C86   C     C_R   0.771134 0.680506 0.218750 -0.090546
C87   C     C_R   0.819759 0.693975 0.231757 -0.105792
C88   C     C_R   0.841073 0.685606 0.301191 -0.088479
C89   C     C_R   0.168281 0.315624 0.639204 0.045909
C90   C     C_R   0.508704 0.956563 0.799482 -0.056430
C91   C     C_R   0.141913 0.278669 0.675257 -0.068754
C92   C     C_R   0.156543 0.262475 0.745442 -0.106248
C93   C     C_R   0.197009 0.283615 0.780355 -0.099009
C94   C     C_R   0.223048 0.320811 0.744964 -0.106548
C95   C     C_R   0.208920 0.336682 0.674363 -0.084628
C96   C     C_R   0.318716 0.828936 0.638988 0.047838
C97   C     C_R   0.285356 0.858137 0.678021 -0.074258
C98   C     C_R   0.269282 0.843907 0.748381 -0.102796
C99   C     C_R   0.287055 0.800975 0.780514 -0.094201
C100  C     C_R   0.320744 0.772102 0.742176 -0.102451
C101  C     C_R   0.503411 0.955727 0.201036 -0.055627
C102  C     C_R   0.336256 0.785744 0.671280 -0.077857
C103  C     C_R   0.660722 0.190023 0.360384 0.045784
C104  C     C_R   0.650467 0.239971 0.352931 -0.071302
C105  C     C_R   0.655877 0.263021 0.284275 -0.106815
C106  C     C_R   0.671917 0.236550 0.222784 -0.099957
C107  C     C_R   0.682326 0.186887 0.229789 -0.104756
C108  C     C_R   0.676499 0.163564 0.298212 -0.083410
C109  C     C_R   0.686042 0.167282 0.637377 0.045388
C110  C     C_R   0.736539 0.158965 0.645854 -0.069158
C111  C     C_R   0.759173 0.166910 0.714307 -0.101288
C112  C     C_R   0.933640 0.566454 0.499874 0.552956
C113  C     C_R   0.492319 0.043582 0.799204 -0.056108
C114  C     C_R   0.731702 0.183487 0.774555 -0.097442
C115  C     C_R   0.681474 0.191976 0.766502 -0.106530
C116  C     C_R   0.658587 0.183642 0.698292 -0.085139
C117  C     C_R   0.327208 0.822347 0.357617 0.048183
C118  C     C_R   0.359837 0.796442 0.312178 -0.081779
C119  C     C_R   0.345544 0.782119 0.241013 -0.105821
C120  C     C_R   0.298938 0.794175 0.214443 -0.096311
C121  C     C_R   0.266572 0.820516 0.259037 -0.096440
C122  C     C_R   0.280403 0.834247 0.330670 -0.069483
C123  C     C_R   0.661451 0.812430 0.358004 0.047427
C124  C     C_R   0.997264 0.542875 0.278666 0.030277
C125  C     C_R   0.682987 0.840759 0.301877 -0.086136
C126  C     C_R   0.690508 0.821074 0.231361 -0.109353
C127  C     C_R   0.675924 0.773338 0.216136 -0.104219
C128  C     C_R   0.654016 0.745149 0.271507 -0.107126
C129  C     C_R   0.647159 0.764391 0.342421 -0.073933
C130  C     C_R   0.330914 0.184504 0.637318 0.046881
C131  C     C_R   0.336875 0.235054 0.645645 -0.067205
C132  C     C_R   0.328105 0.257087 0.714133 -0.097891
C133  C     C_R   0.313209 0.228941 0.774679 -0.103803
C134  C     C_R   0.307160 0.178663 0.766876 -0.116152
C135  C     C_R   0.008236 0.457805 0.721336 0.029719
C136  C     C_R   0.316233 0.156406 0.698604 -0.089976
C137  C     C_R   0.313228 0.164142 0.358550 0.047025
C138  C     C_R   0.264275 0.150954 0.345576 -0.070732
C139  C     C_R   0.243204 0.158548 0.275827 -0.099119
C140  C     C_R   0.270547 0.179963 0.219000 -0.090668
C141  C     C_R   0.319264 0.193275 0.231581 -0.105732
C142  C     C_R   0.340742 0.185058 0.300942 -0.088534
C143  C     C_R   0.668384 0.815732 0.639275 0.045806
C144  C     C_R   0.642287 0.778556 0.675257 -0.068364
C145  C     C_R   0.656974 0.762477 0.745475 -0.106044
C146  C     C_R   0.003279 0.457091 0.279166 0.030631
C147  C     C_R   0.697225 0.783944 0.780490 -0.099092
C148  C     C_R   0.723001 0.821347 0.745163 -0.107091
C149  C     C_R   0.708807 0.837120 0.674540 -0.085139
C150  C     C_R   0.992123 0.542244 0.721046 0.029246
C151  C     C_R   0.497265 0.042876 0.278668 0.030270
C152  C     C_R   0.508202 0.957798 0.721333 0.029706
C153  C     C_R   0.503252 0.957089 0.279165 0.030654
C154  C     C_R   0.492160 0.042250 0.721047 0.029266
C155  C     C_R   0.873964 0.380651 0.566053 -0.145061
C156  C     C_R   0.933625 0.433590 0.499975 0.552773
C157  C     C_R   0.116866 0.627526 0.432938 -0.142152
C158  C     C_R   0.125523 0.619881 0.565941 -0.143576
C159  C     C_R   0.880243 0.375151 0.432730 -0.143786
C160  C     C_R   0.117823 0.373688 0.432516 -0.143770
C161  C     C_R   0.879451 0.625018 0.565755 -0.142969
C162  C     C_R   0.874272 0.618935 0.432224 -0.143764
C163  C     C_R   0.118371 0.372939 0.566536 -0.145262
C164  C     C_R   0.373965 0.880647 0.566047 -0.145048
C165  C     C_R   0.616856 0.127537 0.432944 -0.142134
C166  C     C_R   0.625518 0.119884 0.565946 -0.143580
C167  C     C_R   0.066220 0.566548 0.499951 0.553577
C168  C     C_R   0.380261 0.875137 0.432727 -0.143780
C169  C     C_R   0.617538 0.873416 0.432551 -0.143671
C170  C     C_R   0.379550 0.125101 0.565744 -0.142963
C171  C     C_R   0.374173 0.118826 0.432248 -0.143747
C172  C     C_R   0.618450 0.873015 0.566571 -0.145243
C173  C     C_R   0.837447 0.345033 0.566249 -0.029173
C174  C     C_R   0.151696 0.664809 0.431768 -0.025447
C175  C     C_R   0.161440 0.656160 0.566163 -0.026013
C176  C     C_R   0.843324 0.339928 0.431184 -0.027875
C177  C     C_R   0.150556 0.334546 0.430988 -0.025661
C178  C     C_R   0.565936 0.933141 0.500056 0.553211
C179  C     C_R   0.842684 0.660582 0.565881 -0.024233
C180  C     C_R   0.836620 0.653420 0.430837 -0.026367
C181  C     C_R   0.151555 0.334137 0.566595 -0.029987
C182  C     C_R   0.337453 0.845025 0.566240 -0.029167
C183  C     C_R   0.651681 0.164824 0.431779 -0.025440
C184  C     C_R   0.661430 0.156168 0.566172 -0.026014
C185  C     C_R   0.343347 0.839909 0.431177 -0.027873
C186  C     C_R   0.650193 0.834205 0.431059 -0.025534
C187  C     C_R   0.342800 0.160678 0.565871 -0.024272
C188  C     C_R   0.336527 0.153317 0.430872 -0.026306
C189  C     C_R   0.433639 0.066450 0.499874 0.552974
C190  C     C_R   0.651555 0.834144 0.566660 -0.030011
C191  C     C_R   0.821437 0.324297 0.498448 0.018244
C192  C     C_R   0.174725 0.679063 0.498678 0.020371
C193  C     C_R   0.168688 0.314952 0.498463 0.018543
C194  C     C_R   0.820284 0.674474 0.498037 0.019274
C195  C     C_R   0.321453 0.824282 0.498438 0.018242
C196  C     C_R   0.674711 0.179076 0.498690 0.020372
C197  C     C_R   0.668484 0.814770 0.498540 0.018515
C198  C     C_R   0.320323 0.174491 0.498054 0.019328
C199  C     C_R   0.000735 0.500050 0.924308 0.329127
C200  C     C_R   0.433626 0.933589 0.499974 0.552765
C201  C     C_R   0.000788 0.499900 0.076315 0.328112
C202  C     C_R   0.500726 0.000046 0.924306 0.329098
C203  C     C_R   0.500763 0.999899 0.076314 0.328128
C204  C     C_R   0.895501 0.395851 0.499671 -0.016390
C205  C     C_R   0.103493 0.605095 0.499640 -0.015679
C206  C     C_R   0.101731 0.393151 0.499830 -0.014834
C207  C     C_R   0.895327 0.604074 0.499344 -0.014612
C208  C     C_R   0.395507 0.895846 0.499669 -0.016382
C209  C     C_R   0.603489 0.105099 0.499643 -0.015672
C210  C     C_R   0.601672 0.893093 0.499846 -0.014830
C211  C     C_R   0.566219 0.066549 0.499951 0.553590
C212  C     C_R   0.395328 0.104066 0.499347 -0.014586
C213  C     C_R   0.212546 0.717121 0.497986 0.325322
C214  C     C_R   0.782886 0.286534 0.498074 0.330076
C215  C     C_R   0.780230 0.710423 0.497347 0.325359
C216  C     C_R   0.207440 0.277431 0.497374 0.332430
C217  C     C_R   0.712531 0.217135 0.498000 0.325322
C218  C     C_R   0.282902 0.786519 0.498061 0.330065
C219  C     C_R   0.280330 0.210495 0.497367 0.325320
C220  C     C_R   0.707266 0.777282 0.497424 0.332496
C221  C     C_R   0.999295 0.592340 0.163933 0.032113
C222  C     C_R   0.000781 0.499890 0.159904 0.004364
C223  C     C_R   0.040890 0.606729 0.123761 -0.069689
C224  C     C_R   0.043273 0.653334 0.092628 -0.099206
C225  C     C_R   0.003994 0.685625 0.100600 -0.093120
C226  C     C_R   0.962468 0.671533 0.140498 -0.102315
C227  C     C_R   0.960198 0.625165 0.172617 -0.088708
C228  C     C_R   0.015854 0.408762 0.835662 0.030988
C229  C     C_R   0.061103 0.384620 0.830148 -0.084817
C230  C     C_R   0.067460 0.338764 0.862734 -0.103629
C231  C     C_R   0.028505 0.316423 0.899731 -0.095880
C232  C     C_R   0.983168 0.339967 0.904342 -0.094816
Cu1   Cu    Cu3+1 0.000000 0.500000 0.573360 0.926959
Cu2   Cu    Cu3+1 1.000000 0.500000 0.426640 0.927088
Cu3   Cu    Cu3+1 0.500000 0.000000 0.573360 0.926958
Cu4   Cu    Cu3+1 0.500000 0.000000 0.426640 0.927108
H1    H     H_    0.995664 0.576585 0.309666 0.125133
H2    H     H_    0.099112 0.617005 0.381584 0.130208
H3    H     H_    0.110124 0.262535 0.649018 0.108369
H4    H     H_    0.136250 0.233870 0.773064 0.099536
H5    H     H_    0.208086 0.271292 0.834917 0.096464
H6    H     H_    0.254178 0.337347 0.772285 0.094725
H7    H     H_    0.229224 0.365613 0.647459 0.105821
H8    H     H_    0.271896 0.891790 0.653943 0.107888
H9    H     H_    0.243367 0.866353 0.778240 0.101443
H10   H     H_    0.274882 0.790176 0.835214 0.095141
H11   H     H_    0.334927 0.739200 0.767513 0.092317
H12   H     H_    0.362451 0.763184 0.642093 0.103910
H13   H     H_    0.115727 0.602252 0.617695 0.132830
H14   H     H_    0.637416 0.260792 0.399881 0.113305
H15   H     H_    0.647455 0.301401 0.278705 0.094787
H16   H     H_    0.676207 0.254514 0.169706 0.092781
H17   H     H_    0.694575 0.166388 0.182077 0.098446
H18   H     H_    0.684140 0.124932 0.302762 0.105081
H19   H     H_    0.758152 0.145604 0.599854 0.114052
H20   H     H_    0.798005 0.160028 0.720692 0.095507
H21   H     H_    0.749337 0.189704 0.827485 0.093081
H22   H     H_    0.660212 0.204700 0.813237 0.097096
H23   H     H_    0.619539 0.189868 0.692909 0.105339
H24   H     H_    0.896502 0.387023 0.380927 0.132562
H25   H     H_    0.396286 0.787500 0.331848 0.105480
H26   H     H_    0.370754 0.762079 0.206223 0.101784
H27   H     H_    0.288032 0.783445 0.159117 0.096139
H28   H     H_    0.230929 0.830712 0.237777 0.096338
H29   H     H_    0.255117 0.854931 0.364523 0.105750
H30   H     H_    0.693714 0.878059 0.312709 0.106783
H31   H     H_    0.707179 0.842989 0.188309 0.105184
H32   H     H_    0.681290 0.758302 0.161320 0.095119
H33   H     H_    0.641942 0.708505 0.259305 0.092781
H34   H     H_    0.629662 0.742335 0.384614 0.105913
H35   H     H_    0.103910 0.388148 0.380563 0.125424
H36   H     H_    0.349015 0.257235 0.599465 0.112731
H37   H     H_    0.333089 0.295979 0.720332 0.097785
H38   H     H_    0.306482 0.246078 0.827687 0.093869
H39   H     H_    0.295811 0.156879 0.813893 0.102122
H40   H     H_    0.311858 0.117336 0.693467 0.103436
H41   H     H_    0.242805 0.134025 0.389009 0.110152
H42   H     H_    0.205771 0.147476 0.265706 0.094010
H43   H     H_    0.254068 0.185976 0.165119 0.096898
H44   H     H_    0.340480 0.209609 0.187420 0.096423
H45   H     H_    0.378720 0.194931 0.309793 0.102116
H46   H     H_    0.896508 0.614514 0.617749 0.122330
H47   H     H_    0.610658 0.762168 0.648942 0.108508
H48   H     H_    0.636888 0.733705 0.773043 0.099542
H49   H     H_    0.708342 0.771707 0.835077 0.096421
H50   H     H_    0.753977 0.838120 0.772548 0.094790
H51   H     H_    0.728894 0.866226 0.647697 0.105914
H52   H     H_    0.886146 0.602644 0.380544 0.129351
H53   H     H_    0.105669 0.387413 0.619021 0.126115
H54   H     H_    0.385862 0.896177 0.618297 0.134186
H55   H     H_    0.599102 0.117018 0.381590 0.130205
H56   H     H_    0.615725 0.102250 0.617697 0.132820
H57   H     H_    0.013812 0.424488 0.690430 0.126843
H58   H     H_    0.396526 0.887006 0.380927 0.132558
H59   H     H_    0.603489 0.887750 0.380601 0.125277
H60   H     H_    0.396673 0.114661 0.617719 0.122340
H61   H     H_    0.385955 0.102441 0.380588 0.129366
H62   H     H_    0.605906 0.887638 0.619047 0.126172
H63   H     H_    0.071704 0.582158 0.117635 0.106141
H64   H     H_    0.075689 0.664468 0.062602 0.089951
H65   H     H_    0.005832 0.721623 0.076131 0.094897
H66   H     H_    0.932203 0.696667 0.146988 0.094889
H67   H     H_    0.928073 0.614831 0.204142 0.101380
H68   H     H_    0.004897 0.423433 0.310538 0.124971
H69   H     H_    0.091386 0.401388 0.800934 0.104824
H70   H     H_    0.102496 0.320458 0.859030 0.109606
H71   H     H_    0.033368 0.280780 0.924503 0.094757
H72   H     H_    0.952833 0.322287 0.931923 0.092775
H73   H     H_    0.941554 0.404054 0.876731 0.105400
H74   H     H_    0.931684 0.415342 0.116651 0.109774
H75   H     H_    0.930637 0.332711 0.062916 0.090958
H76   H     H_    0.002021 0.277682 0.079165 0.093602
H77   H     H_    0.074231 0.305050 0.151553 0.110692
H78   H     H_    0.075359 0.387157 0.207486 0.102625
H79   H     H_    0.986556 0.575564 0.689885 0.126784
H80   H     H_    0.911473 0.601544 0.797173 0.099748
H81   H     H_    0.902562 0.683158 0.853311 0.111379
H82   H     H_    0.972084 0.720543 0.920954 0.096772
H83   H     H_    0.050929 0.676242 0.932091 0.091051
H84   H     H_    0.060069 0.593952 0.878550 0.105052
H85   H     H_    0.571684 0.082222 0.117702 0.106118
H86   H     H_    0.575618 0.164541 0.062684 0.089949
H87   H     H_    0.505702 0.221631 0.076149 0.094911
H88   H     H_    0.432065 0.196605 0.146938 0.094884
H89   H     H_    0.427991 0.114764 0.204083 0.101293
H90   H     H_    0.495673 0.076585 0.309667 0.125170
H91   H     H_    0.591260 0.901241 0.800731 0.104808
H92   H     H_    0.602295 0.820285 0.858770 0.109645
H93   H     H_    0.533172 0.780721 0.924420 0.094784
H94   H     H_    0.452716 0.822361 0.932048 0.092806
H95   H     H_    0.441515 0.904150 0.876900 0.105421
H96   H     H_    0.431565 0.915430 0.116696 0.109772
H97   H     H_    0.430391 0.832795 0.062982 0.090952
H98   H     H_    0.501705 0.777673 0.079196 0.093619
H99   H     H_    0.573971 0.804952 0.151529 0.110822
H100  H     H_    0.575228 0.887062 0.207447 0.102499
H101  H     H_    0.513752 0.924478 0.690422 0.126893
H102  H     H_    0.411586 0.101650 0.797190 0.099745
H103  H     H_    0.402786 0.183278 0.853324 0.111364
H104  H     H_    0.472364 0.220577 0.920944 0.096753
H105  H     H_    0.551153 0.176175 0.932069 0.091014
H106  H     H_    0.560180 0.093871 0.878535 0.105070
H107  H     H_    0.771892 0.391794 0.653959 0.107879
H108  H     H_    0.743368 0.366353 0.778256 0.101437
H109  H     H_    0.774887 0.290176 0.835225 0.095144
H110  H     H_    0.834931 0.239204 0.767518 0.092312
H111  H     H_    0.862452 0.263192 0.642097 0.103904
H112  H     H_    0.504857 0.923431 0.310536 0.124922
H113  H     H_    0.137450 0.760776 0.399845 0.113305
H114  H     H_    0.147500 0.801370 0.278660 0.094786
H115  H     H_    0.176246 0.754466 0.169674 0.092785
H116  H     H_    0.194597 0.666337 0.182069 0.098443
H117  H     H_    0.184152 0.624896 0.302764 0.105053
H118  H     H_    0.258160 0.645585 0.599848 0.114047
H119  H     H_    0.298014 0.660010 0.720684 0.095505
H120  H     H_    0.249350 0.689700 0.827472 0.093078
H121  H     H_    0.160228 0.704710 0.813221 0.097090
H122  H     H_    0.119553 0.689876 0.692895 0.105327
H123  H     H_    0.486624 0.075575 0.689886 0.126758
H124  H     H_    0.896228 0.287499 0.331838 0.105466
H125  H     H_    0.870666 0.262082 0.206225 0.101762
H126  H     H_    0.787946 0.283480 0.159145 0.096144
H127  H     H_    0.730874 0.330775 0.237821 0.096327
H128  H     H_    0.755093 0.354988 0.364557 0.105739
H129  H     H_    0.194782 0.378756 0.313579 0.106840
H130  H     H_    0.208699 0.344191 0.188962 0.105165
H131  H     H_    0.182624 0.259723 0.160823 0.095246
H132  H     H_    0.142649 0.209637 0.257870 0.092726
H133  H     H_    0.129933 0.242948 0.383417 0.105809
H134  H     H_    0.885869 0.396174 0.618302 0.134181
H135  H     H_    0.848689 0.757122 0.599708 0.112692
H136  H     H_    0.832599 0.795719 0.720634 0.097986
H137  H     H_    0.806040 0.745660 0.827844 0.093911
H138  H     H_    0.795554 0.656455 0.813836 0.102152
H139  H     H_    0.811744 0.617059 0.693344 0.103414
H140  H     H_    0.743095 0.633893 0.388226 0.109974
H141  H     H_    0.706367 0.647588 0.264763 0.094057
H142  H     H_    0.754786 0.686633 0.164808 0.096975
H143  H     H_    0.841032 0.710548 0.187866 0.096371
H144  H     H_    0.878985 0.695601 0.310370 0.102245
N1    N     N_R   1.000000 0.500000 0.316380 -0.235614
N2    N     N_R   0.469309 0.028812 0.963207 -0.217195
N3    N     N_R   0.469377 0.028813 0.037317 -0.217603
N4    N     N_R   0.532171 0.971213 0.963427 -0.217111
N5    N     N_R   0.786700 0.247074 0.453217 -0.220157
N6    N     N_R   0.208629 0.756472 0.542886 -0.223651
N7    N     N_R   0.252084 0.713004 0.453010 -0.222879
N8    N     N_R   0.743129 0.290648 0.542740 -0.222777
N9    N     N_R   0.205799 0.238534 0.543853 -0.226284
N10   N     N_R   0.781711 0.749121 0.450549 -0.222366
N11   N     N_R   0.741564 0.705534 0.543930 -0.221138
N12   N     N_R   1.000000 0.500000 0.683620 -0.235848
N13   N     N_R   0.246094 0.282109 0.450680 -0.217161
N14   N     N_R   0.286719 0.747055 0.453213 -0.220162
N15   N     N_R   0.708617 0.256483 0.542908 -0.223651
N16   N     N_R   0.752066 0.213022 0.453016 -0.222870
N17   N     N_R   0.243141 0.790637 0.542719 -0.222777
N18   N     N_R   0.705689 0.738390 0.543915 -0.226637
N19   N     N_R   0.281881 0.249196 0.450583 -0.222408
N20   N     N_R   0.241639 0.205642 0.543907 -0.221189
N21   N     N_R   0.745885 0.781992 0.450673 -0.217028
N22   N     N_R   0.500000 0.000000 0.316380 -0.235612
N23   N     N_R   0.500000 0.000000 0.683620 -0.235857
N24   N     N_R   0.032191 0.471096 0.037537 -0.218936
N25   N     N_R   0.969301 0.528793 0.963218 -0.217185
N26   N     N_R   0.969378 0.528792 0.037327 -0.217592
N27   N     N_R   0.032205 0.471239 0.963420 -0.217105
N28   N     N_R   0.532149 0.971072 0.037543 -0.218937
O1    O     O_R   0.049930 0.450080 0.561970 -0.507581
O2    O     O_R   0.450070 0.049920 0.438030 -0.505501
O3    O     O_R   0.450070 0.049920 0.561970 -0.508013
O4    O     O_R   0.549930 0.950080 0.438030 -0.506204
O5    O     O_R   0.450070 0.950080 0.438030 -0.502957
O6    O     O_R   0.549930 0.049920 0.561970 -0.500301
O7    O     O_R   0.549930 0.049920 0.438030 -0.502791
O8    O     O_R   0.450070 0.950080 0.561970 -0.500676
O9    O     O_R   0.950070 0.549920 0.438030 -0.505481
O10   O     O_R   0.950070 0.549920 0.561970 -0.508035
O11   O     O_R   0.049930 0.450080 0.438030 -0.506256
O12   O     O_R   0.950070 0.450080 0.438030 -0.502921
O13   O     O_R   0.049930 0.549920 0.561970 -0.500271
O14   O     O_R   0.049930 0.549920 0.438030 -0.502819
O15   O     O_R   0.950070 0.450080 0.561970 -0.500673
O16   O     O_R   0.549930 0.950080 0.561970 -0.507588

loop_
_geom_bond_atom_site_label_1
_geom_bond_atom_site_label_2
_ccdc_geom_bond_type
C13   C79   A    
C126  C127  A    
C12   H81   S    
C96   C102  A    
C162  C207  A    
C19   C20   A    
C84   H140  S    
C114  C115  A    
C133  H38   S    
C1    O1    A    
C202  N2    A    
C177  C193  A    
C83   C180  S    
C103  C183  S    
C167  C205  S    
C35   C124  A    
C218  N14   A    
C219  N19   A    
C35   C221  S    
C21   H88   S    
C5    C6    A    
C230  H70   S    
C151  N22   A    
C106  C107  A    
C143  C144  A    
C150  H79   S    
C73   C74   A    
C106  H16   S    
C37   C42   A    
C64   H124  S    
C110  C111  A    
Cu4   O5    S    
C223  C224  A    
C170  C187  A    
C168  C208  A    
C213  N6    A    
C83   C88   A    
N13   N19   A    
C59   C60   A    
C200  C208  S    
C148  H50   S    
C21   C22   A    
C87   H143  S    
C149  H51   S    
Cu2   N1    S    
C185  C195  A    
Cu1   N12   S    
C104  C105  A    
C45   C47   A    
C146  N1    A    
C225  H65   S    
C51   C52   A    
C165  C183  A    
C166  C184  A    
C140  C141  A    
C1    O11   A    
C98   H9    S    
C90   C152  A    
C194  C215  S    
C161  H46   S    
C4    C5    A    
C56   C175  S    
C172  C190  A    
C173  C191  A    
C13   C203  S    
C62   H122  S    
C89   C181  S    
C43   C44   A    
C37   C38   A    
C59   H119  S    
C40   H104  S    
C200  O8    A    
C188  C198  A    
C6    H75   S    
C183  C196  A    
C135  N12   A    
C148  C149  A    
C99   H10   S    
C112  O9    A    
C25   H91   S    
C109  C184  S    
C154  N23   A    
C56   C62   A    
C91   C92   A    
Cu4   O2    S    
Cu1   O10   S    
C77   H135  S    
C32   H97   S    
Cu3   O16   S    
C158  C205  A    
C43   C49   A    
C72   C73   A    
C24   C90   A    
C139  C140  A    
C52   H114  S    
C6    C7    A    
C10   C68   S    
C221  C227  A    
C30   C36   A    
C144  C145  A    
C130  C131  A    
C220  N21   A    
Cu4   O7    S    
C10   C16   A    
N25   N26   A    
C64   C65   A    
C164  H54   S    
C43   C173  S    
N5    N16   A    
C82   H139  S    
Cu2   O14   S    
C69   H128  S    
C216  N9    A    
Cu3   O8    S    
C160  C206  A    
C157  H2    S    
C143  C149  A    
C170  C212  A    
C20   C21   A    
C98   C99   A    
C100  H11   S    
C161  C207  A    
C117  C185  S    
C156  O15   A    
C3    C228  A    
C38   H102  S    
C190  C197  A    
C178  O4    A    
C137  C142  A    
C163  C181  A    
C220  N18   A    
C147  C148  A    
C158  H13   S    
C76   C179  S    
C128  C129  A    
C55   H117  S    
C97   C98   A    
C7    C8    A    
C53   C54   A    
C125  C126  A    
C23   C29   A    
C2    C68   A    
C191  C214  S    
C85   C86   A    
C38   C39   A    
C78   C80   A    
C115  C116  A    
C178  C210  S    
N11   N18   A    
C131  H36   S    
C31   C32   A    
C150  N12   A    
C107  C108  A    
C186  C197  A    
C89   C91   A    
C197  C220  S    
Cu3   N23   S    
Cu1   Cu2   S    
C162  C180  A    
Cu4   O4    S    
C157  C174  A    
C137  C188  S    
C66   C67   A    
C39   H103  S    
Cu2   O11   S    
C134  H39   S    
C67   H127  S    
C94   C95   A    
C144  H47   S    
C225  C226  A    
C231  H71   S    
C187  C198  A    
C2    C199  S    
Cu1   O15   S    
Cu3   O6    S    
C227  H67   S    
C156  O12   A    
C164  C208  A    
C76   C82   A    
C175  C192  A    
C130  C187  S    
C176  C191  A    
C16   H84   S    
C25   C26   A    
C223  H63   S    
C117  C122  A    
C214  N5    A    
C53   H115  S    
C20   H87   S    
C83   C84   A    
C120  H27   S    
C167  O14   A    
C17   C18   A    
C199  N25   A    
C18   H85   S    
C1    C206  S    
C116  H23   S    
C151  H90   S    
C211  O6    A    
C14   H82   S    
C159  C176  A    
C33   H98   S    
C192  C213  S    
C41   H105  S    
C120  C121  A    
C54   C55   A    
C92   H4    S    
C108  H18   S    
C112  C207  S    
C12   C14   A    
C189  C212  S    
Cu1   O1    S    
C152  H101  S    
C70   C177  S    
C85   H141  S    
C42   H106  S    
C163  C206  A    
C54   H116  S    
C135  H57   S    
C71   C72   A    
C93   H5    S    
C117  C118  A    
C97   H8    S    
C171  C212  A    
C47   H109  S    
C159  C204  A    
C118  H25   S    
C66   H126  S    
C132  H37   S    
C81   H138  S    
C56   C58   A    
C73   H131  S    
C34   C36   A    
C61   C62   A    
C216  N13   A    
C114  H21   S    
C72   H130  S    
C68   C150  A    
C10   C11   A    
C63   C64   A    
C39   C40   A    
C158  C175  A    
C226  C227  A    
C36   H100  S    
Cu2   O9    S    
C70   C75   A    
C14   C15   A    
C153  H112  S    
C182  C195  A    
C4    C9    A    
C174  C192  A    
C146  H68   S    
C87   C88   A    
N2    N3    A    
C8    H77   S    
C41   C42   A    
C198  C219  S    
N24   N27   A    
C113  C154  A    
C224  C225  A    
C63   C176  S    
C77   C78   A    
C52   C53   A    
C215  N10   A    
C26   C27   A    
C93   C94   A    
C171  C188  A    
C189  O3    A    
C28   C29   A    
C169  C186  A    
C203  N3    A    
C121  H28   S    
C30   C31   A    
C34   H99   S    
C123  C125  A    
C119  H26   S    
C37   C113  S    
C11   H80   S    
C107  H17   S    
C18   C19   A    
N6    N17   A    
C228  C229  A    
C129  H34   S    
C109  C116  A    
C46   C135  A    
C200  O5    A    
C60   H120  S    
Cu3   Cu4   S    
C70   C71   A    
C29   H95   S    
C112  O10   A    
C217  N16   A    
C57   C146  A    
C71   H129  S    
C145  C147  A    
C196  C217  S    
C57   C222  A    
C172  H62   S    
C127  H32   S    
C104  H14   S    
C84   C85   A    
C219  N20   A    
C35   C222  A    
C15   H83   S    
C86   C87   A    
C58   C59   A    
C27   H93   S    
C60   C61   A    
C89   C95   A    
C58   H118  S    
C110  H19   S    
C50   C51   A    
C23   C90   S    
C157  C205  A    
C213  N7    A    
C214  N8    A    
C121  C122  A    
C153  N22   A    
C48   C49   A    
C7    H76   S    
C74   H132  S    
C133  C134  A    
C226  H66   S    
C131  C132  A    
C211  O7    A    
C44   C45   A    
C19   H86   S    
C111  H20   S    
C160  H35   S    
C141  H44   S    
C96   C182  S    
C119  C120  A    
C75   H133  S    
C154  H123  S    
C105  C106  A    
C22   H89   S    
C168  H58   S    
C17   C22   A    
C32   C33   A    
C123  C186  S    
C142  H45   S    
N7    N14   A    
C184  C196  A    
C109  C110  A    
C165  C209  A    
C49   H111  S    
C30   C101  S    
C92   C93   A    
C111  C114  A    
C230  C231  A    
C160  C177  A    
C164  C182  A    
C138  C139  A    
C103  C104  A    
C46   C228  S    
C124  N1    A    
C199  N27   A    
C179  C194  A    
C61   H121  S    
C159  H24   S    
Cu2   O12   S    
C125  H30   S    
C128  H33   S    
C139  H42   S    
C81   C82   A    
C171  H61   S    
C2    C46   A    
N8    N15   A    
C24   C202  S    
C229  C230  A    
C51   H113  S    
C172  C210  A    
C166  C209  A    
C169  C210  A    
C201  N24   A    
C15   C16   A    
C155  H134  S    
C215  N11   A    
C17   C79   S    
C118  C119  A    
C80   H137  S    
Cu3   O3    S    
N4    N28   A    
C78   H136  S    
C8    C9    A    
C4    C57   S    
C167  O13   A    
C103  C108  A    
C165  H55   S    
C155  C173  A    
C166  H56   S    
C24   C113  A    
C123  C129  A    
C3    H73   S    
C140  H43   S    
C31   H96   S    
C136  H40   S    
C201  C222  S    
C169  H59   S    
C170  H60   S    
C178  O16   A    
C74   C75   A    
Cu4   N22   S    
C47   C48   A    
C63   C69   A    
C102  H12   S    
C76   C77   A    
C105  H15   S    
C132  C133  A    
C134  C136  A    
C202  N4    A    
C67   C69   A    
C152  N23   A    
C147  H49   S    
C26   H92   S    
C99   C100  A    
C101  C153  A    
C88   H144  S    
C28   H94   S    
C96   C97   A    
C100  C102  A    
C33   C34   A    
C163  H53   S    
C40   C41   A    
Cu1   O13   S    
C138  H41   S    
C126  H31   S    
C218  N17   A    
C161  C179  A    
C13   C101  A    
C155  C204  A    
C156  C204  S    
C231  C232  A    
C180  C194  A    
C193  C216  S    
C79   C151  A    
C9    H78   S    
N10   N21   A    
N9    N20   A    
C168  C185  A    
C130  C136  A    
C80   C81   A    
C115  H22   S    
C3    C232  A    
C86   H142  S    
C11   C12   A    
C201  N26   A    
C44   H107  S    
C137  C138  A    
C203  N28   A    
C50   C55   A    
C50   C174  S    
C189  O2    A    
C94   H6    S    
C221  C223  A    
C48   H110  S    
C141  C142  A    
C124  H1    S    
C232  H72   S    
C65   H125  S    
C209  C211  S    
C143  C190  S    
C23   C25   A    
C229  H69   S    
C5    H74   S    
C45   H108  S    
C65   C66   A    
C224  H64   S    
C91   H3    S    
C27   C28   A    
C181  C193  A    
C145  H48   S    
C195  C218  S    
C127  C128  A    
C122  H29   S    
C95   H7    S    
C217  N15   A    
C162  H52   S    
