data_mof_unit_46583.cif
_audit_creation_date              2012-12-10T17:14:40-0500
_audit_creation_method            fapswitch 2.2
_symmetry_space_group_name_H-M    P1
_symmetry_Int_Tables_number       1
_space_group_crystal_system       triclinic
_cell_length_a                    10.669645
_cell_length_b                    13.024897
_cell_length_c                    11.697414
_cell_angle_alpha                 99.487771
_cell_angle_beta                  93.033062
_cell_angle_gamma                 90.285029
_cell_volume                      1600.96385782

loop_
_atom_site_label
_atom_site_type_symbol
_atom_type_description
_atom_site_fract_x
_atom_site_fract_y
_atom_site_fract_z
_atom_type_partial_charge
C1    C     C_R   0.502293 0.299786 0.479045 0.813662
C2    C     C_R   0.499093 0.700670 0.521226 0.841102
C3    C     C_R   0.438853 0.131892 0.530131 -0.053313
C4    C     C_R   0.569252 0.867658 0.466399 -0.094792
C5    C     C_R   0.471851 0.030360 0.547432 0.121899
C6    C     C_R   0.565825 0.977604 0.480159 0.091535
C7    C     C_R   0.378219 0.405577 0.024111 -0.233017
C8    C     C_R   0.622049 0.593775 0.975744 -0.254357
C9    C     C_R   0.390001 0.414259 0.145662 0.706381
C10   C     C_R   0.609521 0.586064 0.854420 0.700539
C11   C     C_R   0.554340 0.538795 0.155314 0.767328
C12   C     C_R   0.447059 0.459480 0.844113 0.742395
C13   C     C_R   0.544857 0.533330 0.033050 -0.200667
C14   C     C_R   0.455694 0.465596 0.966548 -0.218606
C15   C     C_R   0.259767 0.499948 0.501091 0.884298
C16   C     C_R   0.740261 0.502603 0.499230 0.942844
C17   C     C_3   0.044808 0.505955 0.610387 -0.214592
C18   C     C_3   0.955438 0.498280 0.390017 -0.166197
C19   C     C_3   0.957945 0.419895 0.542005 0.700320
C20   C     C_3   0.042536 0.584242 0.458676 0.634477
C21   C     C_3   0.876298 0.503608 0.497352 -0.241583
C22   C     C_3   0.123861 0.500464 0.503191 -0.293732
C23   C     C_3   0.963032 0.589781 0.565596 -0.254113
C24   C     C_3   0.037228 0.414281 0.434769 -0.219540
C25   C     C_R   0.494328 0.814647 0.534546 -0.110348
C26   C     C_R   0.518796 0.187667 0.469948 -0.133288
C27   C     C_R   0.651627 0.036318 0.426895 -0.081348
C28   C     C_R   0.413714 0.979885 0.629916 -0.051798
C29   C     C_R   0.623745 0.139625 0.415735 -0.092133
C30   C     C_R   0.418919 0.870841 0.618872 -0.068860
Cu1   Cu    Cu3+1 0.509400 0.507730 0.615930 1.101162
Cu2   Cu    Cu3+1 0.490600 0.492270 0.384070 1.107760
H1    H     H_    0.308782 0.352189 0.975745 0.253951
H2    H     H_    0.691487 0.647096 0.024216 0.233186
N1    N     N_R   0.523540 0.519360 0.790140 -0.290142
N2    N     N_R   0.476460 0.480640 0.209860 -0.287992
O1    O     O_R   0.506670 0.354460 0.582000 -0.546289
O2    O     O_R   0.493330 0.645540 0.418000 -0.577445
O3    O     O_R   0.490800 0.341410 0.386200 -0.538781
O4    O     O_R   0.509200 0.658590 0.613800 -0.537226
O5    O     O_R   0.324790 0.506500 0.597880 -0.565310
O6    O     O_R   0.675210 0.493500 0.402120 -0.528256
O7    O     O_R   0.308910 0.493440 0.402080 -0.537311
O8    O     O_R   0.691090 0.506560 0.597920 -0.535569
F1    F     F_    0.912589 0.335032 0.585078 -0.583333
F2    F     F_    0.088773 0.669236 0.416444 -0.608762
C31   C     C_2   0.094683 0.510961 0.733379 0.530962
H3    H     H_    0.154903 0.575614 0.773741 0.068997
O9    O     O_2   0.067990 0.442893 0.788498 -0.442806
C32   C     C_2   0.907714 0.498423 0.267242 0.614743
H4    H     H_    0.928807 0.563892 0.224651 0.090451
O10   O     O_2   0.843963 0.425809 0.215137 -0.461628
C33   C     C_2   0.921073 0.688335 0.637172 0.589729
H5    H     H_    0.949938 0.706507 0.728604 0.077533
O11   O     O_2   0.854526 0.748572 0.592973 -0.508891
C34   C     C_2   0.080899 0.314548 0.366602 0.594771
H6    H     H_    0.138260 0.262520 0.409551 0.053848
O12   O     O_2   0.052523 0.291307 0.263153 -0.447385
C35   C     C_2   0.641783 0.806511 0.374030 0.531654
H7    H     H_    0.699703 0.742702 0.393494 0.139105
O13   O     O_2   0.634562 0.825639 0.275130 -0.523615
C36   C     C_2   0.311885 0.174510 0.556840 0.434598
H8    H     H_    0.297637 0.257576 0.579037 0.111750
O14   O     O_2   0.220052 0.116833 0.548339 -0.504946
C37   C     C_2   0.341111 0.816453 0.693087 0.405337
H9    H     H_    0.341631 0.843390 0.785945 0.053064
O15   O     O_2   0.272624 0.743266 0.650250 -0.531631
C38   C     C_2   0.705934 0.195595 0.346928 0.444359
H10   H     H_    0.736047 0.156685 0.263850 0.080827
O16   O     O_2   0.744443 0.283513 0.383754 -0.493307
C39   C     C_2   0.781250 0.998786 0.403537 0.479956
H11   H     H_    0.828351 0.016164 0.328972 0.070731
O17   O     O_2   0.838580 0.951221 0.470869 -0.457178
C40   C     C_2   0.356795 0.040732 0.733353 0.452543
H12   H     H_    0.275427 0.010965 0.769782 0.087098
O18   O     O_2   0.402825 0.124028 0.780621 -0.491803
F3    F     F_    0.362514 0.393312 0.779077 -0.637688
F4    F     F_    0.642705 0.601283 0.219353 -0.667356
F5    F     F_    0.684209 0.645919 0.801263 -0.646203
F6    F     F_    0.314806 0.354988 0.198996 -0.621759

loop_
_geom_bond_atom_site_label_1
_geom_bond_atom_site_label_2
_ccdc_geom_bond_type
C16   C21   S    
C27   C29   A    
C18   C21   S    
C28   C40   S    
C4    C25   A    
C31   O9    D    
C33   H5    S    
C34   H6    S    
C17   C23   S    
C40   O18   D    
C18   C24   S    
Cu2   N2    S    
C11   N2    A    
C19   C21   S    
C5    C6    A    
C5    C28   A    
Cu1   O4    S    
Cu2   O3    S    
C36   O14   D    
C15   C22   S    
C6    C27   A    
C38   H10   S    
C37   O15   D    
C9    N2    A    
C32   O10   D    
C10   N1    A    
Cu2   O2    S    
C7    C14   A    
C16   O8    A    
C18   C20   S    
C1    O1    A    
C35   H7    S    
C13   C14   A    
C7    H1    S    
C23   C33   S    
C33   O11   D    
C35   O13   D    
Cu1   O8    S    
C31   H3    S    
C15   O5    A    
C4    C6    A    
C40   H12   S    
C39   O17   D    
Cu1   O1    S    
C9    F6    S    
C36   H8    S    
C11   F4    S    
C29   C38   S    
C2    O2    A    
Cu1   Cu2   S    
C20   C23   S    
C12   F3    S    
C32   H4    S    
C8    H2    S    
C12   N1    A    
C38   O16   D    
C20   C22   S    
C21   C23   S    
C1    C26   S    
Cu1   N1    S    
C16   O6    A    
C27   C39   S    
C18   C32   S    
C3    C36   S    
C25   C30   A    
C7    C9    A    
Cu1   O5    S    
C3    C26   A    
C17   C31   S    
C12   C14   A    
C3    C5    A    
C10   F5    S    
C19   F1    S    
C24   C34   S    
C17   C22   S    
C28   C30   A    
C19   C24   S    
C15   O7    A    
C39   H11   S    
C11   C13   A    
C4    C35   S    
C17   C19   S    
Cu2   O7    S    
C34   O12   D    
C2    C25   S    
C22   C24   S    
C30   C37   S    
C1    O3    A    
C8    C13   A    
C2    O4    A    
C26   C29   A    
C8    C10   A    
C37   H9    S    
Cu2   O6    S    
C20   F2    S    
