data_mof_unit_21916.cif
_audit_creation_date              2012-12-10T20:42:44-0500
_audit_creation_method            fapswitch 2.2
_symmetry_space_group_name_H-M    P1
_symmetry_Int_Tables_number       1
_space_group_crystal_system       triclinic
_cell_length_a                    8.938003
_cell_length_b                    10.742548
_cell_length_c                    9.950931
_cell_angle_alpha                 90.588614
_cell_angle_beta                  91.143214
_cell_angle_gamma                 90.414896
_cell_volume                      955.190718629

loop_
_atom_site_label
_atom_site_type_symbol
_atom_type_description
_atom_site_fract_x
_atom_site_fract_y
_atom_site_fract_z
_atom_type_partial_charge
C1    C     C_R   0.495780 0.260506 0.499541 0.869962
C2    C     C_R   0.375407 0.465691 0.925900 0.020016
C3    C     C_3   0.296732 0.343578 0.914800 0.192998
C4    C     C_R   0.218911 0.500255 0.499114 0.914885
C5    C     C_3   0.287481 0.347933 0.070111 0.856657
C6    C     C_R   0.496636 0.739421 0.500404 0.905955
C7    C     C_R   0.781086 0.500020 0.500853 0.908746
C8    C     C_1   0.065356 0.500395 0.498686 -0.163638
C9    C     C_1   0.934634 0.500259 0.501152 -0.206821
C10   C     C_R   0.573550 0.065866 0.597267 -0.067418
C11   C     C_R   0.492779 0.128423 0.498975 -0.164195
C12   C     C_R   0.406863 0.934206 0.401504 0.196440
C13   C     C_R   0.407431 0.063311 0.402518 -0.286746
C14   C     C_3   0.058561 0.260445 0.127641 -0.206803
C15   C     C_3   0.488367 0.202142 0.090170 -0.381897
C16   C     C_3   0.357674 0.856621 0.176557 -0.755001
C17   C     C_3   0.669426 0.872142 0.947642 -0.287864
C18   C     C_3   0.786124 0.166943 0.771824 -0.240946
C19   C     C_3   0.882672 0.534849 0.879358 -0.632770
C20   C     C_3   0.138853 0.265222 0.747130 -0.343940
C21   C     C_R   0.492631 0.871562 0.499926 -0.182094
C22   C     C_R   0.576125 0.937478 0.597381 -0.038855
C23   C     C_3   0.559472 0.930527 0.747011 0.323341
C24   C     C_3   0.546199 0.070963 0.745883 0.344636
C25   C     C_R   0.374007 0.467922 0.067630 0.051124
C26   C     C_R   0.618569 0.544156 0.075723 -0.179890
C27   C     C_R   0.619371 0.545270 0.932684 0.208462
H1    H     H_    0.335085 0.111989 0.333112 0.216770
H2    H     H_    0.562418 0.272083 0.043330 0.190508
H3    H     H_    0.452859 0.128472 0.017492 0.171615
H4    H     H_    0.198499 0.900761 0.316296 0.211581
H5    H     H_    0.355489 0.948518 0.126683 0.218681
H6    H     H_    0.282856 0.791383 0.119282 0.237716
H7    H     H_    0.472987 0.819141 0.175622 0.250725
H8    H     H_    0.580340 0.801724 0.964036 0.148922
H9    H     H_    0.640792 0.960833 0.998800 0.186442
H10   H     H_    0.774327 0.837809 0.995219 0.193635
H11   H     H_    0.767687 0.239088 0.694275 0.168999
H12   H     H_    0.372731 0.273660 0.871343 0.081608
H13   H     H_    0.842847 0.084339 0.728806 0.189627
H14   H     H_    0.860829 0.207397 0.851192 0.180751
H15   H     H_    0.721583 0.647731 0.782484 0.304748
H16   H     H_    0.971470 0.587780 0.827706 0.248175
H17   H     H_    0.869682 0.441963 0.830632 0.261462
H18   H     H_    0.918253 0.523008 0.985947 0.253502
H19   H     H_    0.126943 0.171529 0.792277 0.135609
H20   H     H_    0.232756 0.265221 0.676011 0.188189
H21   H     H_    0.037048 0.285896 0.686626 0.169101
H22   H     H_    0.455427 0.880203 0.775958 0.039335
H23   H     H_    0.429835 0.099197 0.766890 0.009292
H24   H     H_    0.713744 0.580613 0.132693 0.170779
H25   H     H_    0.090331 0.212658 0.222399 0.165936
H26   H     H_    0.072890 0.196314 0.040409 0.151138
H27   H     H_    0.937984 0.283605 0.132415 0.167554
H28   H     H_    0.555931 0.156398 0.169858 0.219044
N1    N     N_R   0.499010 0.499140 0.142800 -0.123060
N2    N     N_R   0.499010 0.499180 0.857150 -0.141053
N3    N     N_2   0.306706 0.868211 0.312966 -0.285064
N4    N     N_2   0.743371 0.602114 0.870751 -0.320966
O1    O     O_R   0.500020 0.316790 0.614690 -0.630422
O2    O     O_3   0.360888 0.255150 0.148705 -0.646472
O3    O     O_3   0.693110 0.888621 0.809224 -0.577262
O4    O     O_3   0.650880 0.134312 0.832553 -0.614888
O5    O     O_3   0.156793 0.357562 0.848148 -0.570553
O6    O     O_R   0.500000 0.316760 0.385350 -0.560089
O7    O     O_R   0.285350 0.500020 0.614650 -0.591955
O8    O     O_R   0.285340 0.499980 0.385310 -0.574799
O9    O     O_R   0.500000 0.683240 0.614650 -0.639061
O10   O     O_R   0.499980 0.683210 0.385310 -0.597339
O11   O     O_R   0.714660 0.500020 0.614690 -0.635550
O12   O     O_R   0.714650 0.499980 0.385350 -0.619888
O13   O     O_3   0.141237 0.372205 0.115927 -0.599701
Zn1   Zn    Zn3+2 0.500010 0.500020 0.653130 0.952141
Zn2   Zn    Zn3+2 0.499990 0.499980 0.346870 0.990195

loop_
_geom_bond_atom_site_label_1
_geom_bond_atom_site_label_2
_ccdc_geom_bond_type
H15   N4    S    
C20   O5    S    
O12   Zn2   S    
C1    O6    A    
C23   C24   S    
C19   H18   S    
C13   H1    S    
C16   H7    S    
C17   H9    S    
C16   H6    S    
C16   H5    S    
C6    O10   A    
C26   H24   S    
C5    O13   S    
C1    C11   S    
C25   N1    A    
O7    Zn1   S    
C15   O2    S    
C4    C8    S    
C12   N3    S    
C7    O11   A    
C6    O9    A    
C2    C3    S    
C18   H11   S    
C2    N2    A    
C5    O2    S    
O10   Zn2   S    
O8    Zn2   S    
C27   N4    S    
C21   C22   A    
C12   C13   A    
C4    O7    A    
C11   C13   A    
C26   C27   A    
C20   H21   S    
O11   Zn1   S    
C5    C25   S    
H4    N3    S    
C14   H27   S    
C19   H16   S    
C15   H2    S    
C2    C25   A    
C7    O12   A    
C24   H23   S    
C17   O3    S    
C14   H25   S    
C24   O4    S    
C23   H22   S    
C20   H20   S    
N1    Zn2   S    
C10   C11   A    
C17   H10   S    
C3    H12   S    
O1    Zn1   S    
C14   H26   S    
C19   H17   S    
C15   H3    S    
C19   N4    S    
C18   O4    S    
C27   N2    A    
C1    O1    A    
N2    Zn1   S    
C7    C9    S    
C18   H13   S    
C22   C23   S    
C16   N3    S    
C17   H8    S    
C10   C24   S    
O9    Zn1   S    
C3    O5    S    
C6    C21   S    
C14   O13   S    
C12   C21   A    
C10   C22   A    
C23   O3    S    
C20   H19   S    
O6    Zn2   S    
C18   H14   S    
C26   N1    A    
C8    C9    T    
C3    C5    S    
C4    O8    A    
C15   H28   S    
