data_mof_unit_37520.cif
_audit_creation_date              2013-03-05T16:06:22-0500
_audit_creation_method            fapswitch 2.2
_symmetry_space_group_name_H-M    P1
_symmetry_Int_Tables_number       1
_space_group_crystal_system       triclinic
_cell_length_a                    10.831233
_cell_length_b                    9.500784
_cell_length_c                    27.810179
_cell_angle_alpha                 89.749998
_cell_angle_beta                  90.153516
_cell_angle_gamma                 90.013576
_cell_volume                      2861.77458852

loop_
_atom_site_label
_atom_site_type_symbol
_atom_site_description
_atom_site_fract_x
_atom_site_fract_y
_atom_site_fract_z
_atom_type_partial_charge
O1    O     O_R   0.319640 0.618740 0.500000 -0.586782
O2    O     O_R   0.680360 0.381260 0.500000 -0.586779
O3    O     O_R   0.680360 0.618740 0.500000 -0.589169
O4    O     O_R   0.319640 0.381260 0.500000 -0.589171
C1    C     C_R   0.262006 0.499991 0.499970 0.794341
C2    C     C_R   0.737994 0.500009 0.500030 0.794351
O5    O     O_R   0.500020 0.618770 0.430260 -0.586969
O6    O     O_R   0.499980 0.381230 0.569740 -0.586962
O7    O     O_R   0.499980 0.618770 0.569740 -0.582153
O8    O     O_R   0.500020 0.381230 0.430260 -0.582143
C3    C     C_R   0.499984 0.500343 0.407401 0.810384
C4    C     C_R   0.500046 0.499659 0.592598 0.810313
Cu1   Cu    Cu3+1 0.500000 0.640660 0.500000 0.944156
Cu2   Cu    Cu3+1 0.500000 0.359340 0.500000 0.944170
C5    C     C_R   0.392709 0.531439 0.177794 0.520218
C6    C     C_R   0.606963 0.460698 0.822195 0.518729
O9    O     O_2   0.289124 0.562749 0.202419 -0.539651
O10   O     O_2   0.708527 0.421972 0.797544 -0.541723
N1    N     N_R   0.499084 0.500358 0.202135 -0.471281
N2    N     N_R   0.502548 0.499684 0.797881 -0.470824
C7    C     C_R   0.605282 0.466380 0.178445 0.517143
C8    C     C_R   0.398752 0.541959 0.821610 0.518727
C9    C     C_R   0.525383 0.629606 0.278515 0.133386
C10   C     C_R   0.475249 0.370431 0.721512 0.133803
C11   C     C_R   0.524406 0.626892 0.329171 -0.214254
C12   C     C_R   0.475826 0.373180 0.670853 -0.214524
C13   C     C_R   0.475395 0.377738 0.328921 -0.221796
C14   C     C_R   0.525127 0.622254 0.671048 -0.222321
C15   C     C_R   0.474355 0.379240 0.278937 -0.133660
C16   C     C_R   0.526576 0.620751 0.721029 -0.133219
C17   C     C_R   0.499390 0.503540 0.253671 0.335745
C18   C     C_R   0.501807 0.496427 0.746335 0.335211
C19   C     C_R   0.499744 0.498702 0.101990 -0.043636
C20   C     C_R   0.502388 0.501706 0.898035 -0.043542
C21   C     C_R   0.391096 0.531504 0.127320 -0.018906
C22   C     C_R   0.608671 0.460397 0.872671 -0.018464
C23   C     C_R   0.283406 0.563396 0.101897 -0.150036
C24   C     C_R   0.713805 0.418716 0.898058 -0.150308
C25   C     C_R   0.607711 0.465311 0.127985 -0.018368
C26   C     C_R   0.396653 0.543541 0.872074 -0.018708
C27   C     C_R   0.499980 0.501516 0.354449 -0.068041
C28   C     C_R   0.500275 0.498502 0.645550 -0.068212
H1    H     H_    0.455812 0.279938 0.347559 0.157121
H2    H     H_    0.544626 0.720041 0.652389 0.157081
H3    H     H_    0.453969 0.283380 0.259579 0.140649
H4    H     H_    0.547096 0.716645 0.740354 0.140696
H5    H     H_    0.198246 0.587303 0.120538 0.186994
H6    H     H_    0.796368 0.385288 0.879384 0.187196
C29   C     C_R   0.392902 0.540805 0.974135 0.042318
C30   C     C_R   0.610453 0.463618 0.025908 0.042725
C31   C     C_R   0.610169 0.460881 0.974763 0.042422
C32   C     C_R   0.391082 0.535780 0.025252 0.042674
C33   C     C_R   0.501834 0.501170 0.949202 0.065964
C34   C     C_R   0.500424 0.499330 0.050827 0.065893
C35   C     C_R   0.289358 0.585158 0.946783 -0.208083
C36   C     C_R   0.717523 0.432284 0.053313 -0.207789
C37   C     C_R   0.291367 0.586000 0.896869 -0.151059
C38   C     C_R   0.715792 0.432856 0.103225 -0.150965
O11   O     O_2   0.297801 0.581486 0.796398 -0.542801
O12   O     O_2   0.708218 0.434479 0.203704 -0.541529
C39   C     C_R   0.283004 0.565164 0.051979 -0.207750
C40   C     C_R   0.714737 0.418505 0.947980 -0.207717
H7    H     H_    0.456363 0.278882 0.650635 0.151100
H8    H     H_    0.543486 0.721269 0.349402 0.150970
H9    H     H_    0.209374 0.620325 0.877734 0.187448
H10   H     H_    0.800352 0.408043 0.122390 0.187420
H11   H     H_    0.204938 0.621984 0.962665 0.138941
H12   H     H_    0.805568 0.408361 0.037499 0.137643
H13   H     H_    0.195193 0.588384 0.035587 0.137516
H14   H     H_    0.799203 0.382442 0.964297 0.138550
C41   C     C_R   0.063824 0.372072 0.500049 -0.180207
C42   C     C_R   0.936176 0.627928 0.499951 -0.180200
C43   C     C_R   0.936117 0.372084 0.500096 -0.177571
C44   C     C_R   0.063883 0.627916 0.499904 -0.177602
H15   H     H_    0.111847 0.272068 0.500085 0.149085
H16   H     H_    0.888153 0.727932 0.499915 0.149090
H17   H     H_    0.888044 0.272085 0.500178 0.149474
H18   H     H_    0.111956 0.727915 0.499822 0.149471
C45   C     C_R   0.871804 0.500013 0.500035 -0.018789
C46   C     C_R   0.128195 0.499986 0.499965 -0.018803
C47   C     C_R   0.423957 0.074838 0.469786 -0.025768
C48   C     C_R   0.576043 0.925162 0.530213 -0.025740
C49   C     C_R   0.576030 0.074124 0.530217 -0.028786
C50   C     C_R   0.423971 0.925876 0.469782 -0.028812
H19   H     H_    0.363077 0.131395 0.445609 0.117429
H20   H     H_    0.636924 0.868605 0.554390 0.117338
H21   H     H_    0.636882 0.130117 0.554398 0.120081
H22   H     H_    0.363118 0.869883 0.445601 0.120052
N3    N     N_R   0.500000 0.852070 0.500000 -0.156354
N4    N     N_R   0.500000 0.147930 0.500000 -0.156370
C51   C     C_3   0.446398 0.237741 0.750347 -0.390555
C52   C     C_3   0.412709 0.106778 0.720789 -0.396144
C53   C     C_3   0.382376 0.982000 0.753475 -0.781771
H23   H     H_    0.463330 0.954659 0.776276 0.248024
H24   H     H_    0.302635 0.007361 0.776928 0.262841
H25   H     H_    0.357967 0.889298 0.731200 0.256060
H26   H     H_    0.330652 0.129453 0.697937 0.231127
H27   H     H_    0.491611 0.076997 0.697453 0.220344
H28   H     H_    0.528006 0.211890 0.773025 0.219200
H29   H     H_    0.367952 0.261345 0.774733 0.212987
C54   C     C_3   0.553656 0.762422 0.249679 -0.390512
C55   C     C_3   0.585901 0.893816 0.279247 -0.393138
C56   C     C_3   0.616054 0.018639 0.246563 -0.787030
H30   H     H_    0.696181 0.993666 0.223260 0.263361
H31   H     H_    0.535239 0.045415 0.223611 0.248227
H32   H     H_    0.639844 0.111522 0.268847 0.254445
H33   H     H_    0.506394 0.923005 0.302358 0.220057
H34   H     H_    0.667718 0.871987 0.302324 0.231122
H35   H     H_    0.632710 0.739567 0.225517 0.215885
H36   H     H_    0.472189 0.787186 0.226766 0.215747

loop_
_geom_bond_atom_site_label_1
_geom_bond_atom_site_label_2
_geom_bond_distance
_ccdc_geom_bond_type
C49   H21   1.081770 S    
C53   H23   1.110891 S    
C13   C15   1.390107 A    
C42   H16   1.083283 S    
O3    C2    1.289371 A    
N1    C17   1.433679 S    
C52   H27   1.111873 S    
O5    C3    1.294730 A    
C19   C25   1.408697 A    
C48   N3    1.366649 A    
O1    C1    1.289267 A    
N1    C7    1.366537 A    
C10   C12   1.409011 A    
C42   C45   1.400943 A    
C32   C39   1.416830 A    
C54   H35   1.111877 S    
C40   H14   1.075580 S    
O7    Cu1   1.949699 S    
Cu2   N4    2.008562 S    
C4    C28   1.472596 S    
C38   H10   1.083929 S    
C55   H34   1.111797 S    
C51   H29   1.112048 S    
C23   H5    1.083899 S    
C24   H6    1.083665 S    
O3    Cu1   1.964640 S    
O6    C4    1.294739 A    
C53   H24   1.110824 S    
C44   C46   1.401032 A    
Cu1   Cu2   2.672761 S    
O2    C2    1.289266 A    
C31   C40   1.416692 A    
C5    C21   1.403750 A    
C41   C46   1.400943 A    
C32   C34   1.421941 A    
C52   H26   1.111798 S    
C16   C18   1.398591 A    
C54   C55   1.537440 S    
C7    O12   1.349984 S    
C42   C44   1.383224 A    
O8    Cu2   1.949699 S    
C11   C27   1.405917 A    
C8    O11   1.349814 S    
C41   C43   1.383225 A    
C54   H36   1.111660 S    
C48   H20   1.081792 S    
C25   C38   1.394982 A    
C14   H2    1.083194 S    
C30   C36   1.416976 A    
C15   H3    1.082397 S    
C31   C33   1.421997 A    
C11   H8    1.080242 S    
C9    C17   1.413215 A    
C5    N1    1.366438 A    
C12   H7    1.080221 S    
C10   C18   1.413588 A    
C13   C27   1.401420 A    
C23   C39   1.388241 A    
C7    C25   1.403705 A    
C6    N2    1.366506 A    
C29   C32   1.422355 A    
C8    C26   1.403798 A    
C30   C31   1.422706 A    
C43   C45   1.401032 A    
C55   H33   1.111873 S    
C56   H31   1.110874 S    
C30   C34   1.422070 A    
C1    C46   1.449333 S    
C47   N4    1.366653 A    
N2    C8    1.366470 A    
C53   H25   1.110466 S    
C35   C37   1.388320 A    
C20   C26   1.408580 A    
O1    Cu1   1.964541 S    
C50   N3    1.366551 A    
C22   C24   1.394798 A    
C10   C51   1.523902 S    
C51   C52   1.537562 S    
C47   C50   1.415258 A    
C12   C28   1.405871 A    
N2    C18   1.433973 S    
C39   H13   1.076095 S    
C19   C34   1.422886 A    
C5    O9    1.349922 S    
C49   N4    1.366550 A    
O6    Cu2   1.951503 S    
C26   C37   1.394821 A    
Cu1   N3    2.008561 S    
C16   H4    1.082509 S    
C50   H22   1.081771 S    
C37   H9    1.083665 S    
O4    C1    1.289370 A    
C29   C35   1.416623 A    
C35   H11   1.075749 S    
C14   C16   1.390016 A    
C21   C23   1.395028 A    
C15   C17   1.398394 A    
C36   H12   1.075982 S    
C6    C22   1.403818 A    
C41   H15   1.083282 S    
C2    C45   1.449332 S    
C9    C54   1.523626 S    
C29   C33   1.421807 A    
C14   C28   1.401341 A    
C52   C53   1.526955 S    
C19   C21   1.408790 A    
C36   C38   1.388270 A    
C3    C27   1.472612 S    
C56   H32   1.110394 S    
C20   C22   1.408467 A    
C9    C11   1.408952 A    
O4    Cu2   1.964640 S    
C55   C56   1.526824 S    
O2    Cu2   1.964541 S    
O7    C4    1.295548 A    
O8    C3    1.295569 A    
C13   H1    1.083202 S    
O5    Cu1   1.951503 S    
C20   C33   1.422974 A    
C6    O10   1.349781 S    
C48   C49   1.415258 A    
C44   H18   1.083284 S    
C56   H30   1.110830 S    
C43   H17   1.083284 S    
C51   H28   1.111365 S    
C47   H19   1.081790 S    
C24   C40   1.388331 A    
