data_mof_unit_12088.cif
_audit_creation_date              2013-03-05T15:49:58-0500
_audit_creation_method            fapswitch 2.2
_symmetry_space_group_name_H-M    P1
_symmetry_Int_Tables_number       1
_space_group_crystal_system       triclinic
_cell_length_a                    17.15829
_cell_length_b                    17.155727
_cell_length_c                    17.377285
_cell_angle_alpha                 90.130543
_cell_angle_beta                  89.997396
_cell_angle_gamma                 90.029379
_cell_volume                      5115.21473053

loop_
_atom_site_label
_atom_site_type_symbol
_atom_site_description
_atom_site_fract_x
_atom_site_fract_y
_atom_site_fract_z
_atom_type_partial_charge
C1    C     C_R   0.424799 0.668249 0.646292 -0.031455
C2    C     C_R   0.603456 0.303848 0.387753 -0.036557
C3    C     C_R   0.697468 0.603417 0.609150 -0.040009
C4    C     C_R   0.327781 0.422013 0.356476 -0.021149
C5    C     C_R   0.581752 0.325377 0.641935 -0.010679
C6    C     C_R   0.394773 0.698791 0.395934 -0.040620
C7    C     C_R   0.303558 0.395161 0.610579 -0.051862
C8    C     C_R   0.674695 0.581547 0.358005 -0.010310
C9    C     C_R   0.421344 0.330507 0.354160 -0.018636
C10   C     C_R   0.606680 0.696655 0.609595 -0.067575
C11   C     C_R   0.695894 0.395829 0.387923 -0.050004
C12   C     C_R   0.333410 0.575172 0.647257 -0.052666
C13   C     C_R   0.581484 0.673760 0.357409 -0.022836
C14   C     C_R   0.396144 0.303676 0.611222 -0.045660
C15   C     C_R   0.301889 0.607909 0.395487 -0.019699
C16   C     C_R   0.674172 0.418390 0.642348 -0.016935
C17   C     C_R   0.925916 0.166715 0.147058 -0.024979
C18   C     C_R   0.101155 0.805430 0.883898 -0.044102
C19   C     C_R   0.199355 0.105889 0.102153 -0.042548
C20   C     C_R   0.831862 0.925462 0.853791 -0.022087
C21   C     C_R   0.076804 0.829616 0.144748 -0.038478
C22   C     C_R   0.892007 0.200062 0.903042 -0.039746
C23   C     C_R   0.799841 0.892359 0.097108 -0.043419
C24   C     C_R   0.166454 0.075632 0.852535 -0.050650
C25   C     C_R   0.924756 0.834108 0.852150 -0.050390
C26   C     C_R   0.108744 0.198784 0.101606 -0.030567
C27   C     C_R   0.194170 0.896842 0.884172 -0.068390
C28   C     C_R   0.832797 0.075381 0.146922 -0.038190
C29   C     C_R   0.074221 0.167828 0.853791 -0.012478
C30   C     C_R   0.890707 0.800389 0.097780 -0.014556
C31   C     C_R   0.800388 0.108835 0.901719 -0.032893
C32   C     C_R   0.166410 0.924648 0.147376 -0.022972
H1    H     H_    0.458376 0.719525 0.660216 0.146182
H2    H     H_    0.576483 0.246870 0.388659 0.148392
H3    H     H_    0.753739 0.575567 0.605589 0.157278
H4    H     H_    0.277838 0.457494 0.343647 0.154438
H5    H     H_    0.546435 0.275620 0.656645 0.158087
H6    H     H_    0.423340 0.754601 0.400177 0.157923
H7    H     H_    0.246401 0.421433 0.608396 0.176963
H8    H     H_    0.724275 0.546006 0.343196 0.154760
H9    H     H_    0.455567 0.280368 0.337749 0.146297
H10   H     H_    0.580414 0.753957 0.609916 0.146624
H11   H     H_    0.753072 0.422290 0.389231 0.150252
H12   H     H_    0.282311 0.541893 0.662501 0.162089
H13   H     H_    0.545719 0.723067 0.342042 0.156494
H14   H     H_    0.423070 0.246871 0.608625 0.158077
H15   H     H_    0.245085 0.580594 0.395074 0.156127
H16   H     H_    0.723681 0.453924 0.657589 0.156564
H17   H     H_    0.960747 0.216858 0.161268 0.170071
H18   H     H_    0.074577 0.748350 0.885229 0.155812
H19   H     H_    0.254582 0.075871 0.101822 0.161695
H20   H     H_    0.781668 0.960492 0.839925 0.148497
H21   H     H_    0.041592 0.779433 0.157831 0.155611
H22   H     H_    0.922003 0.255101 0.903799 0.167532
H23   H     H_    0.744957 0.922538 0.096121 0.164247
H24   H     H_    0.217701 0.042885 0.836736 0.161426
H25   H     H_    0.957575 0.783107 0.835869 0.158794
H26   H     H_    0.080773 0.255201 0.102576 0.162299
H27   H     H_    0.251824 0.922129 0.885257 0.171107
H28   H     H_    0.781968 0.041379 0.161653 0.159886
H29   H     H_    0.039054 0.217929 0.839830 0.150708
H30   H     H_    0.919873 0.744632 0.100139 0.152024
H31   H     H_    0.744873 0.079256 0.898943 0.155432
H32   H     H_    0.213050 0.962619 0.165588 0.163173
N1    N     N_R   0.424590 0.632770 0.578330 -0.062421
N2    N     N_R   0.575410 0.367230 0.421670 -0.072903
N3    N     N_R   0.632770 0.575410 0.578330 -0.074043
N4    N     N_R   0.367230 0.424590 0.421670 -0.071300
N5    N     N_R   0.575410 0.367230 0.578330 -0.070805
N6    N     N_R   0.424590 0.632770 0.421670 -0.072071
N7    N     N_R   0.367230 0.424590 0.578330 -0.074043
N8    N     N_R   0.632770 0.575410 0.421670 -0.073470
N9    N     N_R   0.424590 0.367230 0.421670 -0.066234
N10   N     N_R   0.575410 0.632770 0.578330 -0.069099
N11   N     N_R   0.632770 0.424590 0.421670 -0.071577
N12   N     N_R   0.367230 0.575410 0.578330 -0.062674
N13   N     N_R   0.575410 0.632770 0.421670 -0.071065
N14   N     N_R   0.424590 0.367230 0.578330 -0.073486
N15   N     N_R   0.367230 0.575410 0.421670 -0.071612
N16   N     N_R   0.632770 0.424590 0.578330 -0.069789
N17   N     N_R   0.924590 0.132770 0.078330 -0.070681
N18   N     N_R   0.075410 0.867230 0.921670 -0.073632
N19   N     N_R   0.132770 0.075410 0.078330 -0.071992
N20   N     N_R   0.867230 0.924590 0.921670 -0.071503
N21   N     N_R   0.075410 0.867230 0.078330 -0.071003
N22   N     N_R   0.924590 0.132770 0.921670 -0.068622
N23   N     N_R   0.867230 0.924590 0.078330 -0.065434
N24   N     N_R   0.132770 0.075410 0.921670 -0.063503
N25   N     N_R   0.924590 0.867230 0.921670 -0.065649
N26   N     N_R   0.075410 0.132770 0.078330 -0.071362
N27   N     N_R   0.132770 0.924590 0.921670 -0.070985
N28   N     N_R   0.867230 0.075410 0.078330 -0.072442
N29   N     N_R   0.075410 0.132770 0.921670 -0.066417
N30   N     N_R   0.924590 0.867230 0.078330 -0.065666
N31   N     N_R   0.867230 0.075410 0.921670 -0.068416
N32   N     N_R   0.132770 0.924590 0.078330 -0.067646
C33   C     C_3   0.319166 0.323456 0.252842 -0.330334
C34   C     C_3   0.736224 0.729226 0.669236 -0.342288
C35   C     C_3   0.267876 0.737688 0.338983 -0.345829
C36   C     C_3   0.684281 0.315433 0.742284 -0.321988
C37   C     C_3   0.684871 0.683683 0.257417 -0.324028
C38   C     C_3   0.269382 0.268901 0.673439 -0.345288
C39   C     C_3   0.729906 0.268467 0.326856 -0.346434
C40   C     C_3   0.322638 0.678570 0.744138 -0.344038
C41   C     C_3   0.824772 0.827463 0.750146 -0.325075
C42   C     C_3   0.238386 0.232927 0.156601 -0.338718
C43   C     C_3   0.765360 0.237560 0.848195 -0.332558
C44   C     C_3   0.175342 0.824069 0.249263 -0.325122
C45   C     C_3   0.173439 0.177440 0.752889 -0.340208
C46   C     C_3   0.761748 0.765953 0.151650 -0.333778
C47   C     C_3   0.223792 0.771977 0.816907 -0.351884
C48   C     C_3   0.826513 0.175495 0.248907 -0.329689
Ni1   Ni    Ni4+2 0.500000 0.631570 0.500000 0.279317
Ni2   Ni    Ni4+2 0.500000 0.368430 0.500000 0.283094
Ni3   Ni    Ni4+2 0.631570 0.500000 0.500000 0.280586
Ni4   Ni    Ni4+2 0.368430 0.500000 0.500000 0.284988
Ni5   Ni    Ni4+2 0.000000 0.131570 0.000000 0.286428
Ni6   Ni    Ni4+2 0.000000 0.868430 0.000000 0.283993
Ni7   Ni    Ni4+2 0.131570 0.000000 0.000000 0.289914
Ni8   Ni    Ni4+2 0.868430 0.000000 0.000000 0.278426
C49   C     C_R   0.367978 0.633435 0.690377 0.231767
C50   C     C_R   0.677294 0.321843 0.364088 0.242695
C51   C     C_R   0.681878 0.678151 0.630593 0.228955
C52   C     C_R   0.360414 0.363440 0.313447 0.225847
C53   C     C_R   0.643564 0.356153 0.682166 0.211313
C54   C     C_R   0.318720 0.684365 0.378653 0.230524
C55   C     C_R   0.321781 0.321152 0.634099 0.208776
C56   C     C_R   0.643974 0.643119 0.317646 0.213434
C57   C     C_R   0.869034 0.131842 0.191316 0.219627
C58   C     C_R   0.173161 0.824685 0.856710 0.219100
C59   C     C_R   0.185795 0.182684 0.115917 0.238395
C60   C     C_R   0.867045 0.869456 0.809053 0.225118
C61   C     C_R   0.133797 0.864359 0.188829 0.211502
C62   C     C_R   0.814310 0.186987 0.892544 0.243240
C63   C     C_R   0.812546 0.814663 0.107241 0.245350
C64   C     C_R   0.130802 0.133240 0.809449 0.226421
C65   C     C_3   0.814692 0.707828 0.707082 0.149858
C66   C     C_3   0.234874 0.338908 0.225423 0.127688
C67   C     C_3   0.683050 0.226230 0.753268 0.128365
C68   C     C_3   0.287865 0.819707 0.307935 0.146623
C69   C     C_3   0.220968 0.294870 0.743911 0.173774
C70   C     C_3   0.773714 0.680711 0.243718 0.127131
C71   C     C_3   0.345208 0.754002 0.787129 0.145148
C72   C     C_3   0.704312 0.205607 0.268778 0.148495
C73   C     C_3   0.793812 0.296273 0.271087 0.161994
C74   C     C_3   0.269599 0.653754 0.811205 0.177815
C75   C     C_3   0.670929 0.679465 0.169969 0.183931
C76   C     C_3   0.293517 0.193462 0.715811 0.135439
C77   C     C_3   0.237330 0.713784 0.258958 0.166111
C78   C     C_3   0.677239 0.326740 0.829916 0.182284
C79   C     C_3   0.343391 0.303375 0.169686 0.191308
C80   C     C_3   0.710905 0.772459 0.742710 0.163664
C81   C     C_3   0.322711 0.217022 0.183599 0.129179
C82   C     C_3   0.746182 0.848473 0.712068 0.140239
C83   C     C_3   0.155634 0.742201 0.280985 0.125113
C84   C     C_3   0.767045 0.327002 0.837272 0.152116
C85   C     C_3   0.672724 0.769427 0.165302 0.149659
C86   C     C_3   0.221649 0.151357 0.682737 0.177479
C87   C     C_3   0.852103 0.238858 0.307082 0.155455
C88   C     C_3   0.200627 0.696582 0.774077 0.147712
C89   C     C_3   0.276559 0.796759 0.749552 0.176006
C90   C     C_3   0.762105 0.147774 0.304813 0.151444
C91   C     C_3   0.149317 0.252782 0.710909 0.153575
C92   C     C_3   0.775103 0.769753 0.239968 0.156985
C93   C     C_3   0.771939 0.226899 0.759607 0.156383
C94   C     C_3   0.205620 0.848973 0.329242 0.189122
C95   C     C_3   0.850931 0.783912 0.676681 0.183938
C96   C     C_3   0.215006 0.253339 0.240130 0.163579
C97   C     C_3   0.298233 0.236646 0.266279 0.143058
C98   C     C_3   0.772384 0.805377 0.638508 0.159002
C99   C     C_3   0.185712 0.766968 0.360741 0.177732
C100  C     C_3   0.774012 0.315426 0.749639 0.141788
C101  C     C_3   0.686981 0.773608 0.252687 0.141215
C102  C     C_3   0.197264 0.226700 0.640472 0.175262
C103  C     C_3   0.787965 0.210726 0.363070 0.171518
C104  C     C_3   0.252664 0.722212 0.707109 0.156666
C105  C     C_3   0.788141 0.750364 0.779820 0.144908
C106  C     C_3   0.259103 0.319026 0.142407 0.183235
C107  C     C_3   0.675703 0.237550 0.840675 0.154544
C108  C     C_3   0.258358 0.794685 0.228679 0.135471
C109  C     C_3   0.245983 0.220465 0.785495 0.150786
C110  C     C_3   0.759729 0.676211 0.156507 0.156654
C111  C     C_3   0.292515 0.728885 0.854346 0.171985
C112  C     C_3   0.767468 0.234288 0.213647 0.157875
N33   N     N_R   0.313046 0.189582 0.334823 0.280027
O1    O     O_R   0.312883 0.114043 0.328678 -0.221228
O2    O     O_R   0.301310 0.220110 0.402418 -0.318801
N34   N     N_R   0.763360 0.830850 0.559245 0.288424
O3    O     O_R   0.732184 0.897992 0.543503 -0.205356
O4    O     O_R   0.781256 0.783348 0.503681 -0.250341
N35   N     N_R   0.145145 0.748784 0.432110 0.304309
O5    O     O_R   0.120858 0.804277 0.477160 -0.183741
O6    O     O_R   0.126658 0.676941 0.447270 -0.261676
N36   N     N_R   0.828997 0.354382 0.698248 0.269607
O7    O     O_R   0.831740 0.335398 0.625814 -0.265110
O8    O     O_R   0.874289 0.409391 0.723727 -0.210878
N37   N     N_R   0.650799 0.827829 0.306932 0.269379
O9    O     O_R   0.596524 0.875433 0.284524 -0.219273
O10   O     O_R   0.671403 0.827416 0.378912 -0.262958
N38   N     N_R   0.170671 0.233195 0.561079 0.296888
O11   O     O_R   0.161294 0.171230 0.518886 -0.183231
O12   O     O_R   0.153001 0.301154 0.533104 -0.279950
N39   N     N_R   0.797359 0.196800 0.445214 0.306077
O13   O     O_R   0.843128 0.141436 0.468894 -0.181931
O14   O     O_R   0.757070 0.236684 0.494935 -0.293435
N40   N     N_R   0.230763 0.717744 0.625896 0.282743
O15   O     O_R   0.167189 0.682045 0.605552 -0.233094
O16   O     O_R   0.278012 0.743165 0.573067 -0.347898
N41   N     N_R   0.793827 0.720517 0.858385 0.281633
O17   O     O_R   0.760721 0.758000 0.914713 -0.315302
O18   O     O_R   0.836328 0.659715 0.873328 -0.231250
N42   N     N_R   0.236674 0.363911 0.074736 0.304723
O19   O     O_R   0.289452 0.396448 0.031793 -0.180853
O20   O     O_R   0.163417 0.375418 0.059492 -0.277629
N43   N     N_R   0.618941 0.199473 0.890559 0.298582
O21   O     O_R   0.544928 0.208105 0.877062 -0.190675
O22   O     O_R   0.640949 0.166239 0.954034 -0.281523
N44   N     N_R   0.303853 0.808489 0.158762 0.282518
O23   O     O_R   0.334612 0.749834 0.122430 -0.190123
O24   O     O_R   0.329069 0.878223 0.143429 -0.300887
N45   N     N_R   0.271565 0.217287 0.865869 0.280828
O25   O     O_R   0.337184 0.184334 0.884097 -0.230558
O26   O     O_R   0.226079 0.242498 0.920374 -0.332820
N46   N     N_R   0.795413 0.620827 0.103381 0.297019
O27   O     O_R   0.786537 0.546462 0.114515 -0.191229
O28   O     O_R   0.826918 0.644833 0.039725 -0.269729
N47   N     N_R   0.309021 0.733721 0.936399 0.286717
O29   O     O_R   0.370487 0.770351 0.961083 -0.208973
O30   O     O_R   0.257146 0.709562 0.985402 -0.277517
N48   N     N_R   0.756612 0.249818 0.131666 0.275805
O31   O     O_R   0.810283 0.286214 0.092970 -0.322640
O32   O     O_R   0.692208 0.230085 0.097463 -0.231708
N49   N     N_R   0.851327 0.631108 0.707309 0.275518
O33   O     O_R   0.920318 0.621339 0.677949 -0.214624
O34   O     O_R   0.816227 0.572511 0.739680 -0.290756
N50   N     N_R   0.185660 0.405887 0.242924 0.264123
O35   O     O_R   0.119201 0.396892 0.277655 -0.227565
O36   O     O_R   0.204227 0.474019 0.216108 -0.266277
N51   N     N_R   0.640362 0.168659 0.707748 0.270414
O37   O     O_R   0.652964 0.162473 0.634196 -0.262473
O38   O     O_R   0.593082 0.120028 0.741018 -0.226607
N52   N     N_R   0.360455 0.862841 0.318502 0.272444
O39   O     O_R   0.360972 0.928435 0.356078 -0.223009
O40   O     O_R   0.423404 0.840065 0.283342 -0.284054
N53   N     N_R   0.220717 0.372666 0.778241 0.284724
O41   O     O_R   0.247888 0.383549 0.847228 -0.191216
O42   O     O_R   0.190040 0.431040 0.741584 -0.309967
N54   N     N_R   0.831612 0.635490 0.286022 0.270385
O43   O     O_R   0.878838 0.589098 0.249569 -0.226575
O44   O     O_R   0.840473 0.645957 0.359647 -0.268940
N55   N     N_R   0.424616 0.781127 0.797918 0.273332
O45   O     O_R   0.448744 0.845289 0.766171 -0.251049
O46   O     O_R   0.471819 0.740309 0.840044 -0.211102
N56   N     N_R   0.624048 0.188888 0.246330 0.272701
O47   O     O_R   0.596654 0.118391 0.250918 -0.239763
O48   O     O_R   0.580128 0.244180 0.219277 -0.285907
N57   N     N_R   0.807675 0.377314 0.249917 0.272130
O49   O     O_R   0.873035 0.411381 0.267286 -0.235497
O50   O     O_R   0.752831 0.416968 0.216372 -0.278238
N58   N     N_R   0.269562 0.576947 0.846626 0.304782
O51   O     O_R   0.221279 0.561539 0.902226 -0.188840
O52   O     O_R   0.324724 0.527684 0.830312 -0.267084
N59   N     N_R   0.615307 0.628325 0.131373 0.303902
O53   O     O_R   0.614869 0.623628 0.056670 -0.182903
O54   O     O_R   0.568366 0.584652 0.171202 -0.276022
N60   N     N_R   0.372184 0.161654 0.721236 0.274650
O55   O     O_R   0.386794 0.090963 0.698381 -0.223338
O56   O     O_R   0.427663 0.203015 0.751883 -0.292094
N61   N     N_R   0.254030 0.642790 0.215457 0.302038
O57   O     O_R   0.215428 0.629388 0.152377 -0.203435
O58   O     O_R   0.319141 0.605782 0.226780 -0.301595
N62   N     N_R   0.623809 0.380081 0.868568 0.302836
O59   O     O_R   0.616983 0.378276 0.943078 -0.179339
O60   O     O_R   0.580369 0.427266 0.828836 -0.289461
N63   N     N_R   0.413933 0.330995 0.131673 0.305676
O61   O     O_R   0.430246 0.308100 0.062135 -0.173541
O62   O     O_R   0.460827 0.378762 0.166901 -0.261831
N64   N     N_R   0.637810 0.761774 0.783511 0.286860
O63   O     O_R   0.615485 0.815281 0.831805 -0.210233
O64   O     O_R   0.611723 0.691127 0.792026 -0.278525
N65   N     N_R   0.373215 0.153748 0.157743 0.272227
O65   O     O_R   0.411994 0.112348 0.207193 -0.221500
O66   O     O_R   0.387478 0.145200 0.084708 -0.250496
N66   N     N_R   0.710562 0.925635 0.711009 0.270507
O67   O     O_R   0.636963 0.934261 0.726527 -0.237567
O68   O     O_R   0.751014 0.985429 0.688253 -0.261662
N67   N     N_R   0.082345 0.699895 0.272323 0.266006
O69   O     O_R   0.081605 0.629156 0.245375 -0.234373
O70   O     O_R   0.018141 0.730242 0.298564 -0.272841
N68   N     N_R   0.810551 0.383637 0.883400 0.293866
O71   O     O_R   0.773774 0.435055 0.924740 -0.194336
O72   O     O_R   0.886053 0.387336 0.878893 -0.270187
N69   N     N_R   0.615877 0.815561 0.122306 0.288716
O73   O     O_R   0.562617 0.781176 0.081238 -0.198559
O74   O     O_R   0.613730 0.890917 0.129731 -0.277511
N70   N     N_R   0.219404 0.073880 0.648430 0.308026
O75   O     O_R   0.264151 0.057402 0.590234 -0.190278
O76   O     O_R   0.166667 0.024091 0.670066 -0.269574
N71   N     N_R   0.931957 0.257376 0.329549 0.295047
O77   O     O_R   0.954468 0.248226 0.400384 -0.199348
O78   O     O_R   0.979354 0.288993 0.280384 -0.284323
N72   N     N_R   0.121570 0.666596 0.765196 0.274601
O79   O     O_R   0.104512 0.596008 0.786411 -0.223144
O80   O     O_R   0.068126 0.709752 0.733763 -0.286874
N73   N     N_R   0.279655 0.874239 0.715070 0.286056
O81   O     O_R   0.309759 0.932387 0.752836 -0.311367
O82   O     O_R   0.254896 0.885171 0.645218 -0.195418
N74   N     N_R   0.745199 0.067829 0.327745 0.294322
O83   O     O_R   0.689073 0.054189 0.376172 -0.216772
O84   O     O_R   0.792504 0.011740 0.309116 -0.278295
N75   N     N_R   0.069594 0.281695 0.705655 0.270575
O85   O     O_R   0.050262 0.347736 0.737076 -0.233497
O86   O     O_R   0.016334 0.239187 0.672770 -0.249786
N76   N     N_R   0.830706 0.817559 0.283515 0.301541
O87   O     O_R   0.836127 0.809253 0.357558 -0.161680
O88   O     O_R   0.874007 0.869570 0.250095 -0.335581
N77   N     N_R   0.822153 0.174076 0.715394 0.300704
O89   O     O_R   0.816573 0.171966 0.640862 -0.157690
O90   O     O_R   0.874084 0.130646 0.748735 -0.345249
N78   N     N_R   0.187727 0.922377 0.367794 0.304227
O91   O     O_R   0.215473 0.936598 0.436038 -0.180450
O92   O     O_R   0.143649 0.973835 0.334422 -0.264852
N79   N     N_R   0.926294 0.792569 0.638998 0.306291
O93   O     O_R   0.940863 0.754876 0.575615 -0.184621
O94   O     O_R   0.977327 0.841735 0.665690 -0.267071
N80   N     N_R   0.148313 0.225209 0.284557 0.299496
O95   O     O_R   0.135572 0.254575 0.352448 -0.179044
O96   O     O_R   0.115371 0.159332 0.266730 -0.316952

loop_
_geom_bond_atom_site_label_1
_geom_bond_atom_site_label_2
_geom_bond_distance
_ccdc_geom_bond_type
N36   O8    1.299219 A    
C72   C112  1.528313 S    
C5    H5    1.077806 S    
C100  N36   1.461607 S    
C47   C89   1.540192 S    
C107  N43   1.458945 S    
C4    H4    1.075043 S    
C48   C112  1.556616 S    
C34   C80   1.537837 S    
C35   C77   1.540753 S    
C73   C112  1.525175 S    
C71   N55   1.451586 S    
C74   C111  1.540483 S    
N66   O67   1.299740 A    
C33   C52   1.441123 S    
C32   C61   1.380057 A    
N21   N32   1.391407 A    
N23   N30   1.392121 A    
N17   Ni5   1.878063 S    
C37   C56   1.440436 S    
C82   C98   1.542307 S    
C104  N40   1.462272 S    
N37   O10   1.299861 A    
N56   O48   1.300575 A    
C82   N66   1.458494 S    
C86   C102  1.546014 S    
N63   O61   1.300270 A    
N62   O59   1.300498 A    
N52   O40   1.300717 A    
N67   O70   1.300783 A    
N80   O95   1.300308 A    
C38   C69   1.544683 S    
C48   C57   1.446304 S    
C2    H2    1.081446 S    
N53   O41   1.299338 A    
N1    Ni1   1.878063 S    
C20   C60   1.374459 A    
N13   Ni1   1.878116 S    
C65   N49   1.458904 S    
C21   C61   1.376849 A    
C3    C51   1.361015 A    
N72   O80   1.299989 A    
C109  N45   1.465195 S    
N79   O93   1.300265 A    
N26   Ni5   1.878133 S    
N55   O45   1.299876 A    
C45   C91   1.542413 S    
C78   N62   1.458428 S    
C46   C92   1.552976 S    
N40   O15   1.299356 A    
C36   C78   1.539426 S    
N76   O87   1.298205 A    
C67   N51   1.460629 S    
N9    Ni2   1.878134 S    
C16   N16   1.324468 A    
C47   C88   1.542751 S    
C31   H31   1.080066 S    
N39   O14   1.300126 A    
C47   C58   1.431303 S    
N47   O29   1.299737 A    
C42   C81   1.545658 S    
C106  N42   1.458874 S    
C92   C101  1.529512 S    
N3    N10   1.392121 A    
N24   Ni7   1.880126 S    
N48   O32   1.299152 A    
C46   C85   1.546955 S    
N4    Ni4   1.875855 S    
N70   O75   1.300375 A    
C70   C110  1.536129 S    
N61   O58   1.300473 A    
C18   C58   1.363469 A    
N11   Ni3   1.875868 S    
N18   Ni6   1.878062 S    
C75   N59   1.458386 S    
N59   O54   1.300304 A    
C44   C94   1.543104 S    
C43   C107  1.543913 S    
N6    N15   1.391407 A    
C25   N25   1.333874 A    
C41   C105  1.553280 S    
C23   H23   1.075051 S    
C26   N26   1.330646 A    
C9    H9    1.079542 S    
C77   C83   1.532627 S    
C44   C61   1.446607 S    
C30   N30   1.329757 A    
C13   H13   1.079351 S    
C44   C83   1.547208 S    
C18   N18   1.321859 A    
N22   Ni5   1.878217 S    
C69   C109  1.529889 S    
C79   C81   1.542762 S    
C67   C107  1.536003 S    
N22   N31   1.391407 A    
C77   N61   1.460506 S    
C96   N80   1.462705 S    
N42   O19   1.299932 A    
N38   O12   1.300192 A    
C7    H7    1.080234 S    
C108  N44   1.463780 S    
C8    H8    1.077726 S    
C71   C89   1.534608 S    
C17   C57   1.379648 A    
C78   C107  1.542142 S    
C43   C93   1.553937 S    
C36   C100  1.544926 S    
C37   C101  1.545511 S    
C22   H22   1.075217 S    
N12   Ni4   1.875867 S    
N8    Ni3   1.880126 S    
N45   O25   1.299657 A    
C43   C62   1.433858 S    
C73   C87   1.538097 S    
N33   O2    1.300710 A    
C74   C88   1.536150 S    
N19   Ni7   1.875854 S    
N50   O35   1.299457 A    
C4    C52   1.370945 A    
C66   C96   1.528956 S    
N57   O49   1.299571 A    
C67   C93   1.529192 S    
C68   C108  1.527925 S    
N17   N28   1.391407 A    
C8    C56   1.374596 A    
C15   N15   1.332908 A    
C12   C49   1.381444 A    
C76   C109  1.530966 S    
N73   O82   1.300076 A    
C1    N1    1.327385 A    
C6    H6    1.077787 S    
C27   N27   1.326709 A    
C16   C53   1.377453 A    
C24   C64   1.384047 A    
N21   Ni6   1.878215 S    
C87   N71   1.459358 S    
C31   C62   1.371417 A    
C19   N19   1.322314 A    
N74   O84   1.299567 A    
C35   C54   1.441149 S    
C28   H28   1.080080 S    
N6    Ni1   1.878217 S    
C29   H29   1.078534 S    
C101  N37   1.461443 S    
N4    N9    1.392121 A    
C40   C74   1.539306 S    
C32   H32   1.078647 S    
C17   H17   1.075490 S    
C4    N4    1.320376 A    
C89   C104  1.530644 S    
C90   C103  1.543589 S    
C72   N56   1.459527 S    
C84   C100  1.539917 S    
N79   O94   1.300320 A    
N78   O92   1.300261 A    
N69   O73   1.300007 A    
C36   C67   1.542760 S    
N71   O78   1.298878 A    
C37   C70   1.543702 S    
N44   O24   1.300135 A    
C3    H3    1.079195 S    
C47   C111  1.537328 S    
N41   O17   1.300677 A    
C40   C71   1.542028 S    
C84   N68   1.462725 S    
N51   O38   1.299959 A    
N60   O56   1.300357 A    
N47   O30   1.300119 A    
C30   C63   1.373207 A    
N75   O86   1.300368 A    
N27   Ni7   1.875868 S    
C11   C50   1.371738 A    
C39   C73   1.539670 S    
C45   C109  1.553214 S    
C37   C75   1.539881 S    
C91   N75   1.458243 S    
N58   O51   1.300220 A    
C2    N2    1.326245 A    
N65   O66   1.300511 A    
C70   N54   1.460365 S    
N29   Ni5   1.878116 S    
C20   N20   1.326655 A    
N28   Ni8   1.875867 S    
C11   N11   1.326518 A    
N30   Ni6   1.878117 S    
N7    Ni4   1.880127 S    
N37   O9    1.299268 A    
C1    C49   1.376794 A    
C34   C98   1.542449 S    
N62   O60   1.300285 A    
C5    C53   1.374838 A    
C27   C58   1.373683 A    
N64   O63   1.300189 A    
C12   H12   1.079365 S    
N80   O96   1.300193 A    
C7    C55   1.371010 A    
C25   C60   1.382707 A    
C88   N72   1.458571 S    
C42   C106  1.539522 S    
C26   C59   1.373582 A    
C75   C85   1.545970 S    
C10   H10   1.081672 S    
N32   Ni7   1.880143 S    
C66   N50   1.457846 S    
N51   O37   1.300391 A    
N39   O13   1.300303 A    
N46   O27   1.299688 A    
N59   O53   1.300466 A    
C14   H14   1.079561 S    
N1    N12   1.391407 A    
C30   H30   1.080632 S    
C70   C92   1.529284 S    
N40   O16   1.300622 A    
N76   O88   1.298886 A    
N68   O71   1.300009 A    
C85   N69   1.462734 S    
C80   C105  1.522321 S    
N77   O90   1.299033 A    
C5    N5    1.323921 A    
N72   O79   1.299895 A    
C74   N58   1.455622 S    
N54   O44   1.300463 A    
C23   N23   1.322625 A    
N70   O76   1.300164 A    
N36   O7    1.300278 A    
N61   O57   1.300721 A    
N14   Ni2   1.878117 S    
C41   C60   1.445388 S    
C92   N76   1.466941 S    
C2    C50   1.367361 A    
C68   C94   1.542881 S    
C42   C59   1.433004 S    
C21   N21   1.323809 A    
C8    N8    1.323973 A    
C34   C65   1.543269 S    
C89   N73   1.460235 S    
C6    C54   1.361480 A    
C40   C104  1.555412 S    
C10   C51   1.378292 A    
N10   Ni1   1.878133 S    
C73   N57   1.458377 S    
C77   C108  1.528430 S    
C14   C55   1.369591 A    
N35   O5    1.299941 A    
C71   C111  1.539230 S    
N71   O77   1.299986 A    
N35   O6    1.300072 A    
N56   O47   1.299946 A    
N67   O69   1.299853 A    
N16   Ni3   1.880143 S    
N20   Ni8   1.875855 S    
C39   C103  1.540652 S    
N52   O39   1.299776 A    
C33   C79   1.541877 S    
C99   N35   1.456495 S    
C26   H26   1.080641 S    
C80   N64   1.452439 S    
C76   N60   1.459308 S    
C75   C110  1.542520 S    
N42   O20   1.299868 A    
N53   O42   1.299689 A    
C86   N70   1.455988 S    
C111  N47   1.455904 S    
C65   C95   1.540050 S    
N54   O43   1.299856 A    
C18   H18   1.080318 S    
C6    N6    1.321948 A    
N2    Ni2   1.878062 S    
C110  N46   1.458249 S    
N31   Ni8   1.880141 S    
C102  N38   1.457672 S    
C23   C63   1.362582 A    
N45   O26   1.300654 A    
C103  N39   1.456780 S    
C29   N29   1.325426 A    
N33   O1    1.300078 A    
C31   N31   1.328909 A    
N2    N11   1.391407 A    
N66   O68   1.300585 A    
N50   O36   1.298823 A    
C17   N17   1.327710 A    
C22   N22   1.323808 A    
N48   O31   1.300510 A    
C112  N48   1.461849 S    
N18   N27   1.391407 A    
C29   C64   1.373606 A    
C46   C110  1.542465 S    
C20   H20   1.078040 S    
N73   O81   1.299676 A    
C81   C97   1.533582 S    
C39   C50   1.438789 S    
C85   C101  1.539619 S    
C93   N77   1.466770 S    
N75   O85   1.299736 A    
C48   C87   1.546272 S    
C90   N74   1.458103 S    
C15   H15   1.081257 S    
C24   H24   1.078870 S    
N43   O21   1.300023 A    
C39   C72   1.539147 S    
C16   H16   1.078041 S    
C1    H1    1.078335 S    
C22   C62   1.363964 A    
N34   O4    1.298974 A    
N63   O62   1.300308 A    
N43   O22   1.299031 A    
C7    N7    1.327848 A    
N55   O46   1.298141 A    
C35   C99   1.543564 S    
C9    C52   1.383904 A    
C33   C97   1.550010 S    
C44   C108  1.552706 S    
C28   C57   1.384190 A    
C105  N41   1.462488 S    
N3    Ni3   1.875854 S    
C38   C76   1.547101 S    
C13   C56   1.379228 A    
N38   O11   1.299941 A    
C15   C54   1.375055 A    
C11   H11   1.081026 S    
C68   N52   1.459834 S    
C43   C84   1.546825 S    
C93   C100  1.529379 S    
C41   C82   1.545249 S    
C94   C99   1.548722 S    
C87   C103  1.546642 S    
N15   Ni4   1.880141 S    
C45   C64   1.441858 S    
C88   C104  1.531890 S    
C46   C63   1.433760 S    
C9    N9    1.331495 A    
C45   C86   1.538948 S    
C95   C98   1.547166 S    
C19   C59   1.358670 A    
C34   C51   1.443876 S    
C13   N13   1.325091 A    
N5    Ni2   1.878215 S    
C81   N65   1.459404 S    
C36   C53   1.439217 S    
C25   H25   1.077992 S    
N58   O52   1.300068 A    
C38   C55   1.442621 S    
C79   C106  1.545783 S    
C40   C49   1.440412 S    
N65   O65   1.299582 A    
C41   C95   1.544480 S    
N34   O3    1.299942 A    
N57   O50   1.300262 A    
C42   C96   1.545381 S    
N8    N13   1.392121 A    
C83   C99   1.537820 S    
C24   N24   1.333159 A    
C69   N53   1.460672 S    
C28   N28   1.330301 A    
C76   C86   1.539486 S    
N49   O34   1.300620 A    
C32   N32   1.331474 A    
C80   C82   1.533885 S    
C69   C91   1.535894 S    
C94   N78   1.457877 S    
N64   O64   1.300565 A    
C35   C68   1.546479 S    
N20   N25   1.392121 A    
C98   N34   1.454289 S    
C66   C106  1.538871 S    
C33   C66   1.546005 S    
N74   O83   1.300362 A    
N49   O33   1.299799 A    
N19   N26   1.392121 A    
N24   N29   1.392121 A    
C96   C97   1.526049 S    
C72   C90   1.537439 S    
C3    N3    1.322264 A    
N46   O28   1.298933 A    
C38   C102  1.542996 S    
C48   C90   1.546854 S    
N78   O91   1.300441 A    
C12   N12   1.330922 A    
C97   N33   1.462844 S    
N23   Ni8   1.880127 S    
N69   O74   1.299447 A    
C27   H27   1.080114 S    
C21   H21   1.076236 S    
C10   N10   1.334524 A    
N44   O23   1.298967 A    
C79   N63   1.458306 S    
C83   N67   1.459231 S    
N41   O18   1.299738 A    
N68   O72   1.299375 A    
C14   N14   1.325140 A    
N77   O89   1.299114 A    
N60   O55   1.299795 A    
C19   H19   1.078728 S    
C65   C105  1.527681 S    
N25   Ni6   1.878134 S    
N5    N16   1.391407 A    
C78   C84   1.546226 S    
C91   C102  1.540450 S    
C95   N79   1.457090 S    
N7    N14   1.392121 A    
