data_mof_unit_11041.cif
_audit_creation_date              2012-12-11T15:48:40-0500
_audit_creation_method            fapswitch 2.2
_symmetry_space_group_name_H-M    P1
_symmetry_Int_Tables_number       1
_space_group_crystal_system       triclinic
_cell_length_a                    10.979194
_cell_length_b                    10.991893
_cell_length_c                    18.823189
_cell_angle_alpha                 90.488273
_cell_angle_beta                  90.066903
_cell_angle_gamma                 60.105071
_cell_volume                      1969.27840203

loop_
_atom_site_label
_atom_site_type_symbol
_atom_type_description
_atom_site_fract_x
_atom_site_fract_y
_atom_site_fract_z
_atom_type_partial_charge
C1    C     C_R   0.236961 0.646868 0.609765 0.538020
C2    C     C_3   0.683678 0.542228 0.800205 -0.267219
C3    C     C_3   0.695894 0.674276 0.812976 0.029679
C4    C     C_3   0.667125 0.646263 0.677355 0.068657
C5    C     C_3   0.801344 0.654985 0.689724 -0.252282
C6    C     C_3   0.680018 0.519093 0.719885 -0.246541
C7    C     C_R   0.680114 0.159404 0.824560 0.017784
C8    C     C_R   0.777861 0.179840 0.786651 -0.003967
C9    C     C_R   0.770068 0.190834 0.712665 0.016263
C10   C     C_R   0.566814 0.163975 0.713687 -0.189126
C11   C     C_R   0.568494 0.162422 0.786296 -0.167423
C12   C     C_R   0.652049 0.620034 0.601934 0.563249
C13   C     C_3   0.933198 0.094238 0.785941 -0.272626
C14   C     C_3   0.925827 0.104436 0.705541 -0.284468
C15   C     C_R   0.667355 0.176900 0.674935 0.012109
C16   C     C_R   0.175253 0.670273 0.833700 0.015112
C17   C     C_R   0.145079 0.581930 0.792679 0.022142
C18   C     C_R   0.151393 0.580801 0.718904 -0.003829
C19   C     C_R   0.201314 0.769447 0.724424 -0.178024
C20   C     C_R   0.205143 0.763710 0.798179 -0.182003
C21   C     C_3   0.214373 0.426136 0.795195 -0.283330
C22   C     C_3   0.218057 0.425918 0.714668 -0.280301
C23   C     C_R   0.628672 0.228721 0.602789 0.539821
C24   C     C_R   0.185809 0.670441 0.683299 0.013518
C25   C     C_R   0.656193 0.658071 0.166171 0.006909
C26   C     C_R   0.760204 0.543298 0.204098 -0.002645
C27   C     C_R   0.754197 0.536734 0.276522 0.064724
C28   C     C_R   0.526744 0.744846 0.277097 -0.163390
C29   C     C_R   0.532517 0.752218 0.202530 -0.173401
C30   C     C_3   0.916715 0.483226 0.206343 -0.237415
C31   C     C_3   0.908473 0.477284 0.286537 0.006041
C32   C     C_R   0.644051 0.642544 0.314982 -0.004168
C33   C     C_R   0.634448 0.183980 0.169953 0.022188
C34   C     C_R   0.222330 0.648170 0.401609 0.553966
C35   C     C_R   0.528327 0.181460 0.209956 0.019758
C36   C     C_R   0.527296 0.192421 0.282509 0.024441
C37   C     C_R   0.720572 0.236348 0.277120 -0.165017
C38   C     C_R   0.721571 0.226406 0.203074 -0.164504
C39   C     C_3   0.486672 0.071078 0.213657 -0.260539
C40   C     C_3   0.485143 0.084563 0.293554 -0.282825
C41   C     C_R   0.630544 0.207247 0.317569 0.016871
C42   C     C_R   0.121548 0.689183 0.187559 0.020315
C43   C     C_R   0.064803 0.808140 0.231666 0.042560
C44   C     C_R   0.079422 0.797614 0.303833 0.006119
C45   C     C_R   0.639074 0.619533 0.390619 0.545133
C46   C     C_R   0.196043 0.544728 0.291212 -0.162465
C47   C     C_R   0.179480 0.556628 0.217878 -0.183840
C48   C     C_3   0.083359 0.933751 0.229220 -0.263884
C49   C     C_3   0.094428 0.925780 0.309220 -0.277940
C50   C     C_R   0.155555 0.665517 0.334027 0.013566
C51   C     C_R   0.701708 0.101220 0.895954 0.540699
C52   C     C_R   0.722394 0.687800 0.888629 0.545886
C53   C     C_R   0.117957 0.706103 0.905620 0.538424
C54   C     C_R   0.672660 0.110885 0.102485 0.544849
C55   C     C_R   0.695569 0.688640 0.097070 0.541464
C56   C     C_R   0.613197 0.236457 0.392843 0.548107
C57   C     C_R   0.090182 0.711666 0.113361 0.544458
C58   C     C_3   0.560404 0.804840 0.785094 -0.209920
C59   C     C_3   0.536021 0.780815 0.706689 0.027290
C60   C     C_3   0.822519 0.661676 0.769954 -0.225877
Cr1   Cr    Cr6+3 0.392960 0.397920 0.502240 0.990994
Cr2   Cr    Cr6+3 0.398340 0.708480 0.501250 1.006580
Cr3   Cr    Cr6+3 0.708670 0.393570 0.496460 1.005094
Cr4   Cr    Cr6+3 0.937650 0.938540 0.007610 1.005030
Cr5   Cr    Cr6+3 0.625330 0.937370 0.994520 0.999933
Cr6   Cr    Cr6+3 0.937940 0.625230 0.001190 1.003246
H1    H     H_    0.571535 0.899600 0.790293 0.152011
H2    H     H_    0.779392 0.423400 0.704413 0.151287
H3    H     H_    0.917578 0.563145 0.785406 0.148523
H4    H     H_    0.894304 0.561121 0.666687 0.126952
H5    H     H_    0.481146 0.160820 0.688071 0.138823
H6    H     H_    0.486861 0.149608 0.811267 0.140732
H7    H     H_    0.967393 0.987926 0.806057 0.174802
H8    H     H_    0.983593 0.149965 0.810951 0.126122
H9    H     H_    0.972839 0.165594 0.683878 0.126087
H10   H     H_    0.958561 0.002969 0.677925 0.143895
H11   H     H_    0.217493 0.848278 0.699891 0.127986
H12   H     H_    0.467677 0.823660 0.817408 0.099710
H13   H     H_    0.221103 0.840100 0.827262 0.129478
H14   H     H_    0.144828 0.389010 0.817114 0.132648
H15   H     H_    0.318683 0.380960 0.820758 0.142073
H16   H     H_    0.324006 0.381066 0.691763 0.178459
H17   H     H_    0.148821 0.391089 0.689521 0.118143
H18   H     H_    0.433894 0.821982 0.305031 0.130761
H19   H     H_    0.446612 0.837787 0.174705 0.119873
H20   H     H_    0.946220 0.561151 0.189452 0.157751
H21   H     H_    0.974130 0.380112 0.178464 0.126491
H22   H     H_    0.447355 0.759938 0.704990 0.154170
H23   H     H_    0.934384 0.550103 0.315676 0.137104
H24   H     H_    0.792299 0.262405 0.302762 0.174575
H25   H     H_    0.798562 0.238644 0.172806 0.121675
H26   H     H_    0.572105 0.968170 0.194193 0.168621
H27   H     H_    0.381057 0.106520 0.190591 0.130557
H28   H     H_    0.378429 0.129321 0.316864 0.132714
H29   H     H_    0.567997 0.988968 0.320159 0.139293
H30   H     H_    0.254094 0.440347 0.312929 0.150235
H31   H     H_    0.216262 0.463231 0.185105 0.128900
H32   H     H_    0.988773 0.028012 0.209967 0.147529
H33   H     H_    0.182932 0.911398 0.202633 0.135611
H34   H     H_    0.198246 0.906326 0.327924 0.156974
H35   H     H_    0.003130 0.014192 0.336548 0.139978
H36   H     H_    0.839529 0.751432 0.782218 0.125185
H37   H     H_    0.794803 0.747930 0.663226 0.116718
H38   H     H_    0.774372 0.448210 0.823882 0.139910
H39   H     H_    0.586223 0.555506 0.825618 0.120789
H40   H     H_    0.591166 0.500784 0.707411 0.121788
O1    O     O_R   0.507380 0.255700 0.581440 -0.537140
O2    O     O_R   0.524480 0.695810 0.424040 -0.509620
O3    O     O_R   0.736390 0.504290 0.414790 -0.502816
O4    O     O_R   0.691300 0.277290 0.422170 -0.505660
O5    O     O_3   0.499990 0.499990 0.499980 -0.253974
O6    O     O_R   0.089400 0.825690 0.930570 -0.530925
O7    O     O_R   0.818460 0.054440 0.929850 -0.502412
O8    O     O_R   0.606060 0.077150 0.915510 -0.536537
O9    O     O_R   0.646550 0.806680 0.917570 -0.510758
O10   O     O_R   0.837170 0.593410 0.915250 -0.526641
O11   O     O_R   0.065200 0.635530 0.931570 -0.499246
O12   O     O_R   0.280320 0.527350 0.578930 -0.506482
O13   O     O_R   0.068260 0.828890 0.091840 -0.519677
O14   O     O_R   0.798870 0.057410 0.079340 -0.507474
O15   O     O_R   0.584930 0.080350 0.076780 -0.522887
O16   O     O_R   0.626960 0.809650 0.067060 -0.507811
O17   O     O_R   0.816040 0.596610 0.076510 -0.524605
O18   O     O_R   0.045610 0.638500 0.081060 -0.516010
O19   O     O_3   0.833640 0.833710 0.001100 -0.249200
O20   O     O_R   0.260510 0.739590 0.584590 -0.538142
O21   O     O_R   0.532300 0.695080 0.573820 -0.475684
O22   O     O_R   0.744840 0.503500 0.576370 -0.544044
O23   O     O_R   0.699120 0.276560 0.571960 -0.501261
O24   O     O_R   0.498940 0.256500 0.419860 -0.521761
O25   O     O_R   0.272500 0.528080 0.429150 -0.516607
O26   O     O_R   0.252060 0.740380 0.423010 -0.525439
N1    N     N_2   0.975389 0.335213 0.314216 -0.509499
H41   H     H_    0.014149 0.254043 0.277579 0.236819
C61   C     C_3   0.064761 0.308054 0.375379 -0.283838
H42   H     H_    0.161093 0.309811 0.359987 0.125484
H43   H     H_    0.095012 0.203041 0.396944 0.124928
H44   H     H_    0.009052 0.387835 0.417702 0.176263
N2    N     N_2   0.502659 0.902008 0.662987 -0.508527
H45   H     H_    0.575704 0.934391 0.662599 0.253027
C62   C     C_3   0.356729 0.011121 0.659729 -0.318484
H46   H     H_    0.345485 0.095745 0.623883 0.141854
H47   H     H_    0.317241 0.055710 0.713533 0.121543
H48   H     H_    0.292599 0.968747 0.636576 0.166277

loop_
_geom_bond_atom_site_label_1
_geom_bond_atom_site_label_2
_ccdc_geom_bond_type
C44   C49   S    
C61   H44   S    
C5    H37   S    
C8    C13   S    
C54   O14   A    
C28   H18   S    
C32   C45   S    
C35   C36   A    
C9    C14   S    
C61   H42   S    
C12   O21   A    
C7    C11   A    
C26   C27   A    
C51   O7    A    
Cr4   O13   S    
Cr6   O10   S    
C37   H24   S    
C18   C24   A    
C22   H16   S    
C28   C29   A    
C10   C15   A    
C62   H47   S    
C49   H35   S    
Cr2   O21   S    
C3    C52   S    
C53   O11   A    
Cr4   O6    S    
Cr2   O2    S    
C23   O23   A    
Cr5   O8    S    
C19   H11   S    
C59   H22   S    
C39   H27   S    
C16   C53   S    
C2    H38   S    
Cr2   O5    S    
C19   C20   A    
C8    C9    A    
C31   H23   S    
Cr6   O11   S    
Cr5   O15   S    
C30   H20   S    
C43   C48   S    
C29   H19   S    
Cr3   O22   S    
C20   H13   S    
C45   O2    A    
C31   N1    S    
C57   O13   A    
C3    C60   S    
C15   C23   S    
C27   C32   A    
C55   O16   A    
C34   O26   A    
C21   C22   S    
C37   C41   A    
Cr5   O9    S    
C36   C41   A    
C2    C6    S    
C60   H36   S    
C42   C57   S    
C56   O4    A    
C42   C47   A    
C52   O10   A    
C25   C29   A    
C55   O17   A    
C34   C50   S    
C51   O8    A    
C27   C31   S    
Cr2   O26   S    
C28   C32   A    
C1    O20   A    
C4    C6    S    
C59   N2    S    
C62   H48   S    
C40   H28   S    
C39   C40   S    
Cr2   O20   S    
C58   H12   S    
C11   H6    S    
C16   C17   A    
C25   C26   A    
C38   H25   S    
C17   C21   S    
Cr5   O19   S    
Cr3   O3    S    
C35   C39   S    
C43   C44   A    
C41   C56   S    
C37   C38   A    
C4    C59   S    
C36   C40   S    
C16   C20   A    
C23   O1    A    
C17   C18   A    
C6    H40   S    
Cr5   O16   S    
Cr1   O24   S    
C53   O6    A    
C48   C49   S    
C54   O15   A    
C21   H15   S    
C34   O25   A    
C26   C30   S    
N1    H41   S    
Cr6   O18   S    
C4    C12   S    
C42   C43   A    
C40   H29   S    
Cr1   O5    S    
C39   H26   S    
C52   O9    A    
C44   C50   A    
C33   C54   S    
C61   H43   S    
C48   H33   S    
C46   C47   A    
Cr4   O7    S    
C5    C60   S    
Cr1   O12   S    
C18   C22   S    
C25   C55   S    
C13   H7    S    
C4    C5    S    
C5    H4    S    
Cr4   O14   S    
N2    H45   S    
C12   O22   A    
C48   H32   S    
C14   H9    S    
C46   C50   A    
C2    H39   S    
C33   C38   A    
C47   H31   S    
Cr6   O19   S    
C22   H17   S    
Cr3   O4    S    
C19   C24   A    
C58   C59   S    
C7    C51   S    
C62   H46   S    
C10   H5    S    
C57   O18   A    
N2    C62   S    
C30   C31   S    
C60   H3    S    
C21   H14   S    
C6    H2    S    
C33   C35   A    
C2    C3    S    
C45   O3    A    
C1    O12   A    
Cr3   O23   S    
Cr3   O5    S    
Cr1   O1    S    
C7    C8    A    
C10   C11   A    
Cr1   O25   S    
C3    C58   S    
C58   H1    S    
C46   H30   S    
C13   H8    S    
C1    C24   S    
Cr4   O19   S    
N1    C61   S    
Cr6   O17   S    
C30   H21   S    
C13   C14   S    
C56   O24   A    
C9    C15   A    
C14   H10   S    
C49   H34   S    
