data_mof_unit_62862.cif
_audit_creation_date              2012-10-26T18:17:51-0400
_audit_creation_method            fapswitch 2.2
_symmetry_space_group_name_H-M    P1
_symmetry_Int_Tables_number       1
_space_group_crystal_system       triclinic
_cell_length_a                    50.494203
_cell_length_b                    39.042345
_cell_length_c                    32.017649
_cell_angle_alpha                 90.087613
_cell_angle_beta                  129.370755
_cell_angle_gamma                 89.940582
_cell_volume                      48795.3140937

loop_
_atom_site_label
_atom_site_type_symbol
_atom_type_description
_atom_site_fract_x
_atom_site_fract_y
_atom_site_fract_z
_atom_type_partial_charge
Br1   Br    Br    0.999360 0.924283 0.294898 -0.541546
Br2   Br    Br    0.010375 0.925140 0.714498 -0.545582
Br3   Br    Br    0.490850 0.424838 0.286382 -0.541540
Br4   Br    Br    0.507406 0.424791 0.711525 -0.544005
Br5   Br    Br    0.430202 0.098530 0.962315 -0.509144
Br6   Br    Br    0.569777 0.098463 0.037666 -0.514496
Br7   Br    Br    0.929978 0.598517 0.961244 -0.510240
Br8   Br    Br    0.070016 0.598424 0.038779 -0.511350
C1    C     C_R   0.066199 0.000015 0.566138 0.543725
C2    C     C_3   0.036845 0.005135 0.762744 -0.202696
C3    C     C_R   0.342127 0.531185 0.343844 -0.119354
C4    C     C_R   0.175835 0.000244 0.675700 0.024484
C5    C     C_R   0.823886 0.000215 0.323841 0.030044
C6    C     C_R   0.675836 0.500245 0.675701 0.024460
C7    C     C_R   0.323886 0.500230 0.323958 0.029881
C8    C     C_R   0.999998 0.066131 0.999992 0.546690
C9    C     C_R   0.499998 0.566131 0.999992 0.546706
C10   C     C_R   0.000014 0.999910 0.080022 0.556790
C11   C     C_R   0.999986 0.999910 0.919978 0.556781
C12   C     C_R   0.500014 0.499910 0.080022 0.556862
C13   C     C_3   0.463092 0.504413 0.237219 -0.202413
C14   C     C_R   0.499986 0.499911 0.919978 0.556869
C15   C     C_R   0.000001 0.933643 0.000002 0.548412
C16   C     C_R   0.500001 0.433642 0.000002 0.548537
C17   C     C_R   0.499996 0.933606 0.999969 0.540021
C18   C     C_R   0.999996 0.433606 0.999969 0.540038
C19   C     C_R   0.433731 0.000070 0.933730 0.567343
C20   C     C_R   0.566303 0.000087 0.066309 0.569712
C21   C     C_R   0.933731 0.500069 0.933730 0.567677
C22   C     C_R   0.066306 0.500086 0.066309 0.570011
C23   C     C_R   0.500001 0.066056 0.000027 0.626194
C24   C     C_3   0.537014 0.503679 0.762905 -0.202744
C25   C     C_R   0.000000 0.566055 0.000027 0.626552
C26   C     C_R   0.501268 0.877638 0.963356 -0.127952
C27   C     C_R   0.498688 0.877676 0.036394 -0.129268
C28   C     C_R   0.001142 0.377637 0.963224 -0.128208
C29   C     C_R   0.998814 0.377675 0.036526 -0.129067
C30   C     C_3   0.018666 0.966953 0.292650 0.060690
C31   C     C_3   0.985743 0.964971 0.711599 0.060684
C32   C     C_3   0.514835 0.465068 0.288816 0.060776
C33   C     C_3   0.484367 0.465561 0.710225 0.060692
C34   C     C_R   0.501298 0.841914 0.963359 -0.119641
C35   C     C_1   0.000052 0.999757 0.162627 -0.072005
C36   C     C_R   0.498630 0.841956 0.036286 -0.120084
C37   C     C_R   0.001169 0.341913 0.963222 -0.119773
C38   C     C_R   0.998758 0.341954 0.036421 -0.119974
C39   C     C_R   0.499954 0.823757 0.999794 0.030565
C40   C     C_R   0.999954 0.323755 0.999793 0.030596
C41   C     C_R   0.499985 0.895857 0.999903 0.015289
C42   C     C_R   0.999985 0.395856 0.999903 0.015300
C43   C     C_R   0.522029 0.767709 0.995266 -0.113169
C44   C     C_R   0.477841 0.767779 0.004219 -0.113109
C45   C     C_R   0.021929 0.267706 0.995043 -0.113107
C46   C     C_1   0.999969 0.999813 0.837394 -0.072003
C47   C     C_R   0.977940 0.267776 0.004440 -0.113135
C48   C     C_R   0.021972 0.231986 0.995140 -0.113265
C49   C     C_R   0.977909 0.232058 0.004372 -0.113318
C50   C     C_R   0.522071 0.731990 0.995360 -0.113286
C51   C     C_R   0.477812 0.732061 0.004154 -0.113309
C52   C     C_R   0.999947 0.213843 0.999772 0.029901
C53   C     C_R   0.499947 0.713845 0.999772 0.029890
C54   C     C_R   0.499937 0.785922 0.999746 0.029947
C55   C     C_R   0.999936 0.285920 0.999745 0.030007
C56   C     C_R   0.968957 0.157823 0.970084 -0.120701
C57   C     C_1   0.500039 0.499755 0.162614 -0.071916
C58   C     C_R   0.030983 0.157835 0.029612 -0.120706
C59   C     C_R   0.468954 0.657822 0.969967 -0.120648
C60   C     C_R   0.530986 0.657835 0.029731 -0.120740
C61   C     C_R   0.968960 0.122102 0.970090 -0.129045
C62   C     C_R   0.031006 0.122112 0.029734 -0.129042
C63   C     C_R   0.468958 0.622101 0.969976 -0.128998
C64   C     C_R   0.531009 0.622112 0.029848 -0.129086
C65   C     C_R   0.999989 0.103896 0.999945 0.014181
C66   C     C_R   0.499989 0.603896 0.999946 0.014186
C67   C     C_3   0.018162 0.967000 0.243527 -0.181694
C68   C     C_1   0.499965 0.499814 0.837389 -0.071933
C69   C     C_3   0.986224 0.965052 0.760698 -0.181691
C70   C     C_3   0.514347 0.465172 0.239710 -0.181728
C71   C     C_3   0.484855 0.465622 0.759330 -0.181654
C72   C     C_R   0.999963 0.176007 0.999817 0.030177
C73   C     C_R   0.499963 0.676008 0.999818 0.030200
C74   C     C_R   0.470939 0.121654 0.984798 0.120174
C75   C     C_R   0.529074 0.121625 0.015367 0.122085
C76   C     C_R   0.970897 0.621652 0.984526 0.120236
C77   C     C_R   0.029133 0.621613 0.015659 0.121564
C78   C     C_R   0.471024 0.157428 0.984625 -0.092146
C79   C     C_1   0.000018 0.999713 0.337424 -0.026618
C80   C     C_R   0.528991 0.157399 0.015587 -0.091987
C81   C     C_R   0.970982 0.657425 0.984368 -0.092157
C82   C     C_R   0.029059 0.657385 0.015860 -0.091933
C83   C     C_R   0.500008 0.175546 0.000119 -0.035642
C84   C     C_R   0.000023 0.675659 0.000123 -0.033210
C85   C     C_R   0.500010 0.103542 0.000088 0.045841
C86   C     C_R   0.000014 0.603541 0.000093 0.045936
C87   C     C_R   0.528034 0.231573 0.044342 -0.104208
C88   C     C_R   0.471972 0.231528 0.955872 -0.104400
C89   C     C_R   0.016056 0.731899 0.983759 -0.104477
C90   C     C_1   0.000040 0.999877 0.662633 -0.026511
C91   C     C_R   0.983985 0.731994 0.016453 -0.104240
C92   C     C_R   0.016188 0.767645 0.983995 -0.108833
C93   C     C_R   0.983847 0.767741 0.016186 -0.108681
C94   C     C_R   0.527976 0.267319 0.044452 -0.107678
C95   C     C_R   0.472029 0.267274 0.955732 -0.107634
C96   C     C_R   0.000016 0.785862 0.000083 0.027984
C97   C     C_R   0.500003 0.285590 0.000084 0.031092
C98   C     C_R   0.500003 0.213384 0.000113 0.031355
C99   C     C_R   0.000023 0.713655 0.000114 0.032798
C100  C     C_R   0.969733 0.841887 0.978037 -0.116152
C101  C     C_1   0.499980 0.499714 0.337386 -0.026565
C102  C     C_R   0.030288 0.841862 0.022068 -0.115932
C103  C     C_R   0.469704 0.341894 0.977833 -0.115095
C104  C     C_R   0.530304 0.341863 0.022273 -0.115226
C105  C     C_1   0.000036 0.999851 0.124912 -0.025147
C106  C     C_1   0.999970 0.999879 0.875093 -0.025114
C107  C     C_1   0.500033 0.499850 0.124909 -0.025032
C108  C     C_1   0.499969 0.499879 0.875092 -0.025029
C109  C     C_R   0.969680 0.877638 0.977744 -0.124787
C110  C     C_R   0.030333 0.877614 0.022315 -0.124622
C111  C     C_R   0.469672 0.377642 0.977593 -0.124420
C112  C     C_R   0.933764 0.000018 0.433799 0.545092
C113  C     C_1   0.500026 0.499877 0.662619 -0.026573
C114  C     C_R   0.530334 0.377613 0.022468 -0.124519
C115  C     C_R   0.000005 0.895849 0.000018 0.015544
C116  C     C_R   0.500003 0.395848 0.000019 0.015372
C117  C     C_R   0.000013 0.823703 0.000064 0.030044
C118  C     C_R   0.500004 0.323586 0.000064 0.032205
C119  C     C_3   0.000017 0.999313 0.291299 0.071840
C120  C     C_3   0.000086 0.999465 0.708802 0.071907
C121  C     C_3   0.499939 0.499318 0.291221 0.071764
C122  C     C_3   0.500058 0.499463 0.708774 0.071867
C123  C     C_3   0.019131 0.031430 0.245042 -0.227351
C124  C     C_1   0.000014 0.999911 0.375118 -0.000050
C125  C     C_3   0.976997 0.028826 0.751217 -0.227319
C126  C     C_3   0.522549 0.529084 0.248461 -0.227295
C127  C     C_3   0.478150 0.529710 0.752376 -0.227375
C128  C     C_3   0.000072 0.999572 0.208735 0.038304
C129  C     C_3   0.999982 0.999661 0.791318 0.038293
C130  C     C_3   0.500033 0.499569 0.208696 0.038241
C131  C     C_3   0.499969 0.499662 0.791304 0.038267
C132  C     C_1   0.000014 0.000047 0.624910 -0.000003
C133  C     C_1   0.500000 0.499911 0.375103 0.000034
C134  C     C_1   0.500009 0.500047 0.624905 -0.000027
C135  C     C_R   0.377879 0.985829 0.911264 -0.114988
C136  C     C_R   0.622221 0.002291 0.084465 -0.101529
C137  C     C_R   0.877878 0.485839 0.911270 -0.115243
C138  C     C_R   0.122231 0.499799 0.084383 -0.104165
C139  C     C_R   0.342121 0.985606 0.875307 -0.111991
C140  C     C_R   0.566199 0.500015 0.566138 0.543164
C141  C     C_R   0.657945 0.002465 0.120203 -0.111214
C142  C     C_R   0.842121 0.485618 0.875314 -0.112162
C143  C     C_R   0.157955 0.499895 0.120103 -0.110496
C144  C     C_R   0.323766 0.000616 0.823838 0.032999
C145  C     C_R   0.676136 0.000618 0.176156 0.030500
C146  C     C_R   0.823766 0.500617 0.823838 0.032951
C147  C     C_R   0.176147 0.500637 0.176115 0.030949
C148  C     C_R   0.342209 0.015533 0.809188 -0.108373
C149  C     C_R   0.657975 0.998744 0.195760 -0.114978
C150  C     C_R   0.842208 0.515521 0.809180 -0.108176
C151  C     C_R   0.433764 0.500019 0.433809 0.545632
C152  C     C_R   0.157989 0.501336 0.195789 -0.115143
C153  C     C_R   0.377969 0.014999 0.844712 -0.103809
C154  C     C_R   0.622253 0.998657 0.160048 -0.119837
C155  C     C_R   0.877969 0.514987 0.844704 -0.103327
C156  C     C_R   0.122264 0.501155 0.160088 -0.116884
C157  C     C_R   0.000008 0.999989 0.419975 0.554048
C158  C     C_R   0.999997 0.000034 0.580030 0.553965
C159  C     C_R   0.500008 0.499989 0.419975 0.554129
C160  C     C_R   0.499998 0.500034 0.580030 0.553893
C161  C     C_R   0.396054 0.000290 0.896081 0.036051
C162  C     C_3   0.962885 0.000001 0.188530 -0.215666
C163  C     C_R   0.604043 0.000343 0.104058 0.031768
C164  C     C_R   0.896053 0.500288 0.896080 0.036119
C165  C     C_R   0.104050 0.500343 0.104047 0.032775
C166  C     C_R   0.267267 0.998304 0.729499 -0.111694
C167  C     C_R   0.732191 0.022923 0.206088 -0.108691
C168  C     C_R   0.767267 0.498285 0.729501 -0.111719
C169  C     C_R   0.232207 0.522236 0.259259 -0.107968
C170  C     C_R   0.231504 0.998585 0.693701 -0.111184
C171  C     C_R   0.767914 0.022837 0.241817 -0.111861
C172  C     C_R   0.731505 0.498566 0.693704 -0.111324
C173  C     C_3   0.036811 0.004861 0.811190 -0.215601
C174  C     C_R   0.267930 0.522156 0.294979 -0.111926
C175  C     C_R   0.213463 0.000379 0.713376 0.024533
C176  C     C_R   0.786048 0.000309 0.285997 0.029952
C177  C     C_R   0.713464 0.500380 0.713377 0.024570
C178  C     C_R   0.286053 0.500332 0.286104 0.029796
C179  C     C_R   0.231443 0.002333 0.769116 -0.111959
C180  C     C_R   0.767822 0.977897 0.293847 -0.111560
C181  C     C_R   0.731442 0.502354 0.769115 -0.112011
C182  C     C_R   0.267824 0.478634 0.240828 -0.110764
C183  C     C_R   0.267201 0.002862 0.804936 -0.107942
C184  C     C_3   0.463127 0.504172 0.188773 -0.215643
C185  C     C_R   0.732102 0.978043 0.258197 -0.112919
C186  C     C_R   0.767201 0.502883 0.804935 -0.107988
C187  C     C_R   0.232102 0.478796 0.205011 -0.112511
C188  C     C_R   0.285636 0.000627 0.785647 0.032750
C189  C     C_R   0.713970 0.000543 0.213985 0.029814
C190  C     C_R   0.785636 0.500628 0.785647 0.032816
C191  C     C_R   0.213979 0.500575 0.213938 0.030649
C192  C     C_R   0.157894 0.972932 0.675816 -0.116746
C193  C     C_R   0.842006 0.969154 0.342542 -0.117619
C194  C     C_R   0.657896 0.472924 0.675798 -0.117140
C195  C     C_3   0.536973 0.503406 0.811344 -0.215594
C196  C     C_R   0.341997 0.469189 0.340422 -0.117331
C197  C     C_R   0.122122 0.972620 0.639591 -0.122753
C198  C     C_R   0.877735 0.969071 0.378269 -0.123285
C199  C     C_R   0.622124 0.472612 0.639573 -0.123325
C200  C     C_R   0.377727 0.469098 0.376208 -0.122340
C201  C     C_R   0.103893 0.000054 0.603762 0.018600
C202  C     C_R   0.896001 0.000066 0.396019 0.015011
C203  C     C_R   0.603894 0.500054 0.603763 0.018385
C204  C     C_R   0.395998 0.500069 0.396064 0.015168
C205  C     C_3   0.019018 0.031345 0.293423 -0.251342
C206  C     C_3   0.962830 0.000237 0.236955 -0.202392
C207  C     C_3   0.977128 0.028787 0.702853 -0.251129
C208  C     C_3   0.522421 0.529012 0.296828 -0.251444
C209  C     C_3   0.478276 0.529667 0.704006 -0.251147
C210  C     C_R   0.121971 0.027569 0.604214 -0.127429
C211  C     C_R   0.877847 0.031132 0.377318 -0.128317
C212  C     C_R   0.621972 0.527578 0.604235 -0.127744
C213  C     C_R   0.377849 0.531116 0.379508 -0.128182
C214  C     C_R   0.157738 0.027448 0.639527 -0.118580
C215  C     C_R   0.842126 0.031197 0.341535 -0.119747
C216  C     C_R   0.657739 0.527458 0.639548 -0.118745
Cu1   Cu    Cu3+1 0.000000 0.034220 0.500000 0.928501
Cu2   Cu    Cu3+1 0.499990 0.999930 0.041330 0.981946
Cu3   Cu    Cu3+1 0.000010 0.499930 0.958670 0.976256
Cu4   Cu    Cu3+1 0.999990 0.499930 0.041330 0.980995
Cu5   Cu    Cu3+1 0.500000 0.534220 0.500000 0.928797
Cu6   Cu    Cu3+1 0.000000 0.965800 0.500000 0.994549
Cu7   Cu    Cu3+1 0.500000 0.465800 0.500000 0.994634
Cu8   Cu    Cu3+1 0.034210 0.999890 0.034180 0.936371
Cu9   Cu    Cu3+1 0.965790 0.999890 0.965820 0.935755
Cu10  Cu    Cu3+1 0.534210 0.499890 0.034180 0.935553
Cu11  Cu    Cu3+1 0.465790 0.499890 0.965820 0.936249
Cu12  Cu    Cu3+1 0.500010 0.999930 0.958670 0.976371
H1    H     H_    0.046036 0.031622 0.260452 0.121687
H2    H     H_    0.986356 0.054019 0.772223 0.125357
H3    H     H_    0.971949 0.718729 0.030201 0.115037
H4    H     H_    0.028450 0.781090 0.970752 0.111935
H5    H     H_    0.971581 0.781262 0.029415 0.112119
H6    H     H_    0.549637 0.280637 0.079642 0.107913
H7    H     H_    0.450369 0.280553 0.920530 0.107824
H8    H     H_    0.946009 0.828414 0.960425 0.111857
H9    H     H_    0.054015 0.828371 0.039696 0.112099
H10   H     H_    0.446064 0.328604 0.961235 0.109649
H11   H     H_    0.553944 0.328546 0.038888 0.109372
H12   H     H_    0.945929 0.891000 0.960347 0.131420
H13   H     H_    0.512786 0.554133 0.227170 0.125127
H14   H     H_    0.054081 0.890957 0.039698 0.131602
H15   H     H_    0.445945 0.391010 0.960332 0.131514
H16   H     H_    0.554061 0.390957 0.039715 0.131312
H17   H     H_    0.045809 0.967455 0.330449 0.134269
H18   H     H_    0.958762 0.961995 0.673945 0.134660
H19   H     H_    0.541862 0.462516 0.326499 0.134510
H20   H     H_    0.457289 0.463652 0.672478 0.134749
H21   H     H_    0.044930 0.965960 0.258385 0.104751
H22   H     H_    0.959807 0.960585 0.746166 0.104669
H23   H     H_    0.540831 0.461133 0.254284 0.104539
H24   H     H_    0.488497 0.554515 0.774368 0.125282
H25   H     H_    0.458283 0.462201 0.744650 0.104691
H26   H     H_    0.004822 0.943859 0.218046 0.168379
H27   H     H_    0.002419 0.943802 0.788939 0.168324
H28   H     H_    0.498494 0.443676 0.211713 0.168651
H29   H     H_    0.500201 0.443751 0.786718 0.168606
H30   H     H_    0.949580 0.023716 0.235061 0.106909
H31   H     H_    0.046972 0.030126 0.761633 0.107322
H32   H     H_    0.452565 0.529232 0.238047 0.107441
H33   H     H_    0.548118 0.528251 0.762770 0.107227
H34   H     H_    0.947941 0.977973 0.233821 0.170865
H35   H     H_    0.948725 0.977107 0.162877 0.136382
H36   H     H_    0.054472 0.984972 0.768522 0.169810
H37   H     H_    0.445793 0.483964 0.231675 0.170638
H38   H     H_    0.553830 0.482836 0.767869 0.169854
H39   H     H_    0.949138 0.023036 0.163045 0.118517
H40   H     H_    0.047488 0.029458 0.833721 0.118426
H41   H     H_    0.452055 0.528605 0.165964 0.118534
H42   H     H_    0.548612 0.527563 0.834836 0.118445
H43   H     H_    0.053790 0.983961 0.839564 0.136251
H44   H     H_    0.446485 0.483013 0.160638 0.136689
H45   H     H_    0.553114 0.481853 0.838878 0.136383
H46   H     H_    0.391339 0.974062 0.950582 0.124068
H47   H     H_    0.608870 0.003634 0.041508 0.142207
H48   H     H_    0.891338 0.474081 0.950594 0.123926
H49   H     H_    0.950287 0.025564 0.735987 0.122211
H50   H     H_    0.108884 0.499307 0.041386 0.139308
H51   H     H_    0.328948 0.973192 0.887699 0.104982
H52   H     H_    0.671362 0.003559 0.104051 0.110091
H53   H     H_    0.828947 0.473214 0.887712 0.104840
H54   H     H_    0.171375 0.499779 0.103924 0.111779
H55   H     H_    0.329100 0.028044 0.770523 0.108055
H56   H     H_    0.671415 0.997730 0.238770 0.109958
H57   H     H_    0.829100 0.528023 0.770508 0.108289
H58   H     H_    0.171436 0.501535 0.238827 0.108551
H59   H     H_    0.391508 0.026670 0.832399 0.134298
H60   H     H_    0.549307 0.526254 0.263723 0.121750
H61   H     H_    0.608929 0.997241 0.176332 0.131274
H62   H     H_    0.891507 0.526649 0.832386 0.134764
H63   H     H_    0.108941 0.501564 0.176423 0.132017
H64   H     H_    0.280431 0.995780 0.713081 0.102716
H65   H     H_    0.718801 0.040737 0.172582 0.114983
H66   H     H_    0.780431 0.495746 0.713087 0.102535
H67   H     H_    0.218819 0.539487 0.266761 0.112189
H68   H     H_    0.217862 0.996827 0.650662 0.112201
H69   H     H_    0.781370 0.040146 0.234588 0.107075
H70   H     H_    0.717862 0.496793 0.650666 0.111788
H71   H     H_    0.451333 0.527505 0.737044 0.122051
H72   H     H_    0.281400 0.538902 0.329873 0.106362
H73   H     H_    0.217751 0.004000 0.784785 0.112980
H74   H     H_    0.781206 0.960507 0.327896 0.106838
H75   H     H_    0.717750 0.504036 0.784782 0.112797
H76   H     H_    0.281212 0.461801 0.232825 0.108436
H77   H     H_    0.045875 0.031682 0.331965 0.112032
H78   H     H_    0.950451 0.025686 0.664477 0.113108
H79   H     H_    0.549146 0.526329 0.335236 0.111949
H80   H     H_    0.451496 0.527621 0.665532 0.112887
H81   H     H_    0.280310 0.005459 0.847663 0.108875
H82   H     H_    0.006373 0.055071 0.292403 0.122770
H83   H     H_    0.718642 0.960302 0.264866 0.105128
H84   H     H_    0.780310 0.505494 0.847660 0.108704
H85   H     H_    0.218631 0.461618 0.170633 0.105216
H86   H     H_    0.171614 0.951740 0.703548 0.117254
H87   H     H_    0.828531 0.944908 0.328990 0.110905
H88   H     H_    0.671616 0.451725 0.703515 0.116962
H89   H     H_    0.328508 0.444957 0.326132 0.111227
H90   H     H_    0.108710 0.951215 0.640119 0.134153
H91   H     H_    0.891013 0.944719 0.391873 0.137240
H92   H     H_    0.608711 0.451200 0.640086 0.133733
H93   H     H_    0.986624 0.053943 0.700840 0.123420
H94   H     H_    0.391002 0.444761 0.388309 0.137931
H95   H     H_    0.108442 0.048915 0.576761 0.125134
H96   H     H_    0.891208 0.055436 0.390375 0.130918
H97   H     H_    0.608444 0.548931 0.576797 0.125086
H98   H     H_    0.391214 0.555403 0.394040 0.131005
H99   H     H_    0.171333 0.048720 0.639125 0.114350
H100  H     H_    0.828750 0.055500 0.328223 0.109012
H101  H     H_    0.671334 0.548737 0.639162 0.114396
H102  H     H_    0.328746 0.555479 0.331255 0.109613
H103  H     H_    0.502222 0.890957 0.934691 0.129859
H104  H     H_    0.512523 0.554007 0.298556 0.122879
H105  H     H_    0.497744 0.891023 0.065102 0.128896
H106  H     H_    0.001994 0.390956 0.934451 0.129623
H107  H     H_    0.997973 0.391021 0.065341 0.129029
H108  H     H_    0.501933 0.828469 0.934393 0.107677
H109  H     H_    0.497986 0.828546 0.065217 0.107279
H110  H     H_    0.001700 0.328469 0.934149 0.107537
H111  H     H_    0.998219 0.328545 0.065458 0.107341
H112  H     H_    0.539537 0.781105 0.992276 0.105175
H113  H     H_    0.460333 0.781228 0.007210 0.105034
H114  H     H_    0.039361 0.281102 0.991878 0.105060
H115  H     H_    0.488756 0.554430 0.702976 0.123298
H116  H     H_    0.960508 0.281226 0.007605 0.104910
H117  H     H_    0.038980 0.218535 0.991031 0.104743
H118  H     H_    0.960910 0.218666 0.008502 0.104593
H119  H     H_    0.539156 0.718541 0.991420 0.104731
H120  H     H_    0.460735 0.718671 0.008115 0.104685
H121  H     H_    0.944678 0.171244 0.946265 0.107695
H122  H     H_    0.055252 0.171268 0.053386 0.107648
H123  H     H_    0.444673 0.671241 0.946052 0.107751
H124  H     H_    0.555257 0.671266 0.053600 0.107515
H125  H     H_    0.944640 0.108781 0.946643 0.130668
H126  H     H_    0.006614 0.055223 0.220995 0.125023
H127  H     H_    0.055335 0.108799 0.053223 0.130661
H128  H     H_    0.444636 0.608780 0.946437 0.130740
H129  H     H_    0.555339 0.608799 0.053429 0.130566
H130  H     H_    0.448543 0.171101 0.972903 0.150819
H131  H     H_    0.551464 0.171050 0.027293 0.150444
H132  H     H_    0.948070 0.670929 0.971073 0.148315
H133  H     H_    0.051970 0.670859 0.029145 0.148368
H134  H     H_    0.549757 0.218104 0.079215 0.116056
H135  H     H_    0.450250 0.218023 0.921007 0.115443
H136  H     H_    0.028092 0.718558 0.970017 0.114632
O1    O     O_R   0.049910 0.028900 0.549890 -0.513055
O2    O     O_R   0.549900 0.000010 0.015010 -0.501262
O3    O     O_R   0.950100 0.500010 0.984990 -0.494429
O4    O     O_R   0.049900 0.500010 0.015010 -0.500807
O5    O     O_R   0.500000 0.049850 0.965040 -0.477624
O6    O     O_R   0.500000 0.049850 0.034960 -0.473764
O7    O     O_R   0.000000 0.549850 0.965040 -0.477535
O8    O     O_R   0.000000 0.549850 0.034960 -0.474431
O9    O     O_R   0.049920 0.971120 0.549870 -0.505717
O10   O     O_R   0.950080 0.971120 0.450130 -0.509537
O11   O     O_R   0.549920 0.471120 0.549870 -0.506471
O12   O     O_R   0.950090 0.028900 0.450110 -0.515695
O13   O     O_R   0.450080 0.471120 0.450130 -0.508820
O14   O     O_R   0.000000 0.028900 0.439710 -0.513996
O15   O     O_R   0.000000 0.028900 0.560290 -0.510841
O16   O     O_R   0.500000 0.528900 0.439710 -0.513525
O17   O     O_R   0.500000 0.528900 0.560290 -0.511233
O18   O     O_R   0.000010 0.971120 0.439700 -0.482351
O19   O     O_R   0.999990 0.971120 0.560300 -0.485790
O20   O     O_R   0.500010 0.471120 0.439700 -0.482923
O21   O     O_R   0.499990 0.471120 0.560300 -0.485306
O22   O     O_R   0.028900 0.049810 0.028900 -0.513168
O23   O     O_R   0.549910 0.528900 0.549890 -0.513064
O24   O     O_R   0.971100 0.049810 0.971100 -0.513193
O25   O     O_R   0.528900 0.549810 0.028900 -0.513233
O26   O     O_R   0.471100 0.549810 0.971100 -0.513156
O27   O     O_R   0.028890 0.999890 0.089150 -0.501434
O28   O     O_R   0.971110 0.999890 0.910850 -0.501589
O29   O     O_R   0.528890 0.499890 0.089150 -0.501811
O30   O     O_R   0.471110 0.499890 0.910850 -0.501647
O31   O     O_R   0.971120 0.999910 0.031400 -0.502969
O32   O     O_R   0.028880 0.999910 0.968600 -0.502774
O33   O     O_R   0.471120 0.499910 0.031400 -0.502566
O34   O     O_R   0.450090 0.528900 0.450110 -0.515568
O35   O     O_R   0.528880 0.499910 0.968600 -0.502739
O36   O     O_R   0.028890 0.949980 0.028830 -0.510929
O37   O     O_R   0.971110 0.949980 0.971170 -0.511113
O38   O     O_R   0.528890 0.449980 0.028830 -0.511128
O39   O     O_R   0.471110 0.449980 0.971170 -0.511040
O40   O     O_R   0.500020 0.950020 0.965150 -0.519656
O41   O     O_R   0.499980 0.950020 0.034850 -0.522498
O42   O     O_R   0.000020 0.450020 0.965150 -0.520019
O43   O     O_R   0.999980 0.450020 0.034850 -0.522196
O44   O     O_R   0.450100 0.999940 0.915210 -0.517099
O45   O     O_R   0.549900 0.999940 0.084790 -0.515557
O46   O     O_R   0.950100 0.499940 0.915210 -0.516949
O47   O     O_R   0.049900 0.499940 0.084790 -0.515976
O48   O     O_R   0.450100 0.000010 0.984990 -0.494184

loop_
_geom_bond_atom_site_label_1
_geom_bond_atom_site_label_2
_ccdc_geom_bond_type
C71   C131  S    
C166  C188  A    
C26   C34   A    
C102  C110  A    
C18   O43   A    
C153  H59   S    
C127  C131  S    
C203  C212  A    
C33   H20   S    
C127  H24   S    
C60   C73   A    
C146  C150  A    
C18   C42   S    
Cu1   O1    S    
C37   C40   A    
Br4   C33   S    
C162  H39   S    
C169  C174  A    
C75   C85   A    
C169  H67   S    
C170  H68   S    
Cu11  O30   S    
C141  C145  A    
C183  C188  A    
C3    C7    A    
C21   O46   A    
C50   H119  S    
C144  C148  A    
C47   H116  S    
C70   H23   S    
C112  O12   A    
Br6   C75   S    
C143  C147  A    
C19   C161  S    
C187  C191  A    
C87   C94   A    
C30   C67   S    
C50   C53   A    
C75   C80   A    
Cu7   O13   S    
C24   H33   S    
C207  H78   S    
C112  C202  S    
C38   C40   A    
C125  C207  S    
C110  H14   S    
C173  H43   S    
C67   C128  S    
C13   C184  S    
C148  H55   S    
C178  C182  A    
C15   O36   A    
Cu7   O11   S    
C82   C84   A    
Cu3   Cu4   S    
C200  C204  A    
C5    C176  S    
C158  O15   A    
C156  C165  A    
C151  O13   A    
C155  C164  A    
C81   H132  S    
Cu1   O12   S    
C91   C93   A    
Cu8   O22   S    
C47   C49   A    
C209  H80   S    
Cu11  O33   S    
C28   C42   A    
C140  O11   A    
C199  H92   S    
C69   H27   S    
C70   H28   S    
C113  C134  T    
C185  H83   S    
Cu4   O8    S    
C186  H84   S    
C77   C82   A    
C211  H96   S    
C16   O39   A    
C196  H89   S    
C24   C195  S    
C23   C85   S    
C192  H86   S    
Br5   C74   S    
C58   C62   A    
C22   O47   A    
C121  C208  S    
C103  H10   S    
C46   C106  T    
C166  H64   S    
C168  H66   S    
C126  H60   S    
C134  C160  S    
C89   C99   A    
C208  H104  S    
C19   O44   A    
C187  H85   S    
C149  C154  A    
Cu6   O10   S    
C127  C209  S    
C32   C121  S    
C29   C42   A    
C19   O48   A    
C123  C205  S    
C92   C96   A    
C113  C122  S    
C25   C86   S    
C3    C213  A    
C39   C54   S    
C89   H136  S    
C136  C163  A    
C136  C141  A    
C14   O35   A    
C76   C81   A    
C17   O41   A    
C146  C190  S    
C4    C175  S    
C129  C173  S    
C198  H91   S    
C195  H42   S    
Cu2   Cu12  S    
C206  H34   S    
C103  C111  A    
C58   H122  S    
C20   C163  S    
C64   H129  S    
C214  H99   S    
C23   O6    A    
C47   C55   A    
C27   C41   A    
Cu6   O18   S    
C94   H6    S    
C137  C142  A    
Cu12  O40   S    
C184  H41   S    
C153  C161  A    
C160  O21   A    
C14   C108  S    
C137  C164  A    
C199  C203  A    
C57   C107  T    
C43   C54   A    
Cu1   O14   S    
C2    C120  S    
C49   H118  S    
C181  C186  A    
C10   C105  S    
C17   C41   S    
C172  H70   S    
C51   C53   A    
C144  C188  S    
C60   H124  S    
Cu2   O45   S    
C124  C157  S    
C123  C128  S    
C25   O7    A    
C6    C177  S    
C12   O29   A    
C119  C205  S    
C15   C115  S    
C114  H16   S    
C202  C211  A    
C87   C98   A    
C111  H15   S    
C198  C202  A    
C80   C83   A    
C193  C198  A    
C13   C121  S    
Cu8   O36   S    
C136  H47   S    
C4    C192  A    
C95   C97   A    
C56   C61   A    
Cu9   O24   S    
C4    C214  A    
C182  C187  A    
C150  C155  A    
C102  H9    S    
C78   H130  S    
C128  C162  S    
C148  C153  A    
C59   C73   A    
C194  C199  A    
C123  H126  S    
C101  C121  S    
C114  C116  A    
C89   C92   A    
C147  C191  S    
C171  C176  A    
C45   C48   A    
C52   C72   S    
C26   C41   A    
C31   C120  S    
C100  C109  A    
C11   O32   A    
C150  H57   S    
C168  C190  A    
C13   H37   S    
C209  H115  S    
C12   C107  S    
Cu9   O37   S    
C88   H135  S    
C177  C181  A    
C58   C72   A    
C62   H127  S    
C143  H54   S    
C205  H82   S    
Cu4   O3    S    
C44   C54   A    
C45   C55   A    
C186  C190  A    
C30   C119  S    
C6    C194  A    
C140  O23   A    
C16   O38   A    
C92   H4    S    
Cu7   O21   S    
C180  H74   S    
C56   H121  S    
C181  H75   S    
C159  O16   A    
C182  H76   S    
C138  C143  A    
C168  C172  A    
C68   C131  S    
C169  C191  A    
C162  H35   S    
Cu2   O6    S    
C61   H125  S    
C20   O2    A    
C28   H106  S    
C9    O26   A    
C104  H11   S    
C192  C197  A    
C43   H112  S    
C125  C129  S    
C37   H110  S    
C167  H65   S    
C152  C156  A    
C69   C129  S    
C78   C83   A    
C193  H87   S    
C33   C122  S    
C82   H133  S    
C46   C129  S    
C126  C208  S    
C94   C97   A    
C210  H95   S    
C174  C178  A    
C167  C189  A    
C156  H63   S    
C212  H97   S    
C13   H32   S    
C29   H107  S    
C208  H79   S    
C200  H94   S    
C96   C117  S    
C67   H21   S    
C61   C65   A    
C166  C170  A    
C104  C118  A    
C170  C175  A    
Cu12  O5    S    
C91   H3    S    
C90   C120  S    
Cu8   O27   S    
C74   C85   A    
C2    H36   S    
Cu11  O26   S    
C56   C72   A    
C149  H56   S    
C5    C215  A    
C213  H98   S    
C79   C119  S    
C18   O42   A    
C132  C158  S    
C7    C178  S    
C133  C159  S    
C206  H30   S    
C64   C66   A    
C140  C203  S    
C5    C193  A    
C49   C52   A    
C11   C106  S    
C74   C78   A    
C151  C204  S    
C48   C52   A    
Cu2   O48   S    
C126  C130  S    
Cu12  O44   S    
Cu5   O17   S    
C160  O17   A    
C195  H45   S    
C62   C65   A    
C59   H123  S    
C43   C50   A    
C76   C86   A    
C21   O3    A    
C154  H61   S    
Br1   C30   S    
C57   C130  S    
C10   O27   A    
Br3   C32   S    
C93   C96   A    
C125  H49   S    
C71   H25   S    
C141  H52   S    
C32   C70   S    
Cu10  Cu11  S    
Cu5   O16   S    
C12   O33   A    
Cu3   O42   S    
C157  O18   A    
C130  C184  S    
C40   C55   S    
C63   C66   A    
C162  C206  S    
C91   C99   A    
Cu8   O32   S    
Cu9   O28   S    
Cu5   O23   S    
Cu5   Cu7   S    
C131  C195  S    
C63   H128  S    
C17   O40   A    
C51   H120  S    
C8    O24   A    
Cu10  O29   S    
Cu8   Cu9   S    
C20   O45   A    
C59   C63   A    
C110  C115  A    
C3    H102  S    
C145  C149  A    
C194  H88   S    
C211  C215  A    
C30   H17   S    
C34   H108  S    
C23   O5    A    
C180  C185  A    
C26   H103  S    
C88   C95   A    
C2    C173  S    
Cu6   O19   S    
C53   C73   S    
C38   H111  S    
C126  H13   S    
C29   C38   A    
C171  H69   S    
C207  H93   S    
C1    O9    A    
Cu10  O38   S    
C109  H12   S    
C24   C122  S    
C7    C196  A    
C127  H71   S    
C44   H113  S    
C31   H18   S    
C111  C116  A    
C135  C139  A    
Cu1   O15   S    
C97   C118  S    
C201  C210  A    
C31   C69   S    
C6    C216  A    
C175  C179  A    
C159  O20   A    
C15   O37   A    
C145  C189  S    
C138  C165  A    
C16   C116  S    
C1    O1    A    
Br8   C77   S    
C215  H100  S    
C179  H73   S    
C151  O34   A    
Cu1   Cu6   S    
C71   H29   S    
C45   H114  S    
C32   H19   S    
Br2   C31   S    
C1    C201  S    
C95   H7    S    
Cu7   O20   S    
C100  C117  A    
Cu3   O46   S    
C93   H5    S    
C22   C165  S    
C179  C183  A    
C36   C39   A    
C60   C64   A    
Cu6   O9    S    
Br7   C76   S    
C67   H26   S    
C158  O19   A    
C27   H105  S    
C83   C98   S    
C35   C128  S    
C22   O4    A    
C103  C118  A    
C70   C130  S    
C210  C214  A    
C204  C213  A    
C2    H31   S    
C8    C65   S    
C135  C161  A    
Cu10  O25   S    
C8    O22   A    
C155  H62   S    
C167  C171  A    
Cu10  O35   S    
C120  C207  S    
Cu3   O4    S    
C183  H81   S    
C36   H109  S    
C176  C180  A    
C90   C132  T    
C79   C124  T    
C122  C209  S    
C104  C114  A    
C11   O28   A    
C138  H50   S    
C44   C51   A    
C152  H58   S    
C77   C86   A    
C84   C99   S    
C197  C201  A    
C100  H8    S    
C28   C37   A    
C81   C84   A    
C27   C36   A    
Cu4   O43   S    
C184  H44   S    
C196  C200  A    
C69   H22   S    
C9    C66   S    
C112  O10   A    
C125  H2    S    
C87   H134  S    
Cu12  O2    S    
C212  C216  A    
C9    O25   A    
C88   C98   A    
C135  H46   S    
C216  H101  S    
C147  C152  A    
C80   H131  S    
C10   O31   A    
Cu11  O39   S    
C14   O30   A    
C33   C71   S    
C25   O8    A    
C101  C133  T    
Cu2   O41   S    
C119  C206  S    
Cu4   O47   S    
C197  H90   S    
C139  C144  A    
C109  C115  A    
C139  H51   S    
C35   C105  T    
C48   H117  S    
C123  H1    S    
C185  C189  A    
C68   C108  T    
C174  H72   S    
C34   C39   A    
C21   C164  S    
C205  H77   S    
C24   H38   S    
C172  C177  A    
C102  C117  A    
Cu9   O31   S    
Cu5   O34   S    
C154  C163  A    
C157  O14   A    
Cu3   O7    S    
C142  C146  A    
C142  H53   S    
C137  H48   S    
C173  H40   S    
