data_mof_unit_58248.cif
_audit_creation_date              2012-12-10T17:03:27-0500
_audit_creation_method            fapswitch 2.2
_symmetry_space_group_name_H-M    P1
_symmetry_Int_Tables_number       1
_space_group_crystal_system       triclinic
_cell_length_a                    15.092062
_cell_length_b                    11.034961
_cell_length_c                    9.809202
_cell_angle_alpha                 111.48618
_cell_angle_beta                  98.042074
_cell_angle_gamma                 91.107911
_cell_volume                      1500.72839953

loop_
_atom_site_label
_atom_site_type_symbol
_atom_type_description
_atom_site_fract_x
_atom_site_fract_y
_atom_site_fract_z
_atom_type_partial_charge
C1    C     C_R   0.493490 0.253730 0.439942 0.721547
C2    C     C_R   0.506503 0.746285 0.560065 0.722260
C3    C     C_R   0.061826 0.429437 0.713677 0.147239
C4    C     C_R   0.938013 0.571599 0.286965 0.150622
C5    C     C_2   0.489831 0.113221 0.404506 0.307394
C6    C     C_2   0.509496 0.886814 0.595533 0.312851
C7    C     C_2   0.489194 0.069220 0.514525 -0.247566
C8    C     C_2   0.486826 0.930199 0.485742 -0.250375
C9    C     C_2   0.507664 0.510430 0.081526 -0.047948
C10   C     C_2   0.492386 0.489514 0.918469 -0.036861
C11   C     C_R   0.328976 0.501197 0.501758 0.882725
C12   C     C_R   0.670992 0.498874 0.498254 0.874648
C13   C     C_R   0.805387 0.547965 0.402515 0.386512
C14   C     C_R   0.194549 0.453145 0.598326 0.387124
C15   C     C_R   0.767297 0.497004 0.495161 -0.289730
C16   C     C_R   0.232613 0.503207 0.504877 -0.283080
C17   C     C_R   0.821033 0.447309 0.588247 0.379229
C18   C     C_R   0.178806 0.552249 0.411158 0.377767
C19   C     C_R   0.914233 0.456818 0.596752 -0.023688
C20   C     C_R   0.085612 0.543284 0.403145 -0.022206
C21   C     C_R   0.953007 0.499458 0.497717 -0.060731
C22   C     C_R   0.046875 0.501089 0.502547 -0.058733
C23   C     C_R   0.898024 0.539830 0.393911 -0.001753
C24   C     C_R   0.101869 0.461103 0.606681 0.001535
C25   C     C_R   0.968723 0.424890 0.704373 -0.184547
C26   C     C_R   0.031079 0.575388 0.295668 -0.183900
Cu1   Cu    Cu3+1 0.515770 0.521810 0.644910 0.981055
Cu2   Cu    Cu3+1 0.484230 0.478190 0.355090 0.985883
H1    H     H_    0.938544 0.397688 0.784083 0.186120
H2    H     H_    0.061197 0.602363 0.215754 0.187008
H3    H     H_    0.469324 0.861925 0.371648 0.198503
H4    H     H_    0.493760 0.137176 0.628666 0.196352
H5    H     H_    0.439971 0.417160 0.844948 0.183747
H6    H     H_    0.560125 0.582717 0.155030 0.183676
H7    H     H_    0.588803 0.622678 0.934985 0.197335
H8    H     H_    0.411102 0.377487 0.065045 0.210601
N1    N     N_2   0.460520 0.445420 0.137370 -0.274313
N2    N     N_2   0.539480 0.554580 0.862630 -0.276795
O1    O     O_R   0.508410 0.332340 0.577400 -0.604891
O2    O     O_R   0.491590 0.667660 0.422600 -0.604872
O3    O     O_R   0.481780 0.295500 0.332650 -0.549849
O4    O     O_R   0.518220 0.704500 0.667350 -0.554721
O5    O     O_R   0.383570 0.518390 0.622380 -0.543299
O6    O     O_R   0.616430 0.481610 0.377620 -0.550446
O7    O     O_R   0.356940 0.481550 0.377630 -0.533386
O8    O     O_R   0.643060 0.518450 0.622370 -0.538335
O9    O     O_3   0.751477 0.607161 0.322765 -0.563196
C27   C     C_3   0.746946 0.739175 0.414340 -0.352323
H9    H     H_    0.814765 0.792229 0.453078 0.157065
H10   H     H_    0.713302 0.748123 0.511112 0.141605
H11   H     H_    0.706328 0.787578 0.348639 0.174071
O10   O     O_3   0.248524 0.394873 0.679066 -0.567186
C28   C     C_3   0.253165 0.262570 0.588653 -0.331794
H12   H     H_    0.287025 0.252866 0.491901 0.151460
H13   H     H_    0.185370 0.209427 0.549965 0.157673
H14   H     H_    0.293645 0.214845 0.655291 0.185599
O11   O     O_3   0.782563 0.396047 0.677780 -0.555481
C29   C     C_3   0.759422 0.261623 0.597212 -0.316021
H15   H     H_    0.727960 0.220723 0.668286 0.185996
H16   H     H_    0.819905 0.207954 0.567200 0.147107
H17   H     H_    0.709577 0.244611 0.495800 0.133255
O12   O     O_3   0.217193 0.602393 0.320605 -0.560431
C30   C     C_3   0.240148 0.737060 0.399728 -0.290209
H18   H     H_    0.179624 0.790727 0.429472 0.148791
H19   H     H_    0.271319 0.777204 0.327715 0.196403
H20   H     H_    0.290171 0.754983 0.501164 0.145949
C31   C     C_3   0.114940 0.406936 0.843919 -0.743293
H21   H     H_    0.072328 0.406529 0.927460 0.197978
H22   H     H_    0.143909 0.310846 0.806330 0.246330
H23   H     H_    0.168615 0.486808 0.902010 0.267586
C32   C     C_3   0.884818 0.594915 0.157327 -0.754810
H24   H     H_    0.927309 0.595575 0.073724 0.199073
H25   H     H_    0.830965 0.515329 0.099108 0.264619
H26   H     H_    0.856047 0.691133 0.195638 0.244649
O13   O     O_3   0.530068 0.972883 0.741865 -0.555955
C33   C     C_3   0.624049 0.985612 0.784141 -0.330502
H27   H     H_    0.658553 0.020547 0.710637 0.143000
H28   H     H_    0.649999 0.892262 0.785246 0.159416
H29   H     H_    0.640820 0.059505 0.898561 0.189701
O14   O     O_3   0.482131 0.027553 0.258094 -0.554203
C34   C     C_3   0.568012 0.018866 0.215619 -0.297878
H30   H     H_    0.616039 0.984111 0.287867 0.127381
H31   H     H_    0.594635 0.113859 0.216326 0.162172
H32   H     H_    0.562529 0.946455 0.100478 0.206700

loop_
_geom_bond_atom_site_label_1
_geom_bond_atom_site_label_2
_ccdc_geom_bond_type
C30   H19   S    
C33   H29   S    
C34   H30   S    
C7    C8    S    
C28   H12   S    
C1    C5    S    
C22   C24   A    
H8    N1    S    
C19   C21   A    
C33   H28   S    
Cu2   O2    S    
Cu1   N2    S    
C29   H16   S    
Cu2   O3    S    
C13   C23   A    
C14   C24   A    
C27   H11   S    
C14   O10   S    
Cu1   O1    S    
C11   O5    A    
C9    C10   S    
C29   H17   S    
C27   H10   S    
C30   H20   S    
C21   C22   A    
C3    C24   A    
C2    C6    S    
C34   H31   S    
C28   H13   S    
C25   H1    S    
Cu2   O7    S    
C31   H21   S    
C3    C25   A    
H7    N2    S    
C33   H27   S    
C12   O8    A    
C5    C7    D    
C4    C23   A    
C18   O12   S    
C6    C8    D    
C29   H15   S    
Cu2   O6    S    
C31   H22   S    
O13   C33   S    
O12   C30   S    
Cu1   O5    S    
C11   C16   S    
O9    C27   S    
C12   C15   S    
C9    N1    D    
C5    O14   S    
Cu1   O8    S    
C1    O3    A    
C27   H9    S    
C20   C22   A    
C26   H2    S    
C13   C15   A    
C9    H6    S    
C14   C16   A    
C11   O7    A    
C34   H32   S    
O10   C28   S    
C13   O9    S    
C28   H14   S    
C15   C17   A    
C7    H4    S    
C8    H3    S    
C3    C31   S    
O14   C34   S    
C32   H26   S    
C4    C26   A    
C10   N2    D    
C31   H23   S    
C21   C23   A    
C32   H24   S    
C12   O6    A    
Cu1   O4    S    
O11   C29   S    
C20   C26   A    
Cu2   N1    S    
C2    O4    A    
C17   C19   A    
C10   H5    S    
C18   C20   A    
C19   C25   A    
C1    O1    A    
C30   H18   S    
C2    O2    A    
C16   C18   A    
C32   H25   S    
Cu1   Cu2   S    
C4    C32   S    
C17   O11   S    
C6    O13   S    
