data_mof_unit_38550.cif
_audit_creation_date              2012-12-10T21:28:51-0500
_audit_creation_method            fapswitch 2.2
_symmetry_space_group_name_H-M    P1
_symmetry_Int_Tables_number       1
_space_group_crystal_system       triclinic
_cell_length_a                    10.671026
_cell_length_b                    16.101329
_cell_length_c                    16.703546
_cell_angle_alpha                 90.831722
_cell_angle_beta                  91.93529
_cell_angle_gamma                 90.220474
_cell_volume                      2867.99861899

loop_
_atom_site_label
_atom_site_type_symbol
_atom_type_description
_atom_site_fract_x
_atom_site_fract_y
_atom_site_fract_z
_atom_type_partial_charge
C1    C     C_R   0.501097 0.490707 0.654458 0.954492
C2    C     C_R   0.939526 0.421473 0.485813 -0.058443
C3    C     C_R   0.872731 0.496158 0.472922 -0.254504
C4    C     C_R   0.937905 0.572296 0.468192 0.381107
C5    C     C_R   0.060974 0.576880 0.497030 0.415116
C6    C     C_R   0.124488 0.503441 0.517082 -0.273653
C7    C     C_R   0.481742 0.489384 0.742106 -0.453784
C8    C     C_R   0.478310 0.566334 0.784149 0.236873
C9    C     C_R   0.404334 0.574038 0.851342 0.223501
C10   C     C_R   0.369040 0.501825 0.890670 -0.049747
C11   C     C_R   0.382150 0.423697 0.854317 0.362220
C12   C     C_R   0.739251 0.498755 0.488941 0.955046
C13   C     C_R   0.442452 0.415999 0.781080 0.301812
C14   C     C_R   0.385379 0.469705 0.130962 -0.218818
C15   C     C_R   0.400259 0.459289 0.213100 0.345988
C16   C     C_R   0.444603 0.535402 0.093112 0.274472
C17   C     C_R   0.478505 0.514785 0.258746 -0.162121
C18   C     C_R   0.535411 0.581424 0.220288 -0.190175
C19   C     C_R   0.519623 0.590990 0.138033 -0.131239
C20   C     C_R   0.447001 0.766555 0.459361 0.519545
C21   C     C_R   0.447614 0.854631 0.473218 0.271840
C22   C     C_R   0.531749 0.890386 0.532882 0.034760
C23   C     C_R   0.495355 0.509365 0.346215 0.979176
C24   C     C_R   0.604476 0.835385 0.580526 0.315254
C25   C     C_R   0.594286 0.749585 0.566929 -0.078142
C26   C     C_R   0.593998 0.162331 0.539848 0.371562
C27   C     C_R   0.579753 0.248636 0.534244 -0.051763
C28   C     C_R   0.509108 0.109399 0.496683 0.152331
C29   C     C_R   0.394028 0.234392 0.453330 0.762611
C30   C     C_R   0.409460 0.146441 0.453931 -0.461304
C31   C     C_R   0.259832 0.501224 0.508884 0.923902
C32   C     C_R   0.897380 0.341280 0.459730 0.419888
C33   C     C_R   0.957538 0.270253 0.490868 -0.356753
C34   C     C_R   0.063800 0.278064 0.543672 0.577388
C35   C     C_R   0.111662 0.357431 0.559036 -0.114579
C36   C     C_R   0.058218 0.427922 0.522850 -0.104590
H1    H     H_    0.593252 0.625985 0.253699 0.236193
H2    H     H_    0.567152 0.641277 0.108970 0.199173
H3    H     H_    0.646635 0.289848 0.564222 0.218865
H4    H     H_    0.651515 0.707477 0.601526 0.276472
H5    H     H_    0.344575 0.105028 0.422152 0.183584
H6    H     H_    0.926221 0.210123 0.468657 0.175128
H7    H     H_    0.196058 0.363227 0.596617 0.183498
H8    H     H_    0.329737 0.425142 0.095927 0.213811
N1    N     N_2   0.353652 0.503667 0.974045 -0.080858
N2    N     N_2   0.442673 0.541199 0.009046 -0.077999
N3    N     N_R   0.515300 0.716920 0.509720 -0.179747
N4    N     N_2   0.538127 0.979034 0.548007 -0.007322
N5    N     N_2   0.524162 0.021298 0.485940 -0.047871
N6    N     N_R   0.484690 0.283070 0.490290 -0.136157
O1    O     O_R   0.494530 0.422540 0.612660 -0.580080
O2    O     O_R   0.504350 0.561840 0.618900 -0.591131
O3    O     O_R   0.678320 0.430330 0.496880 -0.625851
O4    O     O_R   0.688140 0.569640 0.503120 -0.567945
O5    O     O_R   0.495650 0.438160 0.381100 -0.508751
O6    O     O_R   0.505470 0.577460 0.387340 -0.562437
O7    O     O_R   0.311860 0.430360 0.496880 -0.567510
O8    O     O_R   0.321680 0.569670 0.503120 -0.581177
Zn1   Zn    Zn3+2 0.493440 0.406980 0.495830 1.120865
Zn2   Zn    Zn3+2 0.506560 0.593020 0.504170 1.079842
S1    S     S_3+6 0.873784 0.660548 0.418917 0.075920
O9    O     O_2   0.763211 0.636402 0.365552 -0.295016
O10   O     O_2   0.834567 0.723212 0.480559 -0.301963
O11   O     O_3   0.983034 0.703704 0.362337 -0.540920
H9    H     H_    0.946132 0.756868 0.344255 0.382000
S2    S     S_3+6 0.484261 0.314660 0.746973 0.079052
O12   O     O_2   0.392241 0.286147 0.682099 -0.312852
O13   O     O_2   0.613924 0.317627 0.714708 -0.278698
O14   O     O_3   0.484504 0.245296 0.821325 -0.449175
H10   H     H_    0.507757 0.191882 0.795774 0.399883
S3    S     S_3+6 0.353020 0.672378 0.887473 0.124634
O15   O     O_2   0.454068 0.712596 0.939657 -0.169823
O16   O     O_2   0.320858 0.728435 0.818704 -0.241652
O17   O     O_3   0.224878 0.660221 0.942146 -0.498032
H11   H     H_    0.160695 0.635950 0.904379 0.349864
S4    S     S_3+6 0.593643 0.643611 0.768869 0.118270
O18   O     O_2   0.531802 0.717230 0.730601 -0.207801
O19   O     O_2   0.652798 0.670773 0.847913 -0.211240
O20   O     O_3   0.707924 0.607403 0.710909 -0.549140
H12   H     H_    0.747869 0.562149 0.742022 0.349612
S5    S     S_3+6 0.720460 0.126015 0.598781 0.040146
O21   O     O_2   0.799126 0.070334 0.548219 -0.295716
O22   O     O_2   0.798126 0.197984 0.630773 -0.356269
O23   O     O_3   0.664629 0.074189 0.676478 -0.462093
H13   H     H_    0.734069 0.074508 0.717372 0.407766
S6    S     S_3+6 0.707983 0.869915 0.658833 0.125739
O24   O     O_2   0.802776 0.928485 0.626622 -0.228322
O25   O     O_2   0.633759 0.913073 0.721833 -0.210731
O26   O     O_3   0.785028 0.789535 0.700411 -0.489509
H14   H     H_    0.833706 0.813916 0.746569 0.397642
O27   O     O_3   0.289484 0.274196 0.419767 -0.534361
C37   C     C_3   0.208329 0.221744 0.373238 -0.101218
H15   H     H_    0.162135 0.175239 0.410737 0.101643
H16   H     H_    0.258046 0.191192 0.323411 0.186122
H17   H     H_    0.133010 0.260253 0.345970 0.248884
S7    S     S_3+6 0.807547 0.327597 0.368721 0.064905
O28   O     O_2   0.691331 0.277826 0.382334 -0.318655
O29   O     O_2   0.771071 0.409203 0.332379 -0.249670
O30   O     O_3   0.894351 0.275439 0.302680 -0.500164
H18   H     H_    0.889617 0.216481 0.318481 0.348324
O31   O     O_3   0.369418 0.904826 0.427345 -0.579753
C38   C     C_3   0.267075 0.930177 0.473579 -0.312233
H19   H     H_    0.294041 0.981575 0.515658 0.190112
H20   H     H_    0.226385 0.878614 0.508147 0.149218
H21   H     H_    0.191960 0.953757 0.432492 0.196629
O32   O     O_3   0.397153 0.729328 0.389664 -0.584621
C39   C     C_3   0.272765 0.752669 0.371189 -0.058448
H22   H     H_    0.217793 0.765847 0.424942 0.185835
H23   H     H_    0.271031 0.806182 0.330068 0.194522
H24   H     H_    0.226104 0.700080 0.338429 0.216097
O33   O     O_3   0.141004 0.212997 0.568881 -0.615332
C40   C     C_3   0.079767 0.135852 0.573772 -0.163253
H25   H     H_    0.047769 0.111346 0.514130 0.148416
H26   H     H_    0.003755 0.139013 0.616913 0.250474
H27   H     H_    0.148534 0.090343 0.597871 0.183121
O34   O     O_3   0.120924 0.653106 0.500595 -0.579004
C41   C     C_3   0.121435 0.682750 0.580502 -0.190402
H28   H     H_    0.168390 0.744338 0.583410 0.178590
H29   H     H_    0.175178 0.640950 0.621452 0.143634
H30   H     H_    0.024281 0.691117 0.601482 0.202406
S8    S     S_3+6 0.317794 0.376817 0.255057 0.052666
O35   O     O_2   0.248343 0.409255 0.325648 -0.244417
O36   O     O_2   0.225027 0.338220 0.195665 -0.285082
O37   O     O_3   0.422865 0.304747 0.283927 -0.502339
H31   H     H_    0.465783 0.288579 0.234447 0.371033
O38   O     O_3   0.347256 0.353947 0.895478 -0.517962
C42   C     C_3   0.218607 0.339201 0.878945 -0.132358
H32   H     H_    0.198993 0.328447 0.813682 0.160894
H33   H     H_    0.160370 0.391183 0.901505 0.139969
H34   H     H_    0.190645 0.282180 0.910386 0.212339

loop_
_geom_bond_atom_site_label_1
_geom_bond_atom_site_label_2
_ccdc_geom_bond_type
S2    O13   D    
O31   C38   S    
O5    Zn1   S    
C22   N4    S    
C35   C36   A    
S4    O20   S    
C40   H26   S    
S5    O21   D    
O3    Zn1   S    
C23   O6    A    
O4    Zn2   S    
N1    N2    D    
C26   C27   A    
C17   C23   S    
O38   C42   S    
C33   H6    S    
C31   O8    A    
C18   H1    S    
S4    O19   D    
C18   C19   A    
O14   H10   S    
C41   H29   S    
C25   H4    S    
C5    C6    A    
S6    O25   D    
O7    Zn1   S    
S2    O14   S    
O32   C39   S    
O8    Zn2   S    
S7    O30   S    
C8    S4    S    
O34   C41   S    
C38   H21   S    
C2    C32   A    
C34   C35   A    
S1    O10   D    
S8    O37   S    
C3    C12   S    
O2    Zn2   S    
N3    Zn2   S    
O23   H13   S    
O33   C40   S    
C27   H3    S    
C8    C9    A    
S7    O29   D    
C39   H22   S    
C30   H5    S    
C35   H7    S    
C9    C10   A    
C25   N3    A    
C12   O3    A    
C27   N6    A    
C29   N6    A    
C21   O31   S    
C6    C31   S    
C21   C22   A    
C34   O33   S    
C39   H23   S    
C38   H19   S    
C40   H25   S    
S5    O22   D    
C33   C34   A    
C20   O32   S    
C13   S2    S    
O17   H11   S    
C7    C8    A    
C11   O38   S    
S4    O18   D    
C41   H30   S    
C16   N2    S    
O27   C37   S    
S3    O16   D    
S6    O24   D    
C4    S1    S    
C37   H17   S    
O6    Zn2   S    
S1    O11   S    
C42   H33   S    
C29   C30   A    
C19   H2    S    
C28   N5    S    
O30   H18   S    
S7    O28   D    
C10   N1    S    
C37   H16   S    
C17   C18   A    
C24   C25   A    
C38   H20   S    
C1    O1    A    
S8    O35   D    
N4    N5    D    
C32   S7    S    
C26   S5    S    
C5    O34   S    
C39   H24   S    
C22   C24   A    
O1    Zn1   S    
N6    Zn1   S    
C42   H32   S    
C29   O27   S    
S5    O23   S    
C14   H8    S    
C2    C36   A    
C15   C17   A    
C15   S8    S    
C1    C7    S    
C9    S3    S    
C4    C5    A    
S6    O26   S    
S3    O17   S    
C23   O5    A    
C26   C28   A    
C32   C33   A    
C31   O7    A    
C28   C30   A    
C2    C3    A    
C42   H34   S    
S3    O15   D    
C41   H28   S    
O11   H9    S    
C11   C13   A    
C16   C19   A    
C37   H15   S    
C6    C36   A    
S2    O12   D    
C14   C16   A    
S1    O9    D    
C1    O2    A    
S8    O36   D    
C20   N3    A    
C10   C11   A    
O20   H12   S    
C7    C13   A    
C20   C21   A    
C14   C15   A    
O26   H14   S    
C24   S6    S    
C40   H27   S    
C12   O4    A    
C3    C4    A    
O37   H31   S    
