data_mof_unit_58160.cif
_audit_creation_date              2012-12-11T17:44:01-0500
_audit_creation_method            fapswitch 2.2
_symmetry_space_group_name_H-M    P1
_symmetry_Int_Tables_number       1
_space_group_crystal_system       triclinic
_cell_length_a                    20.244252
_cell_length_b                    22.707401
_cell_length_c                    6.936947
_cell_angle_alpha                 90.001123
_cell_angle_beta                  86.894781
_cell_angle_gamma                 90.000442
_cell_volume                      3184.19323094

loop_
_atom_site_label
_atom_site_type_symbol
_atom_type_description
_atom_site_fract_x
_atom_site_fract_y
_atom_site_fract_z
_atom_type_partial_charge
O1    O     O_R   0.751270 0.447300 0.600030 -0.543362
O2    O     O_R   0.248730 0.947300 0.399970 -0.543365
O3    O     O_R   0.613530 0.440160 0.952150 -0.530533
O4    O     O_R   0.386470 0.940160 0.047850 -0.530509
O5    O     O_R   0.613050 0.552700 0.122560 -0.534975
O6    O     O_R   0.386950 0.052700 0.877440 -0.534951
C1    C     C_R   0.591549 0.425388 0.786667 0.727474
C2    C     C_R   0.408451 0.925389 0.213328 0.727440
O7    O     O_R   0.750780 0.440350 0.929820 -0.516624
O8    O     O_R   0.249220 0.940350 0.070180 -0.516621
O9    O     O_R   0.751280 0.552900 0.100070 -0.518520
O10   O     O_R   0.248720 0.052900 0.899930 -0.518517
C3    C     C_R   0.773166 0.425218 0.757650 0.744835
C4    C     C_R   0.226833 0.925218 0.242347 0.744817
O11   O     O_R   0.613040 0.447100 0.622520 -0.524091
O12   O     O_R   0.386960 0.947100 0.377480 -0.524103
O13   O     O_3   0.682160 0.536920 0.777780 -0.356446
O14   O     O_3   0.317840 0.036920 0.222220 -0.356452
V1    V     V_3+5 0.682160 0.493150 0.052630 1.614696
V2    V     V_3+5 0.317840 0.993150 0.947370 1.614766
O15   O     O_R   0.750790 0.559840 0.429870 -0.541848
O16   O     O_R   0.249210 0.059840 0.570130 -0.541856
C5    C     C_R   0.772787 0.575230 0.257187 0.717816
C6    C     C_R   0.227212 0.075230 0.742815 0.717811
O17   O     O_R   0.613540 0.559650 0.452200 -0.535860
O18   O     O_R   0.386460 0.059650 0.547800 -0.535887
C7    C     C_R   0.591594 0.574442 0.286987 0.774282
C8    C     C_R   0.408406 0.074442 0.713019 0.774304
V3    V     V_3+5 0.682160 0.506850 0.552630 1.578813
V4    V     V_3+5 0.317840 0.006850 0.447370 1.578779
O19   O     O_3   0.682150 0.463080 0.277610 -0.350228
O20   O     O_3   0.317850 0.963080 0.722390 -0.350220
C9    C     C_R   0.579862 0.861573 0.213122 -0.118608
C10   C     C_R   0.420149 0.361584 0.786355 -0.118603
H1    H     H_    0.539005 0.948476 0.197678 0.157891
H2    H     H_    0.461009 0.448485 0.801790 0.157963
H3    H     H_    0.670495 0.777474 0.205482 0.144530
H4    H     H_    0.329509 0.277495 0.793742 0.144493
H5    H     H_    0.630244 0.877847 0.200472 0.140285
H6    H     H_    0.369771 0.377865 0.798745 0.140301
C11   C     C_R   0.462724 0.882134 0.215911 -0.079420
C12   C     C_R   0.537276 0.382136 0.784050 -0.079469
C13   C     C_R   0.471574 0.594375 0.329513 0.307839
C14   C     C_R   0.528431 0.094365 0.670790 0.307796
C15   C     C_R   0.418834 0.632770 0.364237 -0.136367
C16   C     C_R   0.581183 0.132753 0.636206 -0.136365
C17   C     C_R   0.427424 0.693721 0.354603 0.325238
C18   C     C_R   0.572600 0.193705 0.645750 0.325261
C19   C     C_R   0.489846 0.718055 0.290341 -0.004003
C20   C     C_R   0.510162 0.218051 0.709744 -0.004019
C21   C     C_R   0.545117 0.678395 0.270233 -0.043727
C22   C     C_R   0.454885 0.178396 0.729675 -0.043742
C23   C     C_R   0.500936 0.779896 0.254985 0.110817
C24   C     C_R   0.499068 0.279896 0.744979 0.110811
C25   C     C_R   0.567050 0.800997 0.232640 0.099286
C26   C     C_R   0.432957 0.301004 0.767001 0.099270
C27   C     C_R   0.620082 0.761609 0.225674 -0.143835
C28   C     C_R   0.379923 0.261622 0.773794 -0.143838
C29   C     C_R   0.609287 0.701346 0.237857 -0.105466
C30   C     C_R   0.390712 0.201356 0.761751 -0.105398
C31   C     C_R   0.449437 0.821484 0.231534 -0.129715
C32   C     C_R   0.550554 0.321483 0.768599 -0.129758
C33   C     C_R   0.528068 0.901861 0.209553 -0.081475
C34   C     C_R   0.471942 0.401868 0.790071 -0.081496
C35   C     C_R   0.535537 0.616495 0.289927 -0.172532
C36   C     C_R   0.464463 0.116493 0.710114 -0.172539
H7    H     H_    0.399075 0.807940 0.216082 0.182027
H8    H     H_    0.600900 0.307937 0.784292 0.182042
H9    H     H_    0.370887 0.614872 0.409847 0.202949
H10   H     H_    0.629140 0.114844 0.590776 0.202956
H11   H     H_    0.652169 0.672817 0.225571 0.122611
H12   H     H_    0.347826 0.172832 0.773894 0.122516
C37   C     C_R   0.172137 0.880903 0.260957 -0.130702
C38   C     C_R   0.827863 0.380903 0.739038 -0.130680
C39   C     C_R   0.157060 0.841983 0.109150 0.340259
C40   C     C_R   0.842937 0.341982 0.890841 0.340288
C41   C     C_R   0.103581 0.802826 0.132587 -0.166546
C42   C     C_R   0.896417 0.302826 0.867406 -0.166531
C43   C     C_R   0.064620 0.800422 0.307160 0.359364
C44   C     C_R   0.935381 0.300423 0.692839 0.359364
C45   C     C_R   0.081091 0.837272 0.458844 -0.141041
C46   C     C_R   0.918913 0.337273 0.541157 -0.141043
C47   C     C_R   0.133483 0.877335 0.435756 -0.188081
C48   C     C_R   0.866519 0.377335 0.564244 -0.188082
C49   C     C_R   0.920348 0.669216 0.379918 -0.123746
C50   C     C_R   0.079648 0.169211 0.620088 -0.123743
C51   C     C_R   0.868491 0.628263 0.392799 -0.219998
C52   C     C_R   0.131506 0.128258 0.607208 -0.219999
C53   C     C_R   0.931908 0.703205 0.211452 0.362316
C54   C     C_R   0.068089 0.203203 0.788550 0.362312
N1    N     N_2   0.010372 0.760508 0.337385 -0.275360
N2    N     N_2   0.989630 0.260510 0.662616 -0.275353
N3    N     N_2   0.985698 0.743701 0.185429 -0.285976
N4    N     N_2   0.014299 0.243699 0.814574 -0.285975
C55   C     C_R   0.826486 0.620345 0.239325 -0.126679
C56   C     C_R   0.173512 0.120343 0.760680 -0.126690
H13   H     H_    0.861958 0.601937 0.522594 0.183581
H14   H     H_    0.138038 0.101929 0.477415 0.183572
H15   H     H_    0.143329 0.906075 0.555427 0.175310
H16   H     H_    0.856675 0.406075 0.444574 0.175301
C57   C     C_R   0.837348 0.655699 0.072020 0.334967
C58   C     C_R   0.162650 0.155700 0.927983 0.334990
C59   C     C_R   0.890172 0.695673 0.059078 -0.210415
C60   C     C_R   0.109827 0.195674 0.940923 -0.210418
H17   H     H_    0.093378 0.773412 0.014932 0.178808
H18   H     H_    0.906618 0.273413 0.985059 0.178811
H19   H     H_    0.898355 0.721900 0.929463 0.166353
H20   H     H_    0.101643 0.221903 0.070537 0.166354
H21   H     H_    0.952009 0.673303 0.500086 0.158775
H22   H     H_    0.047986 0.173294 0.499924 0.158777
H23   H     H_    0.052439 0.835616 0.595211 0.147918
H24   H     H_    0.947567 0.335618 0.404794 0.147913
Cl1   Cl    Cl    0.784690 0.654427 0.877788 -0.674318
Cl2   Cl    Cl    0.215308 0.154431 0.122214 -0.674266
Cl3   Cl    Cl    0.205045 0.837596 0.889771 -0.600804
Cl4   Cl    Cl    0.794948 0.337594 0.110212 -0.600799
Cl5   Cl    Cl    0.456513 0.518112 0.352873 -0.655982
Cl6   Cl    Cl    0.543492 0.018097 0.647582 -0.655901
Cl7   Cl    Cl    0.361597 0.734492 0.466183 -0.591797
Cl8   Cl    Cl    0.638477 0.234461 0.534381 -0.591785

loop_
_geom_bond_atom_site_label_1
_geom_bond_atom_site_label_2
_ccdc_geom_bond_type
C9    C25   A    
C52   C56   A    
C10   C26   A    
O11   V3    S    
C56   C58   A    
C57   Cl1   S    
C14   C36   A    
C11   C31   A    
O4    C2    A    
V1    O19   S    
C17   C19   A    
O9    V1    S    
C9    H5    S    
C38   C40   A    
C5    C55   S    
C10   H6    S    
C7    C35   S    
C50   H22   S    
C40   C42   A    
C49   H21   S    
C6    C56   S    
C42   C44   A    
C27   C29   A    
C30   H12   S    
C28   C30   A    
O13   V3    S    
C21   C35   A    
C15   C17   A    
O7    C3    A    
C22   C30   A    
O13   V1    S    
H4    C28   S    
C23   C31   A    
O7    V1    S    
O6    C8    A    
C45   H23   S    
O8    V2    S    
C19   C21   A    
C51   C55   A    
C20   C22   A    
O3    V1    S    
O14   V4    S    
C12   C32   A    
C43   N1    S    
C9    C33   A    
C18   C20   A    
C2    O12   A    
O5    C7    A    
C53   C59   A    
C37   C39   A    
O1    V3    S    
C45   C47   A    
C14   C16   A    
C54   N4    S    
C16   C18   A    
C23   C25   A    
O17   V3    S    
C24   C26   A    
C49   C51   A    
C15   H9    S    
C48   H16   S    
C4    C37   S    
C2    C11   S    
C44   C46   A    
C50   C54   A    
C43   C45   A    
C49   C53   A    
C1    O11   A    
C24   C32   A    
O15   V3    S    
C46   H24   S    
C44   N2    S    
C8    C36   S    
C1    C12   S    
C58   Cl2   S    
N1    N3    D    
C13   C15   A    
C31   H7    S    
C14   Cl6   S    
C13   C35   A    
O10   V2    S    
C10   C34   A    
C41   C43   A    
C20   C24   A    
C58   C60   A    
C39   C41   A    
C54   C60   A    
C13   Cl5   S    
O18   V4    S    
C46   C48   A    
C25   C27   A    
O8    C4    A    
O16   C6    A    
C21   C29   A    
C11   C33   A    
C12   C34   A    
C60   H20   S    
C22   C36   A    
C17   Cl7   S    
C18   Cl8   S    
C59   H19   S    
V2    O20   S    
O16   V4    S    
O18   C8    A    
C38   C48   A    
H1    C33   S    
O5    V1    S    
O17   C7    A    
O6    V2    S    
O10   C6    A    
O3    C1    A    
C41   H17   S    
C32   H8    S    
O2    V4    S    
O15   C5    A    
V3    O19   S    
V4    O20   S    
N2    N4    D    
C19   C23   A    
C50   C52   A    
O9    C5    A    
C40   Cl4   S    
C26   C28   A    
C42   H18   S    
O14   V2    S    
C53   N3    S    
O2    C4    A    
H3    C27   S    
C16   H10   S    
C39   Cl3   S    
O4    V2    S    
O1    C3    A    
C3    C38   S    
C57   C59   A    
C47   H15   S    
H2    C34   S    
O12   V4    S    
C37   C47   A    
C52   H14   S    
C55   C57   A    
C29   H11   S    
C51   H13   S    
