data_mof_unit_12521.cif
_audit_creation_date              2012-10-26T19:18:47-0400
_audit_creation_method            fapswitch 2.2
_symmetry_space_group_name_H-M    P1
_symmetry_Int_Tables_number       1
_space_group_crystal_system       triclinic
_cell_length_a                    9.71862
_cell_length_b                    10.988487
_cell_length_c                    15.446459
_cell_angle_alpha                 88.856043
_cell_angle_beta                  73.228376
_cell_angle_gamma                 89.25303
_cell_volume                      1579.04354995

loop_
_atom_site_label
_atom_site_type_symbol
_atom_type_description
_atom_site_fract_x
_atom_site_fract_y
_atom_site_fract_z
_atom_type_partial_charge
C1    C     C_R   0.001676 0.264861 0.500683 0.535937
C2    C     C_R   0.222341 0.511136 0.038198 0.001830
C3    C     C_R   0.319271 0.542668 0.087227 -0.036275
C4    C     C_R   0.916223 0.502617 0.672318 0.590480
C5    C     C_R   0.079626 0.481124 0.084546 -0.092803
C6    C     C_R   0.033375 0.478951 0.178744 -0.137011
C7    C     C_R   0.271356 0.536220 0.182249 -0.120258
C8    C     C_2   0.892581 0.933009 0.521074 0.370136
C9    C     C_2   0.003814 0.861994 0.479256 0.365541
C10   C     C_2   0.893978 0.064235 0.501734 0.299336
C11   C     C_2   0.007895 0.130966 0.505791 0.252213
C12   C     C_R   0.663626 0.554453 0.902951 -0.040648
C13   C     C_2   0.401286 0.426649 0.550117 0.085595
C14   C     C_2   0.561443 0.413657 0.537166 0.036711
C15   C     C_R   0.000183 0.733548 0.497013 0.612865
C16   C     C_R   0.083652 0.500494 0.327497 0.523798
C17   C     C_R   0.868414 0.525344 0.769901 0.005393
C18   C     C_R   0.129562 0.504930 0.228082 -0.000080
C19   C     C_R   0.900442 0.629238 0.899319 -0.070644
C20   C     C_R   0.955123 0.590389 0.810771 0.365419
C21   C     C_R   0.726969 0.497024 0.819520 0.207365
C22   C     C_3   0.744449 0.845410 0.080799 -0.001628
C23   C     C_R   0.754702 0.613020 0.945909 -0.060719
C24   C     C_3   0.800536 0.913223 0.989603 -0.269164
C25   C     C_3   0.766666 0.049179 0.999001 -0.483560
C26   C     C_3   0.753526 0.082509 0.405693 0.005015
C27   C     C_3   0.822598 0.176220 0.331465 -0.253150
C28   C     C_3   0.818605 0.134750 0.238526 -0.499272
C29   C     C_3   0.263782 0.109103 0.473721 0.073448
C30   C     C_3   0.287330 0.126742 0.370367 -0.243422
C31   C     C_3   0.400834 0.222889 0.330108 -0.481212
C32   C     C_3   0.421869 0.657874 0.406684 0.067518
C33   C     C_3   0.561139 0.710169 0.343667 -0.290463
C34   C     C_R   0.513142 0.553489 0.945614 -0.043093
C35   C     C_3   0.541392 0.843296 0.319989 -0.485344
C36   C     C_3   0.660169 0.298672 0.824927 0.014027
C37   C     C_3   0.592302 0.203439 0.779393 -0.247222
C38   C     C_3   0.433718 0.230995 0.790312 -0.369451
C39   C     C_3   0.486562 0.681856 0.779462 0.025565
C40   C     C_3   0.367068 0.751748 0.753471 -0.229686
C41   C     C_3   0.410882 0.882237 0.723583 -0.487839
C42   C     C_R   0.462882 0.573819 0.039714 -0.080922
C43   C     C_R   0.556001 0.629850 0.081923 -0.104685
C44   C     C_R   0.697760 0.657678 0.033550 0.270196
C45   C     C_R   0.410044 0.541330 0.897002 0.326484
C46   C     C_R   0.268341 0.512955 0.943625 0.369381
Cu1   Cu    Cu3+1 0.138640 0.500020 0.499980 0.996350
Cu2   Cu    Cu3+1 0.861360 0.499980 0.500020 0.978249
F1    F     F_    0.774255 0.885216 0.581779 -0.686403
F2    F     F_    0.115046 0.904939 0.410827 -0.708984
F3    F     F_    0.175766 0.486656 0.895755 -0.619200
F4    F     F_    0.091694 0.619484 0.764241 -0.612690
H1    H     H_    0.003433 0.459022 0.048130 0.172684
H2    H     H_    0.626209 0.859036 0.108954 0.120353
H3    H     H_    0.918804 0.900271 0.963286 0.170692
H4    H     H_    0.749822 0.876271 0.939861 0.158196
H5    H     H_    0.648780 0.064535 0.024875 0.141118
H6    H     H_    0.806726 0.095155 0.931884 0.146391
H7    H     H_    0.820080 0.090039 0.045920 0.151779
H8    H     H_    0.636654 0.079136 0.413527 0.136116
H9    H     H_    0.795751 0.989370 0.384733 0.133399
H10   H     H_    0.764946 0.264781 0.346984 0.189664
H11   H     H_    0.936546 0.190006 0.329382 0.157396
H12   H     H_    0.329473 0.371522 0.602605 0.095624
H13   H     H_    0.883490 0.050267 0.219731 0.152392
H14   H     H_    0.864576 0.206727 0.187216 0.148056
H15   H     H_    0.706622 0.117186 0.238091 0.139437
H16   H     H_    0.340368 0.037153 0.482061 0.139870
H17   H     H_    0.297664 0.188640 0.505326 0.145995
H18   H     H_    0.323519 0.039467 0.335911 0.193433
H19   H     H_    0.188182 0.154546 0.353282 0.164019
H20   H     H_    0.361739 0.313803 0.356714 0.227519
H21   H     H_    0.424039 0.226065 0.255368 0.139228
H22   H     H_    0.501368 0.201708 0.347364 0.132924
H23   H     H_    0.599907 0.331005 0.562207 0.157186
H24   H     H_    0.394572 0.709273 0.471132 0.153579
H25   H     H_    0.336587 0.671740 0.372859 0.202067
H26   H     H_    0.648795 0.704436 0.376314 0.172247
H27   H     H_    0.595161 0.656721 0.280723 0.184048
H28   H     H_    0.464141 0.851479 0.279367 0.155421
H29   H     H_    0.646022 0.881578 0.280336 0.137162
H30   H     H_    0.501444 0.896709 0.382571 0.147902
H31   H     H_    0.602361 0.299301 0.898586 0.125830
H32   H     H_    0.774272 0.271126 0.815807 0.107008
H33   H     H_    0.651493 0.200353 0.706171 0.193945
H34   H     H_    0.609160 0.583377 0.497223 0.243830
H35   H     H_    0.601986 0.112481 0.809997 0.115534
H36   H     H_    0.372789 0.235378 0.863096 0.160353
H37   H     H_    0.387629 0.158111 0.758718 0.118659
H38   H     H_    0.421451 0.318765 0.756332 0.235150
H39   H     H_    0.582994 0.679000 0.719572 0.195478
H40   H     H_    0.517608 0.733054 0.832545 0.095653
H41   H     H_    0.341463 0.704724 0.697040 0.237317
H42   H     H_    0.269743 0.753825 0.812801 0.217283
H43   H     H_    0.440375 0.930688 0.778018 0.146610
H44   H     H_    0.319603 0.931238 0.708485 0.161850
H45   H     H_    0.344247 0.551638 0.221906 0.129654
H46   H     H_    0.503359 0.882793 0.661491 0.226244
H47   H     H_    0.923026 0.454930 0.212916 0.134748
H48   H     H_    0.971488 0.676270 0.929838 0.193594
H49   H     H_    0.518375 0.660683 0.150564 0.106172
H50   H     H_    0.794589 0.886701 0.129179 0.154124
N1    N     N_2   0.346430 0.498660 0.500980 -0.066014
N2    N     N_2   0.652550 0.498630 0.501000 -0.327560
O1    O     O_R   0.117050 0.321960 0.499980 -0.530329
O2    O     O_3   0.770917 0.118179 0.489525 -0.580936
O3    O     O_3   0.124068 0.070093 0.524917 -0.579264
O4    O     O_3   0.440659 0.532295 0.421214 -0.516189
O5    O     O_3   0.651919 0.413998 0.784778 -0.505701
O6    O     O_3   0.442748 0.560111 0.804123 -0.481606
O7    O     O_R   0.882890 0.321920 0.500020 -0.479399
O8    O     O_R   0.052910 0.500040 0.629810 -0.448891
O9    O     O_R   0.818750 0.499990 0.629840 -0.463065
O10   O     O_R   0.117110 0.678080 0.499980 -0.508401
O11   O     O_R   0.882950 0.678040 0.500020 -0.499410
O12   O     O_R   0.181250 0.500010 0.370160 -0.510947
O13   O     O_R   0.947090 0.499960 0.370190 -0.506145
O14   O     O_3   0.784479 0.720661 0.074200 -0.584102

loop_
_geom_bond_atom_site_label_1
_geom_bond_atom_site_label_2
_ccdc_geom_bond_type
Cu1   O10   S    
C3    C42   A    
C28   H14   S    
C19   C20   A    
C34   C42   A    
C40   H41   S    
H34   N2    S    
C26   O2    S    
C30   H19   S    
C35   H29   S    
C22   H2    S    
C45   C46   A    
C2    C46   A    
C24   H3    S    
C38   H37   S    
C26   C27   S    
C29   C30   S    
C5    C6    A    
C37   H33   S    
C36   C37   S    
C26   H9    S    
C3    C7    A    
C30   C31   S    
C33   H26   S    
C31   H21   S    
C41   H44   S    
C36   H31   S    
Cu1   O8    S    
Cu2   N2    S    
C35   H28   S    
C17   C20   A    
C32   H25   S    
C39   O6    S    
C8    C9    D    
Cu1   O1    S    
C1    C11   S    
N1    O4    S    
C13   N1    D    
C4    O8    A    
C13   C14   S    
C25   H5    S    
C16   O12   A    
C39   H39   S    
C30   H18   S    
C35   H30   S    
C29   H17   S    
Cu1   O12   S    
C6    C18   A    
Cu1   N1    S    
C4    O9    A    
C28   H15   S    
C24   C25   S    
C39   C40   S    
C45   O6    S    
C33   H27   S    
C31   H22   S    
C46   F3    S    
C17   C21   A    
C23   C44   A    
C38   H36   S    
C19   C23   A    
C43   C44   A    
C43   H49   S    
C37   C38   S    
C27   H10   S    
C29   H16   S    
C14   N2    D    
Cu1   Cu2   S    
C12   C23   A    
C44   O14   S    
C7    C18   A    
C15   O10   A    
C34   C45   A    
C27   H11   S    
Cu2   O11   S    
C4    C17   S    
C8    C10   S    
C40   C41   S    
C11   O3    S    
C15   O11   A    
C10   O2    S    
C2    C5    A    
C42   C43   A    
C12   C34   A    
C39   H40   S    
C36   O5    S    
C25   H6    S    
C5    H1    S    
C22   O14   S    
C31   H20   S    
C7    H45   S    
C37   H35   S    
C9    F2    S    
C40   H42   S    
C32   H24   S    
C21   O5    S    
C19   H48   S    
Cu2   O13   S    
C24   H4    S    
C38   H38   S    
C22   H50   S    
C6    H47   S    
C28   H13   S    
C9    C15   S    
C20   F4    S    
C16   O13   A    
C32   C33   S    
C41   H43   S    
C13   H12   S    
C36   H32   S    
C12   C21   A    
C33   C35   S    
C2    C3    A    
C22   C24   S    
C10   C11   D    
Cu2   O7    S    
C16   C18   S    
C32   O4    S    
C27   C28   S    
C41   H46   S    
C29   O3    S    
C25   H7    S    
C26   H8    S    
C8    F1    S    
C1    O7    A    
C14   H23   S    
C1    O1    A    
Cu2   O9    S    
