data_mof_unit_60241.cif
_audit_creation_date              2012-12-10T18:21:23-0500
_audit_creation_method            fapswitch 2.2
_symmetry_space_group_name_H-M    P1
_symmetry_Int_Tables_number       1
_space_group_crystal_system       triclinic
_cell_length_a                    23.383144
_cell_length_b                    23.384267
_cell_length_c                    43.331038
_cell_angle_alpha                 90.004358
_cell_angle_beta                  89.994515
_cell_angle_gamma                 90.004547
_cell_volume                      23693.3109112

loop_
_atom_site_label
_atom_site_type_symbol
_atom_type_description
_atom_site_fract_x
_atom_site_fract_y
_atom_site_fract_z
_atom_type_partial_charge
C1    C     C_R   0.999196 0.500166 0.869353 -0.062493
C2    C     C_R   0.019381 0.450964 0.081811 0.199181
C3    C     C_1   0.731354 0.231252 0.749875 0.011054
C4    C     C_1   0.768725 0.731277 0.250003 0.010264
C5    C     C_1   0.231297 0.268710 0.749999 0.013362
C6    C     C_1   0.731276 0.231275 0.250000 0.010083
C7    C     C_1   0.268700 0.768674 0.750006 0.009687
C8    C     C_R   0.000798 0.499802 0.934644 -0.092446
C9    C     C_R   0.001160 0.500048 0.065437 -0.094685
C10   C     C_R   0.499995 0.999996 0.934593 -0.094819
C11   C     C_R   0.500005 0.999997 0.065407 -0.094835
C12   C     C_R   0.499999 0.000004 0.434593 -0.094806
C13   C     C_R   0.450801 0.018064 0.918259 0.199344
C14   C     C_R   0.499999 0.999996 0.565407 -0.094761
C15   C     C_R   0.999999 0.500012 0.434536 -0.094533
C16   C     C_R   0.000009 0.500023 0.565301 -0.090073
C17   C     C_R   0.019437 0.548336 0.885758 0.207309
C18   C     C_R   0.023720 0.453075 0.114277 0.220617
C19   C     C_R   0.452915 0.022811 0.885809 0.220567
C20   C     C_R   0.547088 0.022813 0.114193 0.220604
C21   C     C_R   0.978647 0.452114 0.885886 0.220554
C22   C     C_R   0.977518 0.546954 0.114155 0.220580
C23   C     C_R   0.547073 0.977180 0.885803 0.220606
C24   C     C_R   0.549202 0.018067 0.081743 0.199414
C25   C     C_R   0.452924 0.977179 0.114195 0.220609
C26   C     C_R   0.522818 0.047084 0.385806 0.220620
C27   C     C_R   0.522814 0.952919 0.614191 0.220590
C28   C     C_R   0.953122 0.523245 0.385767 0.220597
C29   C     C_R   0.048972 0.518092 0.614170 0.207325
C30   C     C_R   0.477178 0.952926 0.385805 0.220624
C31   C     C_R   0.477181 0.047072 0.614197 0.220587
C32   C     C_R   0.046870 0.476760 0.385761 0.220601
C33   C     C_R   0.951045 0.481926 0.614169 0.207348
C34   C     C_3   0.098427 0.588736 0.864278 0.049245
C35   C     C_R   0.983836 0.450157 0.918331 0.199910
C36   C     C_3   0.120230 0.640767 0.846481 -0.234297
C37   C     C_3   0.183092 0.634210 0.837726 -0.478663
C38   C     C_3   0.102859 0.422025 0.141125 0.036440
C39   C     C_3   0.149100 0.406565 0.117547 -0.243576
C40   C     C_3   0.208870 0.415140 0.130899 -0.478014
C41   C     C_3   0.421329 0.102055 0.859239 0.036291
C42   C     C_3   0.405602 0.147884 0.882998 -0.243667
C43   C     C_3   0.413683 0.207878 0.869854 -0.477667
C44   C     C_3   0.578685 0.102057 0.140771 0.036396
C45   C     C_3   0.594425 0.147888 0.117018 -0.243682
C46   C     C_R   0.982625 0.549120 0.081727 0.199389
C47   C     C_3   0.586354 0.207882 0.130168 -0.478160
C48   C     C_3   0.900578 0.417404 0.859421 0.037117
C49   C     C_3   0.855465 0.400349 0.883316 -0.244140
C50   C     C_3   0.795144 0.406211 0.870264 -0.478166
C51   C     C_3   0.897779 0.578037 0.140475 0.036251
C52   C     C_3   0.852147 0.593449 0.116548 -0.243586
C53   C     C_3   0.792039 0.584863 0.129454 -0.478127
C54   C     C_3   0.578659 0.897937 0.859221 0.036353
C55   C     C_3   0.594387 0.852106 0.882974 -0.243697
C56   C     C_3   0.586307 0.792112 0.869825 -0.478023
C57   C     C_R   0.549188 0.981927 0.918252 0.199420
C58   C     C_3   0.421329 0.897935 0.140770 0.036336
C59   C     C_3   0.405596 0.852104 0.117013 -0.243621
C60   C     C_3   0.413668 0.792110 0.130157 -0.477954
C61   C     C_3   0.602066 0.078676 0.359226 0.036327
C62   C     C_3   0.647900 0.094412 0.382979 -0.243627
C63   C     C_3   0.707896 0.086340 0.369828 -0.477887
C64   C     C_3   0.602061 0.921334 0.640762 0.036206
C65   C     C_3   0.647893 0.905609 0.617003 -0.243847
C66   C     C_3   0.707890 0.913690 0.630146 -0.477176
C67   C     C_3   0.922322 0.602785 0.359188 0.036330
C68   C     C_R   0.450810 0.981926 0.081746 0.199307
C69   C     C_3   0.906977 0.648769 0.382934 -0.243484
C70   C     C_3   0.915848 0.708679 0.369826 -0.477921
C71   C     C_3   0.092147 0.595673 0.635557 0.049604
C72   C     C_3   0.144872 0.615687 0.653372 -0.233985
C73   C     C_3   0.140519 0.678777 0.662046 -0.477928
C74   C     C_3   0.397928 0.921335 0.359232 0.036323
C75   C     C_3   0.352095 0.905605 0.382990 -0.243628
C76   C     C_3   0.292098 0.913679 0.369847 -0.477882
C77   C     C_3   0.397933 0.078655 0.640779 0.036206
C78   C     C_3   0.352101 0.094379 0.617025 -0.243851
C79   C     C_R   0.518072 0.049197 0.418256 0.199357
C80   C     C_3   0.292103 0.086297 0.630174 -0.477174
C81   C     C_3   0.077664 0.397213 0.359178 0.036332
C82   C     C_3   0.093004 0.351234 0.382923 -0.243497
C83   C     C_3   0.084131 0.291321 0.369816 -0.477913
C84   C     C_3   0.907903 0.404307 0.635531 0.049645
C85   C     C_3   0.855154 0.384233 0.653309 -0.234155
C86   C     C_3   0.859529 0.321131 0.661948 -0.478165
C87   C     C_R   0.518068 0.950805 0.581742 0.199437
C88   C     C_R   0.950972 0.518535 0.418212 0.199215
C89   C     C_R   0.000393 0.499988 0.130691 -0.065264
C90   C     C_R   0.050224 0.515165 0.581637 0.198728
C91   C     C_R   0.481926 0.950812 0.418254 0.199352
C92   C     C_R   0.481928 0.049187 0.581747 0.199437
C93   C     C_R   0.049024 0.481481 0.418206 0.199219
C94   C     C_R   0.949794 0.484873 0.581638 0.198704
C95   C     C_R   0.499999 0.999997 0.531289 0.439702
C96   C     C_R   0.499999 0.000004 0.468711 0.439670
C97   C     C_R   0.000011 0.500022 0.531205 0.437883
C98   C     C_R   0.000002 0.500016 0.468639 0.439981
C99   C     C_R   0.001169 0.499966 0.031325 0.439944
C100  C     C_R   0.499994 0.999996 0.869325 -0.065386
C101  C     C_R   0.001035 0.499700 0.968752 0.438875
C102  C     C_R   0.500005 0.999997 0.031289 0.439750
C103  C     C_R   0.499996 0.999997 0.968711 0.439763
C104  C     C_R   0.000003 0.500000 0.665016 0.541848
C105  C     C_R   0.999998 0.500000 0.334944 0.529617
C106  C     C_R   0.499999 0.999998 0.665046 0.529548
C107  C     C_R   0.500000 0.000002 0.334954 0.529506
C108  C     C_R   0.500002 0.999999 0.165045 0.529510
C109  C     C_R   0.499998 0.999999 0.834955 0.529493
C110  C     C_R   0.000038 0.499995 0.165051 0.529545
C111  C     C_R   0.500006 0.999997 0.130675 -0.065367
C112  C     C_R   0.999902 0.500025 0.834971 0.535428
C113  C     C_R   0.895453 0.604548 0.750001 0.497909
C114  C     C_R   0.104544 0.395456 0.249999 0.482781
C115  C     C_R   0.395449 0.895449 0.750001 0.496364
C116  C     C_R   0.604544 0.104543 0.250000 0.482920
C117  C     C_R   0.104550 0.395455 0.749999 0.498358
C118  C     C_R   0.895455 0.604543 0.250002 0.483008
C119  C     C_R   0.604552 0.104544 0.749995 0.496373
C120  C     C_R   0.395457 0.895458 0.250000 0.482891
C121  C     C_R   0.895452 0.395453 0.250001 0.496354
C122  C     C_R   0.499998 0.000004 0.369325 -0.065340
C123  C     C_R   0.104546 0.604539 0.750001 0.484966
C124  C     C_R   0.395453 0.104548 0.250000 0.496464
C125  C     C_R   0.604543 0.895455 0.749999 0.482913
C126  C     C_R   0.104546 0.604546 0.250000 0.496278
C127  C     C_R   0.895475 0.395441 0.749980 0.483918
C128  C     C_R   0.604549 0.895454 0.249999 0.496463
C129  C     C_R   0.395454 0.104543 0.750001 0.482924
C130  C     C_1   0.149579 0.649556 0.750005 -0.025439
C131  C     C_1   0.850410 0.350412 0.250001 0.002140
C132  C     C_1   0.350419 0.149575 0.750003 -0.014140
C133  C     C_R   0.499998 0.999996 0.630675 -0.065379
C134  C     C_1   0.649594 0.850415 0.249998 0.002267
C135  C     C_1   0.850470 0.350387 0.749928 -0.020189
C136  C     C_1   0.149589 0.649587 0.250001 0.002220
C137  C     C_1   0.649576 0.850420 0.749999 -0.014178
C138  C     C_1   0.350413 0.149592 0.250001 0.002289
C139  C     C_1   0.149578 0.350422 0.249997 -0.013866
C140  C     C_1   0.850412 0.649589 0.750002 0.001673
C141  C     C_1   0.350423 0.850424 0.249999 -0.013986
C142  C     C_1   0.649623 0.149563 0.749960 0.001790
C143  C     C_1   0.850420 0.649576 0.250004 -0.013699
C144  C     C_R   0.999995 0.500001 0.369295 -0.065190
C145  C     C_1   0.149595 0.350416 0.749997 0.002832
C146  C     C_1   0.649579 0.149576 0.249999 -0.014021
C147  C     C_1   0.350404 0.850397 0.750003 0.001530
C148  C     C_1   0.187006 0.686975 0.750007 -0.044622
C149  C     C_1   0.812978 0.312980 0.250001 -0.020865
C150  C     C_1   0.312992 0.187004 0.750002 -0.030733
C151  C     C_1   0.687025 0.812983 0.249998 -0.020725
C152  C     C_1   0.813052 0.312952 0.749885 -0.038226
C153  C     C_1   0.187021 0.687020 0.250000 -0.020787
C154  C     C_1   0.687004 0.812991 0.750000 -0.030904
C155  C     C_R   0.000007 0.500006 0.630623 -0.059528
C156  C     C_1   0.312981 0.187024 0.250000 -0.020697
C157  C     C_1   0.187006 0.312995 0.249996 -0.030523
C158  C     C_1   0.812979 0.687020 0.750003 -0.021213
C159  C     C_1   0.312994 0.812995 0.249999 -0.030705
C160  C     C_1   0.687070 0.186985 0.749919 -0.021486
C161  C     C_1   0.812993 0.687005 0.250004 -0.030450
C162  C     C_1   0.187026 0.312984 0.749997 -0.020137
C163  C     C_1   0.687007 0.187005 0.249999 -0.030748
C164  C     C_1   0.312972 0.812957 0.750004 -0.021874
C165  C     C_1   0.231271 0.731240 0.750007 0.000948
C166  C     C_R   0.016886 0.549669 0.918288 0.197982
C167  C     C_1   0.768706 0.268706 0.250001 0.012858
C168  C     C_1   0.268725 0.231277 0.750001 0.010317
C169  C     C_1   0.731296 0.768709 0.250001 0.012989
C170  C     C_1   0.768788 0.268681 0.749861 0.005152
C171  C     C_1   0.231294 0.731293 0.250000 0.012928
C172  C     C_1   0.731275 0.768722 0.750001 0.009915
C173  C     C_1   0.268708 0.231296 0.249998 0.013012
C174  C     C_1   0.231277 0.268725 0.249997 0.010260
C175  C     C_1   0.768705 0.731292 0.750002 0.012683
C176  C     C_1   0.268724 0.768724 0.250000 0.010141
H1    H     H_    0.046999 0.703168 0.927256 0.371798
H2    H     H_    0.548586 0.797279 0.572812 0.371898
H3    H     H_    0.102955 0.686056 0.677248 0.150091
H4    H     H_    0.390328 0.896068 0.337903 0.168569
H5    H     H_    0.393215 0.967189 0.352605 0.096454
H6    H     H_    0.357488 0.860268 0.390099 0.226549
H7    H     H_    0.356816 0.933359 0.403625 0.201606
H8    H     H_    0.285466 0.958934 0.362918 0.156760
H9    H     H_    0.259898 0.902377 0.387667 0.177947
H10   H     H_    0.285657 0.885543 0.349481 0.155015
H11   H     H_    0.390334 0.103924 0.662108 0.168490
H12   H     H_    0.393217 0.032802 0.647407 0.096541
H13   H     H_    0.797886 0.551260 0.427241 0.372059
H14   H     H_    0.357496 0.139715 0.609914 0.226502
H15   H     H_    0.356822 0.066624 0.596390 0.201707
H16   H     H_    0.285470 0.041042 0.637104 0.157057
H17   H     H_    0.259904 0.097593 0.612356 0.178617
H18   H     H_    0.285663 0.114434 0.650539 0.155253
H19   H     H_    0.102816 0.389373 0.337834 0.168150
H20   H     H_    0.031753 0.392932 0.352577 0.096391
H21   H     H_    0.138450 0.356099 0.389942 0.226226
H22   H     H_    0.065451 0.356308 0.403613 0.201840
H23   H     H_    0.038749 0.285204 0.362985 0.156947
H24   H     H_    0.204522 0.541025 0.572569 0.371665
H25   H     H_    0.095184 0.259017 0.387622 0.177857
H26   H     H_    0.112043 0.284530 0.349392 0.154877
H27   H     H_    0.946699 0.394608 0.649529 0.110520
H28   H     H_    0.910244 0.380321 0.613339 0.170959
H29   H     H_    0.850529 0.409958 0.674724 0.202018
H30   H     H_    0.816406 0.390926 0.638894 0.202549
H31   H     H_    0.863770 0.294438 0.640866 0.169189
H32   H     H_    0.820318 0.307908 0.674524 0.164059
H33   H     H_    0.897058 0.313855 0.677172 0.150201
H34   H     H_    0.451399 0.797283 0.427170 0.372117
H35   H     H_    0.451409 0.202713 0.572835 0.371892
H36   H     H_    0.202106 0.448742 0.427211 0.372049
H37   H     H_    0.795528 0.458859 0.572619 0.371597
H38   H     H_    0.106718 0.549634 0.850263 0.110271
H39   H     H_    0.122408 0.585565 0.886439 0.171238
H40   H     H_    0.094562 0.646306 0.825114 0.201854
H41   H     H_    0.051612 0.297774 0.072896 0.372104
H42   H     H_    0.114968 0.679709 0.860919 0.202873
H43   H     H_    0.209746 0.629034 0.858759 0.168983
H44   H     H_    0.197593 0.672945 0.825133 0.164566
H45   H     H_    0.188972 0.596464 0.822481 0.149574
H46   H     H_    0.110347 0.396839 0.162492 0.168412
H47   H     H_    0.107194 0.467917 0.147753 0.096363
H48   H     H_    0.144135 0.361166 0.110460 0.226311
H49   H     H_    0.144427 0.434210 0.096869 0.201858
H50   H     H_    0.215081 0.460467 0.137808 0.156825
H51   H     H_    0.241374 0.404020 0.113207 0.177803
H52   H     H_    0.297267 0.048580 0.927190 0.372094
H53   H     H_    0.215265 0.387125 0.151315 0.154873
H54   H     H_    0.396060 0.109653 0.837912 0.168559
H55   H     H_    0.467184 0.106772 0.852606 0.096406
H56   H     H_    0.360263 0.142487 0.890112 0.226662
H57   H     H_    0.433358 0.143163 0.903630 0.201515
H58   H     H_    0.458940 0.214513 0.862921 0.156522
H59   H     H_    0.402384 0.240075 0.887676 0.178284
H60   H     H_    0.385546 0.214318 0.849491 0.155253
H61   H     H_    0.603951 0.109652 0.162100 0.168553
H62   H     H_    0.532829 0.106774 0.147401 0.096449
H63   H     H_    0.702739 0.048588 0.072814 0.372028
H64   H     H_    0.639764 0.142490 0.109905 0.226435
H65   H     H_    0.566672 0.143171 0.096384 0.201542
H66   H     H_    0.541097 0.214517 0.137099 0.156746
H67   H     H_    0.597662 0.240080 0.112351 0.177545
H68   H     H_    0.614489 0.214318 0.150533 0.154992
H69   H     H_    0.893778 0.391580 0.838208 0.169897
H70   H     H_    0.894176 0.462959 0.852613 0.096107
H71   H     H_    0.862460 0.355298 0.890545 0.226691
H72   H     H_    0.859354 0.428456 0.903864 0.200899
H73   H     H_    0.786903 0.451141 0.863224 0.156130
H74   H     H_    0.958249 0.295712 0.927330 0.371976
H75   H     H_    0.763464 0.393972 0.888175 0.177869
H76   H     H_    0.789557 0.377675 0.849987 0.155440
H77   H     H_    0.889751 0.603275 0.161769 0.168183
H78   H     H_    0.893276 0.532162 0.147101 0.096439
H79   H     H_    0.857277 0.638842 0.109488 0.226366
H80   H     H_    0.857366 0.565784 0.095913 0.201424
H81   H     H_    0.785667 0.539540 0.136325 0.156757
H82   H     H_    0.759994 0.595953 0.111518 0.177535
H83   H     H_    0.785102 0.612895 0.149814 0.155014
H84   H     H_    0.603926 0.890340 0.837891 0.168506
H85   H     H_    0.950986 0.702411 0.072704 0.372012
H86   H     H_    0.532803 0.893220 0.852594 0.096434
H87   H     H_    0.639726 0.857503 0.890083 0.226373
H88   H     H_    0.566632 0.856824 0.903610 0.201634
H89   H     H_    0.541050 0.785477 0.862896 0.156877
H90   H     H_    0.597607 0.759914 0.887641 0.177761
H91   H     H_    0.614444 0.785675 0.849458 0.154846
H92   H     H_    0.396061 0.890337 0.162100 0.168579
H93   H     H_    0.467185 0.893220 0.147397 0.096421
H94   H     H_    0.360257 0.857498 0.109904 0.226580
H95   H     H_    0.433351 0.856823 0.096378 0.201546
H96   H     H_    0.702721 0.951409 0.927163 0.371940
H97   H     H_    0.458925 0.785477 0.137085 0.156659
H98   H     H_    0.402365 0.759912 0.112338 0.177890
H99   H     H_    0.385531 0.785671 0.150523 0.155052
H100  H     H_    0.609662 0.103940 0.337897 0.168570
H101  H     H_    0.606781 0.032822 0.352597 0.096454
H102  H     H_    0.642504 0.139749 0.390091 0.226547
H103  H     H_    0.643181 0.066660 0.403613 0.201611
H104  H     H_    0.714530 0.041085 0.362897 0.156757
H105  H     H_    0.740096 0.097646 0.387645 0.177944
H106  H     H_    0.714334 0.114473 0.349463 0.155015
H107  H     H_    0.297272 0.951406 0.072832 0.372165
H108  H     H_    0.609660 0.896067 0.662089 0.168495
H109  H     H_    0.606778 0.967188 0.647393 0.096535
H110  H     H_    0.642497 0.860272 0.609889 0.226506
H111  H     H_    0.643173 0.933364 0.596370 0.201707
H112  H     H_    0.714525 0.958945 0.637078 0.157071
H113  H     H_    0.740089 0.902392 0.612324 0.178608
H114  H     H_    0.714331 0.885554 0.650509 0.155252
H115  H     H_    0.897172 0.610617 0.337846 0.168129
H116  H     H_    0.968234 0.607067 0.352583 0.096383
H117  H     H_    0.861531 0.643903 0.389957 0.226234
H118  H     H_    0.548597 0.202726 0.427183 0.372114
H119  H     H_    0.934528 0.643702 0.403623 0.201846
H120  H     H_    0.961230 0.714797 0.362993 0.156943
H121  H     H_    0.904791 0.740988 0.387633 0.177860
H122  H     H_    0.887938 0.715463 0.349405 0.154868
H123  H     H_    0.053328 0.605382 0.649540 0.110464
H124  H     H_    0.089870 0.619685 0.613374 0.171036
H125  H     H_    0.149438 0.589925 0.674774 0.202278
H126  H     H_    0.183645 0.608993 0.638973 0.202580
H127  H     H_    0.136354 0.705508 0.640976 0.168993
H128  H     H_    0.179705 0.691952 0.674656 0.164706
N1    N     N_R   0.051083 0.500834 0.984621 -0.121050
N2    N     N_R   0.449989 0.000032 0.515379 -0.125656
N3    N     N_R   0.998267 0.450035 0.484544 -0.125930
N4    N     N_R   0.001835 0.550002 0.515298 -0.124339
N5    N     N_R   0.449989 0.999964 0.484625 -0.125709
N6    N     N_R   0.550009 0.999966 0.515374 -0.125663
N7    N     N_R   0.001741 0.550000 0.484545 -0.125938
N8    N     N_R   0.998181 0.450038 0.515297 -0.124340
N9    N     N_R   0.951141 0.498928 0.015452 -0.127072
N10   N     N_R   0.500030 0.949989 0.984621 -0.125708
N11   N     N_R   0.500041 0.050005 0.015379 -0.125836
N12   N     N_R   0.951078 0.498735 0.984703 -0.129269
N13   N     N_R   0.051147 0.500865 0.015380 -0.124852
N14   N     N_R   0.499966 0.050005 0.984625 -0.125903
N15   N     N_R   0.499964 0.949989 0.015375 -0.125811
N16   N     N_R   0.550009 0.000040 0.484620 -0.125711
O1    O     O_3   0.000000 0.500000 0.750000 -0.410484
O2    O     O_R   0.044070 0.500000 0.319300 -0.505151
O3    O     O_3   0.827850 0.474063 0.584905 -0.464035
O4    O     O_3   0.039267 0.595567 0.869804 -0.479950
O5    O     O_3   0.047730 0.407324 0.129965 -0.474853
O6    O     O_3   0.407007 0.046690 0.870196 -0.474939
O7    O     O_3   0.592999 0.046693 0.129808 -0.474867
O8    O     O_3   0.956499 0.405273 0.870330 -0.474839
O9    O     O_3   0.953191 0.592698 0.129712 -0.474775
O10   O     O_3   0.592981 0.953300 0.870182 -0.474893
O11   O     O_3   0.407013 0.953298 0.129813 -0.474839
O12   O     O_3   0.546700 0.092992 0.370190 -0.474853
O13   O     O_R   0.500000 0.955930 0.680700 -0.505276
O14   O     O_3   0.546695 0.907013 0.629805 -0.475042
O15   O     O_3   0.907456 0.547562 0.370143 -0.474770
O16   O     O_3   0.096908 0.536295 0.630073 -0.480054
O17   O     O_3   0.453294 0.907018 0.370188 -0.474846
O18   O     O_3   0.453299 0.092978 0.629817 -0.475046
O19   O     O_3   0.092533 0.452438 0.370132 -0.474764
O20   O     O_3   0.903117 0.463689 0.630072 -0.480034
O21   O     O_R   0.500000 0.044070 0.319300 -0.505225
O22   O     O_R   0.544070 0.000000 0.180700 -0.505248
O23   O     O_R   0.455930 0.000000 0.819300 -0.505300
O24   O     O_R   0.000000 0.544070 0.180700 -0.505090
O25   O     O_R   0.000000 0.455930 0.819300 -0.506025
O26   O     O_R   0.455930 0.000000 0.180700 -0.505188
O27   O     O_R   0.544070 0.000000 0.819300 -0.505217
O28   O     O_R   0.000000 0.455930 0.180700 -0.505291
O29   O     O_3   0.000000 0.500000 0.250000 -0.413583
O30   O     O_R   0.000000 0.544070 0.819300 -0.500984
O31   O     O_R   0.893970 0.561970 0.731850 -0.521144
O32   O     O_R   0.106030 0.438030 0.268150 -0.527805
O33   O     O_R   0.438030 0.893970 0.731850 -0.520557
O34   O     O_R   0.561970 0.106030 0.268150 -0.528130
O35   O     O_R   0.106030 0.438030 0.731850 -0.521665
O36   O     O_R   0.893970 0.561970 0.268150 -0.527882
O37   O     O_R   0.561970 0.106030 0.731850 -0.520702
O38   O     O_R   0.438030 0.893970 0.268150 -0.528144
O39   O     O_R   0.893970 0.438030 0.268150 -0.520394
O40   O     O_3   0.500000 0.000000 0.750000 -0.413278
O41   O     O_R   0.106030 0.561970 0.731850 -0.535818
O42   O     O_R   0.438030 0.106030 0.268150 -0.520311
O43   O     O_R   0.561970 0.893970 0.731850 -0.528310
O44   O     O_R   0.106030 0.561970 0.268150 -0.520442
O45   O     O_R   0.893970 0.438030 0.731850 -0.538156
O46   O     O_R   0.561970 0.893970 0.268150 -0.520277
O47   O     O_R   0.438030 0.106030 0.731850 -0.528287
O48   O     O_R   0.393970 0.061970 0.231850 -0.520290
O49   O     O_R   0.606030 0.938030 0.768150 -0.528066
O50   O     O_R   0.938030 0.393970 0.231850 -0.520383
O51   O     O_3   0.500000 0.000000 0.250000 -0.413471
O52   O     O_R   0.061970 0.606030 0.768150 -0.534336
O53   O     O_R   0.606030 0.938030 0.231850 -0.520337
O54   O     O_R   0.393970 0.061970 0.768150 -0.528095
O55   O     O_R   0.061970 0.606030 0.231850 -0.520383
O56   O     O_R   0.938030 0.393970 0.768150 -0.526741
O57   O     O_R   0.393970 0.938030 0.768150 -0.520352
O58   O     O_R   0.606030 0.061970 0.231850 -0.528154
O59   O     O_R   0.938030 0.606030 0.768150 -0.521429
O60   O     O_R   0.061970 0.393970 0.231850 -0.528144
O61   O     O_R   0.606030 0.061970 0.768150 -0.520137
O62   O     O_R   0.044070 0.500000 0.680700 -0.501538
O63   O     O_R   0.393970 0.938030 0.231850 -0.528143
O64   O     O_R   0.061970 0.393970 0.768150 -0.518889
O65   O     O_R   0.938030 0.606030 0.231850 -0.527840
O66   O     O_2   0.994351 0.622790 0.964881 -0.202520
O67   O     O_2   0.094636 0.608487 0.950534 -0.263821
O68   O     O_3   0.030943 0.671226 0.914995 -0.463740
O69   O     O_2   0.991559 0.375619 0.037368 -0.203951
O70   O     O_2   0.093365 0.392831 0.046460 -0.271983
O71   O     O_3   0.037641 0.329958 0.085703 -0.460322
O72   O     O_2   0.375739 0.989255 0.962661 -0.204085
O73   O     O_R   0.955930 0.500000 0.319300 -0.505201
O74   O     O_2   0.391855 0.091279 0.953697 -0.272777
O75   O     O_3   0.329625 0.035053 0.914369 -0.460246
O76   O     O_2   0.624260 0.989262 0.037338 -0.204258
O77   O     O_2   0.608156 0.091285 0.046310 -0.273109
O78   O     O_3   0.670380 0.035061 0.085634 -0.460093
O79   O     O_2   0.015532 0.376003 0.962615 -0.203422
O80   O     O_2   0.912951 0.388887 0.953993 -0.272905
O81   O     O_3   0.970669 0.328461 0.914474 -0.460097
O82   O     O_2   0.011752 0.624492 0.037585 -0.203831
O83   O     O_2   0.909664 0.607506 0.045882 -0.273225
O84   O     O_R   0.500000 0.044070 0.680700 -0.505261
O85   O     O_3   0.964489 0.670148 0.085597 -0.460188
O86   O     O_2   0.624251 0.010733 0.962649 -0.204319
O87   O     O_2   0.608134 0.908710 0.953677 -0.273009
O88   O     O_3   0.670364 0.964937 0.914347 -0.460252
O89   O     O_2   0.375751 0.010731 0.037352 -0.204111
O90   O     O_2   0.391854 0.908709 0.046315 -0.272711
O91   O     O_3   0.329632 0.964934 0.085650 -0.459979
O92   O     O_2   0.489268 0.124253 0.462660 -0.204170
O93   O     O_2   0.591296 0.108147 0.453686 -0.272686
O94   O     O_3   0.535070 0.170369 0.414363 -0.460024
O95   O     O_R   0.500000 0.955930 0.319300 -0.505195
O96   O     O_2   0.489258 0.875747 0.537340 -0.204175
O97   O     O_2   0.591287 0.891862 0.546303 -0.272677
O98   O     O_3   0.535058 0.829635 0.585633 -0.460563
O99   O     O_2   0.875412 0.490138 0.462406 -0.203652
O100  O     O_2   0.893118 0.592056 0.453975 -0.272002
O101  O     O_3   0.830047 0.537489 0.414352 -0.460481
O102  O     O_2   0.122781 0.489962 0.535169 -0.201829
O103  O     O_2   0.111158 0.590797 0.549070 -0.263588
O104  O     O_3   0.172169 0.525990 0.584894 -0.464087
O105  O     O_2   0.510730 0.875756 0.462649 -0.204168
O106  O     O_R   0.955930 0.500000 0.680700 -0.501331
O107  O     O_2   0.408702 0.891861 0.453687 -0.272682
O108  O     O_3   0.464928 0.829640 0.414352 -0.460018
O109  O     O_2   0.510737 0.124246 0.537350 -0.204184
O110  O     O_2   0.408709 0.108131 0.546322 -0.272674
O111  O     O_3   0.464939 0.170357 0.585652 -0.460580
O112  O     O_2   0.124589 0.509886 0.462391 -0.203649
O113  O     O_2   0.106882 0.407966 0.453959 -0.272022
O114  O     O_3   0.169949 0.462527 0.414329 -0.460469
O115  O     O_2   0.877241 0.510075 0.535176 -0.201659
O116  O     O_2   0.888856 0.409242 0.549073 -0.263752
S1    S     S_3+6 0.034722 0.613840 0.938317 0.071176
S2    S     S_3+6 0.533926 0.886182 0.561647 0.066329
S3    S     S_3+6 0.886556 0.535067 0.438336 0.066586
S4    S     S_3+6 0.114896 0.530952 0.561554 0.071709
S5    S     S_3+6 0.466063 0.886187 0.438343 0.066485
S6    S     S_3+6 0.466070 0.113810 0.561661 0.066320
S7    S     S_3+6 0.113442 0.464953 0.438321 0.066586
S8    S     S_3+6 0.885123 0.469091 0.561559 0.071738
S9    S     S_3+6 0.036006 0.386516 0.061733 0.066618
S10   S     S_3+6 0.386175 0.033921 0.938354 0.066432
S11   S     S_3+6 0.613830 0.033927 0.061649 0.066283
S12   S     S_3+6 0.970286 0.385030 0.938457 0.066931
S13   S     S_3+6 0.966629 0.613649 0.061594 0.066266
S14   S     S_3+6 0.613815 0.966069 0.938338 0.066234
S15   S     S_3+6 0.386181 0.966067 0.061659 0.066519
S16   S     S_3+6 0.533935 0.113822 0.438349 0.066480
Zn1   Zn    Zn3+2 1.000000 0.562910 0.775990 0.962643
Zn2   Zn    Zn3+2 0.500000 0.937090 0.724010 0.965975
Zn3   Zn    Zn3+2 0.937090 0.500000 0.275990 0.966540
Zn4   Zn    Zn3+2 0.062910 0.500000 0.724010 0.963000
Zn5   Zn    Zn3+2 0.500000 0.937090 0.275990 0.966404
Zn6   Zn    Zn3+2 0.500000 0.062910 0.724010 0.965933
Zn7   Zn    Zn3+2 0.062910 0.500000 0.275990 0.966452
Zn8   Zn    Zn3+2 0.937090 0.500000 0.724010 0.961891
Zn9   Zn    Zn3+2 0.000000 0.437090 0.224010 0.966294
Zn10  Zn    Zn3+2 0.437090 0.000000 0.775990 0.966217
Zn11  Zn    Zn3+2 0.562910 0.000000 0.224010 0.966367
Zn12  Zn    Zn3+2 0.000000 0.437090 0.775990 0.969256
Zn13  Zn    Zn3+2 0.000000 0.562910 0.224010 0.966499
Zn14  Zn    Zn3+2 0.562910 0.000000 0.775990 0.966406
Zn15  Zn    Zn3+2 0.437090 0.000000 0.224010 0.966407
Zn16  Zn    Zn3+2 0.500000 0.062910 0.275990 0.966403

loop_
_geom_bond_atom_site_label_1
_geom_bond_atom_site_label_2
_ccdc_geom_bond_type
C60   H99   S    
O51   Zn11  S    
C54   H84   S    
C12   C91   A    
C108  O26   A    
C74   H5    S    
C103  N10   A    
O32   Zn7   S    
C119  O61   A    
O92   S16   D    
C82   H22   S    
C43   H60   S    
C83   H26   S    
C63   H104  S    
O25   Zn12  S    
C23   O10   S    
C67   H115  S    
C132  C150  T    
C104  O106  A    
C56   H91   S    
O71   S9    S    
C17   O4    S    
C48   H70   S    
O116  S8    D    
C64   O14   S    
C106  C133  S    
C41   H55   S    
O104  S4    S    
O79   S12   D    
C28   C144  A    
N4    N7    A    
C96   N5    A    
C29   C155  A    
C84   H28   S    
C126  C136  S    
C9    C46   A    
C148  C165  S    
C80   H16   S    
O96   S2    D    
C45   C47   S    
H107  O91   S    
C33   O20   S    
C156  C173  S    
O55   Zn13  S    
C105  O73   A    
C51   C52   S    
C102  N15   A    
C60   H97   S    
C113  O31   A    
O72   S10   D    
C8    C35   A    
O40   Zn6   S    
C38   H47   S    
C75   C76   S    
C95   N6    A    
C20   C111  A    
C152  C170  S    
C2    S9    S    
O42   Zn16  S    
C73   H128  S    
C20   O7    S    
C31   O18   S    
C116  O58   A    
C21   C35   A    
O2    Zn7   S    
C70   H120  S    
C105  O2    A    
C39   H48   S    
C131  C149  T    
C14   C95   S    
C50   H76   S    
O3    S8    S    
C44   O7    S    
C97   N4    A    
C53   H82   S    
O29   Zn3   S    
C98   N3    A    
C18   C89   A    
O33   Zn2   S    
C78   H15   S    
C72   C73   S    
O53   Zn11  S    
C43   H58   S    
C44   H62   S    
C86   H31   S    
C26   O12   S    
O98   S2    S    
C109  O27   A    
C16   C94   A    
C108  C111  S    
C65   H111  S    
C34   H39   S    
C66   H112  S    
C91   S5    S    
O105  S5    D    
C64   C65   S    
C136  C153  T    
O67   S1    D    
C166  S1    S    
O78   S11   S    
C22   C89   A    
C58   O11   S    
C40   H50   S    
C69   C70   S    
C71   H123  S    
C32   C144  A    
C49   H72   S    
O91   S15   S    
C37   H45   S    
C6    C163  S    
C139  C157  T    
C4    C161  S    
C37   H44   S    
C123  O41   A    
C51   H78   S    
C143  C161  T    
C4    C169  T    
C59   C60   S    
C84   O20   S    
O93   S16   D    
C113  O59   A    
C86   H33   S    
O29   Zn9   S    
C33   C94   A    
C96   N16   A    
C85   H29   S    
O1    Zn12  S    
C85   C86   S    
C60   H98   S    
O51   Zn16  S    
O46   Zn5   S    
C93   S7    S    
C123  O52   A    
C52   H79   S    
C90   S4    S    
O49   Zn14  S    
C128  C134  S    
O37   Zn6   S    
C1    C112  S    
C47   H68   S    
H1    O68   S    
H34   O108  S    
O95   Zn5   S    
C101  N1    A    
C134  C151  T    
C135  C152  T    
H85   O85   S    
N3    N8    A    
C120  O38   A    
O97   S2    D    
C99   N13   A    
O86   S14   D    
C140  C158  T    
C141  C159  T    
C51   O9    S    
C116  O34   A    
C121  O39   A    
C56   H90   S    
O106  Zn8   S    
C157  C174  S    
C30   O17   S    
C23   C100  A    
C103  N14   A    
H36   O114  S    
O74   S10   D    
O57   Zn10  S    
O27   Zn14  S    
O47   Zn6   S    
C24   S11   S    
O41   Zn4   S    
O109  S6    D    
O107  S5    D    
C154  C172  S    
C55   H88   S    
C30   C122  A    
C118  C143  S    
C39   C40   S    
C19   O6    S    
O115  S8    D    
O31   Zn8   S    
C89   C110  S    
C41   O6    S    
C125  O49   A    
C35   S12   S    
C72   H126  S    
C81   H19   S    
C110  O28   A    
C64   H108  S    
O39   Zn3   S    
C27   C87   A    
O63   Zn15  S    
C159  C176  S    
C123  C130  S    
O29   Zn13  S    
C62   H103  S    
C119  O37   A    
O65   Zn13  S    
O21   Zn16  S    
C106  O84   A    
C52   C53   S    
N10   N15   A    
C23   C57   A    
C54   C55   S    
N11   N14   A    
C127  O56   A    
C61   H101  S    
C12   C96   S    
C120  C141  S    
O43   Zn2   S    
O61   Zn14  S    
C33   C155  A    
H35   O111  S    
O64   Zn12  S    
C171  C176  T    
C57   S14   S    
C1    C17   A    
C151  C169  S    
O88   S14   S    
C114  O60   A    
C71   C72   S    
C43   H59   S    
O110  S6    D    
O111  S6    S    
C116  C146  S    
O52   Zn1   S    
C128  O53   A    
O51   Zn5   S    
C71   O16   S    
C61   H100  S    
C147  C164  T    
O83   S13   D    
C34   C36   S    
C104  C155  S    
C61   C62   S    
C25   C111  A    
O36   Zn3   S    
C158  C175  S    
C100  C109  S    
C67   O15   S    
C41   H54   S    
C97   N8    A    
C49   C50   S    
C34   O4    S    
C98   N7    A    
C77   H12   S    
C117  O35   A    
C88   S3    S    
H63   O78   S    
C40   H53   S    
C2    C9    A    
C79   S16   S    
C63   H106  S    
C15   C88   A    
C109  O23   A    
C42   H56   S    
C64   H109  S    
C55   C56   S    
C16   C90   A    
C41   C42   S    
C149  C167  S    
O40   Zn14  S    
C124  O42   A    
C105  C144  S    
O69   S9    D    
C77   C78   S    
C11   C68   A    
C80   H17   S    
H24   O104  S    
O112  S7    D    
O87   S14   D    
C124  C138  S    
C10   C103  S    
O54   Zn10  S    
C127  C135  S    
O26   Zn15  S    
C42   H57   S    
C12   C79   A    
C115  C147  S    
C46   S13   S    
C117  C145  S    
C5    C168  T    
O73   Zn3   S    
C66   H113  S    
O77   S11   D    
O35   Zn4   S    
C73   H127  S    
C107  O95   A    
C8    C101  S    
C31   C133  A    
C129  C132  S    
C106  O13   A    
C7    C165  T    
C118  O65   A    
C25   C68   A    
O40   Zn2   S    
C77   O18   S    
C29   C90   A    
C129  O54   A    
C68   S15   S    
C117  O64   A    
N2    N5    A    
C53   H81   S    
C13   C19   A    
O99   S3    D    
O101  S3    S    
O48   Zn15  S    
C99   N9    A    
O102  S4    D    
C84   C85   S    
C82   H21   S    
C34   H38   S    
C86   H32   S    
C22   O9    S    
C125  C137  S    
C58   C59   S    
C67   H116  S    
C10   C13   A    
C59   H94   S    
C65   H110  S    
O56   Zn12  S    
C112  O25   A    
C62   C63   S    
O68   S1    S    
C47   H66   S    
C101  N12   A    
C102  N11   A    
C87   S2    S    
C120  O63   A    
C104  O62   A    
C49   H71   S    
O90   S15   D    
C84   H27   S    
C48   C49   S    
C22   C46   A    
C94   S8    S    
O81   S12   S    
C121  O50   A    
C69   H117  S    
C42   C43   S    
C37   H43   S    
C15   C98   S    
C36   H42   S    
C51   H77   S    
C44   C45   S    
O62   Zn4   S    
C36   C37   S    
C118  O36   A    
C54   O10   S    
O58   Zn11  S    
O59   Zn1   S    
O22   Zn11  S    
C15   C93   A    
C110  O24   A    
C19   C100  A    
C3    C170  T    
C125  O43   A    
H2    O98   S    
C7    C164  S    
C26   C79   A    
O50   Zn9   S    
O51   Zn15  S    
C17   C166  A    
C5    C162  S    
C38   H46   S    
C18   O5    S    
C52   H80   S    
C38   O5    S    
C47   H67   S    
C38   C39   S    
N6    N16   A    
C107  C122  S    
C137  C154  T    
C115  O33   A    
C11   C102  S    
C78   C80   S    
C61   O12   S    
O29   Zn7   S    
C39   H49   S    
C21   O8    S    
C128  O46   A    
C82   C83   S    
C58   H92   S    
C119  C142  S    
H37   O3    S    
C26   C122  A    
C112  O30   A    
H41   O71   S    
C36   H40   S    
C50   H75   S    
C1    C21   A    
C53   H83   S    
O60   Zn9   S    
C2    C18   A    
C78   H14   S    
C83   H25   S    
O75   S10   S    
C75   H7    S    
C44   H61   S    
C81   C82   S    
O84   Zn6   S    
C173  C174  T    
C129  O47   A    
C58   H93   S    
C48   H69   S    
C55   H87   S    
O70   S9    D    
O38   Zn5   S    
C14   C87   A    
O44   Zn7   S    
C16   C97   S    
C145  C162  T    
C74   O17   S    
C11   C24   A    
C32   O19   S    
C71   H124  S    
O28   Zn9   S    
O85   S13   S    
C70   H121  S    
O103  S4    D    
C28   C88   A    
C69   H119  S    
H52   O75   S    
O40   Zn10  S    
O13   Zn2   S    
C95   N2    A    
C107  O21   A    
C114  O32   A    
C150  C168  S    
C9    C99   S    
C29   O16   S    
C121  C131  S    
C85   H30   S    
C127  O45   A    
N1    N13   A    
C74   C75   S    
C130  C148  T    
C54   H86   S    
C20   C24   A    
C10   C57   A    
H118  O94   S    
H96   O88   S    
N9    N12   A    
O80   S12   D    
O34   Zn16  S    
O94   S16   S    
C67   C69   S    
O23   Zn10  S    
C115  O57   A    
O1    Zn4   S    
C126  O44   A    
O89   S15   D    
O108  S5    S    
C27   O14   S    
C153  C171  S    
C70   H122  S    
C113  C140  S    
C59   H95   S    
C114  C139  S    
O82   S13   D    
C56   H89   S    
C14   C92   A    
C50   H73   S    
C8    C166  A    
O114  S7    S    
C65   C66   S    
H13   O101  S    
O24   Zn13  S    
C3    C160  S    
C77   H11   S    
O1    Zn1   S    
H74   O81   S    
C83   H23   S    
C45   H65   S    
C76   H10   S    
C63   H105  S    
C172  C175  T    
C138  C156  T    
C28   O15   S    
C6    C167  T    
O45   Zn8   S    
C108  O22   A    
C142  C160  T    
C30   C91   A    
O66   S1    D    
C80   H18   S    
C146  C163  T    
O113  S7    D    
O30   Zn1   S    
C40   H51   S    
C45   H64   S    
O100  S3    D    
C72   H125  S    
C81   H20   S    
C75   H6    S    
O1    Zn8   S    
C48   O8    S    
C81   O19   S    
C32   C93   A    
C92   S6    S    
C124  O48   A    
C76   H9    S    
C73   H3    S    
C74   H4    S    
C66   H114  S    
C31   C92   A    
C27   C133  A    
O76   S11   D    
C62   H102  S    
C126  O55   A    
C76   H8    S    
C13   S10   S    
C25   O11   S    
