data_mof_unit_41593.cif
_audit_creation_date              2012-12-11T15:31:56-0500
_audit_creation_method            fapswitch 2.2
_symmetry_space_group_name_H-M    P1
_symmetry_Int_Tables_number       1
_space_group_crystal_system       triclinic
_cell_length_a                    13.552899
_cell_length_b                    13.577411
_cell_length_c                    27.603933
_cell_angle_alpha                 90.501077
_cell_angle_beta                  90.11573
_cell_angle_gamma                 119.971626
_cell_volume                      4399.93684618

loop_
_atom_site_label
_atom_site_type_symbol
_atom_type_description
_atom_site_fract_x
_atom_site_fract_y
_atom_site_fract_z
_atom_type_partial_charge
C1    C     C_R   0.619554 0.898297 0.431274 0.546225
C2    C     C_R   0.620947 0.377615 0.217656 -0.131798
C3    C     C_R   0.613837 0.366208 0.267836 -0.101677
C4    C     C_R   0.671056 0.319023 0.291668 0.010421
C5    C     C_R   0.684516 0.341223 0.190531 0.016216
C6    C     C_1   0.693028 0.362697 0.139196 0.012499
C7    C     C_1   0.653678 0.295976 0.342633 -0.051877
C8    C     C_1   0.701050 0.389440 0.097255 0.030776
C9    C     C_1   0.231469 0.861953 0.382983 0.028248
C10   C     C_R   0.164362 0.924818 0.264823 0.055314
C11   C     C_R   0.151557 0.917009 0.214057 -0.110693
C12   C     C_R   0.600079 0.219037 0.431445 0.543350
C13   C     C_R   0.172123 0.750126 0.212160 -0.108990
C14   C     C_R   0.186941 0.756236 0.262510 -0.022946
C15   C     C_R   0.182248 0.843328 0.289300 0.003670
C16   C     C_R   0.155381 0.830368 0.188001 -0.005018
C17   C     C_1   0.130359 0.816136 0.136941 -0.043688
C18   C     C_1   0.204148 0.852344 0.340900 0.010340
C19   C     C_1   0.100289 0.796345 0.095192 0.000246
C20   C     C_1   0.634148 0.866712 0.383341 -0.017955
C21   C     C_R   0.616605 0.727774 0.269564 -0.102295
C22   C     C_R   0.621077 0.715549 0.219369 -0.098489
C23   C     C_R   0.279022 0.878553 0.430697 0.540614
C24   C     C_R   0.684631 0.915790 0.209340 -0.086096
C25   C     C_R   0.680264 0.928034 0.259473 -0.087378
C26   C     C_R   0.647368 0.834374 0.289718 0.032516
C27   C     C_R   0.655489 0.809646 0.189189 0.032268
C28   C     C_1   0.671089 0.799158 0.138282 -0.047780
C29   C     C_1   0.641642 0.848434 0.341124 -0.065887
C30   C     C_1   0.690679 0.788368 0.096629 -0.001549
C31   C     C_R   0.645385 0.287859 0.613668 0.021874
C32   C     C_R   0.733446 0.282783 0.638162 -0.129088
C33   C     C_R   0.749628 0.306291 0.687315 -0.122773
C34   C     C_R   0.620115 0.901694 0.569292 0.534612
C35   C     C_R   0.682247 0.341552 0.712289 0.041580
C36   C     C_R   0.606488 0.363607 0.685938 -0.119478
C37   C     C_R   0.586578 0.334893 0.636982 -0.132535
C38   C     C_R   0.582354 0.314555 0.790927 -0.128904
C39   C     C_R   0.582469 0.322318 0.841408 -0.031528
C40   C     C_R   0.780697 0.366456 0.842235 0.035396
C41   C     C_R   0.781014 0.367477 0.791823 -0.133873
C42   C     C_R   0.683150 0.344929 0.765726 -0.009396
C43   C     C_R   0.686232 0.360672 0.867053 -0.011511
C44   C     C_R   0.225003 0.864972 0.615692 0.012761
C45   C     C_R   0.602609 0.224519 0.568169 0.534362
C46   C     C_R   0.260950 0.962470 0.645018 -0.139913
C47   C     C_R   0.238580 0.952623 0.694166 -0.127128
C48   C     C_R   0.180167 0.845271 0.714892 0.020401
C49   C     C_R   0.136669 0.747340 0.685746 -0.114714
C50   C     C_R   0.156633 0.755655 0.635742 -0.012752
C51   C     C_R   0.196730 0.771350 0.794426 -0.114927
C52   C     C_R   0.173192 0.755441 0.844101 0.062449
C53   C     C_R   0.082450 0.871514 0.838008 -0.150904
C54   C     C_R   0.109987 0.889617 0.789449 -0.128024
C55   C     C_R   0.162253 0.835368 0.767082 0.001503
C56   C     C_R   0.279015 0.881324 0.568162 0.533741
C57   C     C_R   0.107469 0.799324 0.865184 0.003970
C58   C     C_R   0.628961 0.878752 0.619880 0.038432
C59   C     C_R   0.607515 0.772145 0.635465 -0.130074
C60   C     C_R   0.604859 0.751164 0.685051 -0.113520
C61   C     C_R   0.619669 0.835532 0.719088 0.031914
C62   C     C_R   0.635381 0.939876 0.702790 -0.123620
C63   C     C_R   0.641667 0.961722 0.653718 -0.116687
C64   C     C_R   0.711326 0.911292 0.799077 -0.117870
C65   C     C_R   0.732476 0.895212 0.846583 -0.119237
C66   C     C_R   0.585490 0.696785 0.840600 -0.110329
C67   C     C_1   0.633027 0.267454 0.384281 -0.010271
C68   C     C_R   0.563352 0.713277 0.792882 -0.105718
C69   C     C_R   0.629141 0.819815 0.771247 0.032247
C70   C     C_R   0.673508 0.786846 0.867023 0.022320
C71   C     C_R   0.050028 0.761586 0.048001 0.550706
C72   C     C_R   0.714172 0.435497 0.049671 0.543884
C73   C     C_R   0.723183 0.770989 0.049385 0.550444
C74   C     C_R   0.046725 0.757432 0.911184 0.570560
C75   C     C_R   0.706746 0.425202 0.913074 0.545409
C76   C     C_R   0.716698 0.765594 0.912071 0.543010
C77   C     C_R   0.735786 0.283305 0.265144 -0.124973
C78   C     C_R   0.743639 0.293623 0.214306 0.062585
Cr1   Cr    Cr6+3 0.417720 0.831920 0.499820 1.031636
Cr2   Cr    Cr6+3 0.668190 0.085770 0.500360 1.011126
Cr3   Cr    Cr6+3 0.414060 0.082260 0.499840 1.028266
Cr4   Cr    Cr6+3 0.908000 0.821090 0.979770 1.025467
Cr5   Cr    Cr6+3 0.912420 0.571130 0.979880 1.105875
Cr6   Cr    Cr6+3 0.657970 0.566940 0.980940 1.037883
H1    H     H_    0.777894 0.244848 0.284183 0.139548
H2    H     H_    0.599578 0.633299 0.204171 0.109982
H3    H     H_    0.712441 0.989254 0.186419 0.152627
H4    H     H_    0.703182 0.010672 0.274682 0.128111
H5    H     H_    0.782156 0.249200 0.620723 0.127524
H6    H     H_    0.502840 0.284102 0.771330 0.106972
H7    H     H_    0.808587 0.287564 0.705830 0.099705
H8    H     H_    0.858118 0.385129 0.773155 0.146846
H9    H     H_    0.557428 0.396317 0.703700 0.097162
H10   H     H_    0.520326 0.342478 0.618337 0.122964
H11   H     H_    0.313267 0.047079 0.630691 0.140459
H12   H     H_    0.243186 0.735257 0.776907 0.146504
H13   H     H_    0.271188 0.028850 0.716421 0.113390
H14   H     H_    0.084772 0.940910 0.768681 0.119362
H15   H     H_    0.034304 0.908210 0.853269 0.143107
H16   H     H_    0.085658 0.664702 0.702098 0.117652
H17   H     H_    0.593938 0.706264 0.609457 0.104976
H18   H     H_    0.576612 0.415327 0.199851 0.116776
H19   H     H_    0.764524 0.994163 0.783409 0.108953
H20   H     H_    0.800264 0.966370 0.866236 0.142114
H21   H     H_    0.593613 0.670244 0.696666 0.103370
H22   H     H_    0.497831 0.642019 0.772456 0.109682
H23   H     H_    0.538438 0.612375 0.855711 0.136399
H24   H     H_    0.643277 0.005082 0.727985 0.112226
H25   H     H_    0.652268 0.042330 0.642026 0.123569
H26   H     H_    0.562412 0.392805 0.287965 0.123534
H27   H     H_    0.135705 0.976943 0.194698 0.159126
H28   H     H_    0.173583 0.682292 0.191689 0.132392
H29   H     H_    0.589972 0.654613 0.292568 0.107182
O1    O     O_R   0.302900 0.805360 0.446400 -0.512524
O2    O     O_R   0.657980 0.180990 0.549630 -0.513256
O3    O     O_R   0.503420 0.197810 0.553190 -0.521287
O4    O     O_R   0.320350 0.978840 0.548910 -0.507823
O5    O     O_3   0.499990 0.999990 0.500010 -0.246546
O6    O     O_R   0.819150 0.845650 0.033320 -0.499194
O7    O     O_R   0.006060 0.815720 0.028680 -0.498090
O8    O     O_R   0.028100 0.664460 0.032550 -0.492505
O9    O     O_R   0.811290 0.477490 0.029660 -0.480068
O10   O     O_R   0.638120 0.455970 0.034270 -0.513522
O11   O     O_R   0.667540 0.672320 0.030160 -0.494795
O12   O     O_R   0.522090 0.841370 0.450730 -0.500496
O13   O     O_R   0.814460 0.840990 0.926980 -0.521492
O14   O     O_R   0.001710 0.811400 0.930110 -0.518503
O15   O     O_R   0.023410 0.659800 0.926210 -0.457555
O16   O     O_R   0.806940 0.473170 0.931090 -0.463853
O17   O     O_R   0.633420 0.451310 0.927930 -0.509035
O18   O     O_R   0.663190 0.668000 0.931580 -0.499065
O19   O     O_3   0.826130 0.653050 0.980200 -0.264153
O20   O     O_R   0.693280 0.995650 0.447220 -0.500535
O21   O     O_R   0.657260 0.178740 0.451050 -0.498047
O22   O     O_R   0.502640 0.195380 0.446850 -0.500781
O23   O     O_R   0.319630 0.976590 0.450330 -0.482739
O24   O     O_R   0.303680 0.807790 0.552740 -0.496366
O25   O     O_R   0.522820 0.843620 0.549310 -0.492708
O26   O     O_R   0.694060 0.998080 0.553560 -0.520355
C79   C     C_R   0.472886 0.287331 0.866251 0.057820
C80   C     C_R   0.400906 0.327943 0.850734 -0.090704
C81   C     C_R   0.296450 0.292108 0.873464 -0.110059
C82   C     C_R   0.262751 0.215225 0.911629 -0.102135
C83   C     C_R   0.333681 0.174422 0.927294 -0.100815
C84   C     C_R   0.438404 0.210312 0.904797 -0.063994
H30   H     H_    0.425901 0.387745 0.821270 0.093957
H31   H     H_    0.241523 0.323821 0.861428 0.127211
H32   H     H_    0.181669 0.187247 0.929056 0.119585
H33   H     H_    0.307347 0.114670 0.956784 0.120693
H34   H     H_    0.492072 0.177240 0.917056 0.115466
C85   C     C_2   0.879299 0.369618 0.867433 0.585614
O27   O     O_2   0.865282 0.319613 0.905689 -0.511456
O28   O     O_R   0.987285 0.425514 0.846428 -0.696967
H35   H     H_    0.046603 0.419527 0.866619 0.355849
C86   C     C_2   0.812701 0.253352 0.187642 0.550764
O29   O     O_2   0.881235 0.236499 0.209672 -0.539489
O30   O     O_R   0.798820 0.232606 0.137691 -0.697123
H36   H     H_    0.850200 0.204732 0.124231 0.346252
C87   C     C_2   0.221479 0.697134 0.872842 0.597797
O31   O     O_2   0.244028 0.629849 0.853067 -0.535597
O32   O     O_R   0.246411 0.723003 0.922081 -0.685764
H37   H     H_    0.280218 0.678796 0.937423 0.338492
C88   C     C_R   0.101827 0.650170 0.605538 0.050242
C89   C     C_R   0.041871 0.645109 0.563044 -0.068725
C90   C     C_R   0.985075 0.544135 0.535974 -0.102324
C91   C     C_R   0.987089 0.447245 0.551111 -0.099463
C92   C     C_R   0.046402 0.451295 0.593224 -0.115987
C93   C     C_R   0.103542 0.552123 0.620370 -0.088331
H38   H     H_    0.037542 0.718755 0.551281 0.098264
H39   H     H_    0.938723 0.540772 0.503442 0.110820
H40   H     H_    0.942445 0.368959 0.530284 0.114594
H41   H     H_    0.047751 0.376116 0.604954 0.105278
H42   H     H_    0.149042 0.553638 0.652922 0.105156
C94   C     C_2   0.157932 0.018305 0.290789 0.576253
O33   O     O_2   0.173797 0.102632 0.268653 -0.519443
O34   O     O_R   0.131638 0.009913 0.340082 -0.697555
H43   H     H_    0.129579 0.078920 0.353103 0.340593
C95   C     C_R   0.206944 0.669920 0.286038 0.024813
C96   C     C_R   0.309683 0.702394 0.310768 -0.077433
C97   C     C_R   0.328368 0.620203 0.332278 -0.099477
C98   C     C_R   0.245310 0.505251 0.328920 -0.099071
C99   C     C_R   0.143394 0.472209 0.304003 -0.091414
C100  C     C_R   0.124236 0.554092 0.282504 -0.088541
H44   H     H_    0.375332 0.791064 0.313169 0.114652
H45   H     H_    0.407332 0.645507 0.351449 0.116625
H46   H     H_    0.260032 0.441760 0.345526 0.121600
H47   H     H_    0.079228 0.383131 0.301319 0.147464
H48   H     H_    0.044854 0.527366 0.263315 0.125844

loop_
_geom_bond_atom_site_label_1
_geom_bond_atom_site_label_2
_ccdc_geom_bond_type
C10   C94   S    
C64   H19   S    
C66   C68   A    
C21   C26   A    
C63   H25   S    
O30   H36   S    
C73   O6    A    
C48   C55   S    
C76   O13   A    
C41   C42   A    
C54   C55   A    
C15   C18   S    
C19   C71   S    
C35   C36   A    
C24   C27   A    
Cr4   O7    S    
Cr5   O15   S    
C95   C96   A    
C66   C70   A    
C53   C54   A    
C53   H15   S    
Cr6   O10   S    
Cr5   O19   S    
C90   C91   A    
C23   O23   A    
C36   C37   A    
C1    O12   A    
Cr5   O16   S    
C13   H28   S    
C10   C15   A    
C33   H7    S    
C87   O31   D    
C5    C6    S    
C76   O18   A    
C78   C86   S    
C62   H24   S    
C2    H18   S    
C3    H26   S    
C44   C50   A    
C65   C70   A    
Cr1   O5    S    
Cr3   O4    S    
C34   O26   A    
C58   C63   A    
Cr2   O21   S    
C56   O4    A    
C82   C83   A    
C35   C42   S    
C45   O2    A    
C94   O33   D    
Cr4   O13   S    
C17   C19   T    
C99   C100  A    
C36   H9    S    
C40   C43   A    
C74   O15   A    
C46   H11   S    
C88   C89   A    
C68   C69   A    
C12   O22   A    
C100  H48   S    
C85   O27   D    
C87   O32   S    
C66   H23   S    
C84   H34   S    
C75   O17   A    
C51   H12   S    
C52   C87   S    
C22   H2    S    
Cr1   O12   S    
C77   H1    S    
C91   H40   S    
O28   H35   S    
C12   O21   A    
C13   C14   A    
C89   C90   A    
C89   H38   S    
C82   H32   S    
C68   H22   S    
Cr4   O6    S    
C4    C7    S    
C1    O20   A    
C44   C46   A    
Cr3   O22   S    
C20   C29   T    
C43   C75   S    
C93   H42   S    
C12   C67   S    
Cr2   O5    S    
C8    C72   S    
C11   H27   S    
C51   C52   A    
C59   H17   S    
C47   C48   A    
C24   C25   A    
C21   H29   S    
C10   C11   A    
C92   C93   A    
C30   C73   S    
C53   C57   A    
C16   C17   S    
C6    C8    T    
C25   C26   A    
C77   C78   A    
Cr3   O5    S    
C34   O25   A    
C25   H4    S    
Cr5   O8    S    
Cr2   O20   S    
C31   C37   A    
C40   C85   S    
C60   C61   A    
C57   C74   S    
C98   C99   A    
C83   H33   S    
C11   C16   A    
C44   C56   S    
C32   H5    S    
Cr2   O2    S    
C73   O11   A    
C41   H8    S    
C62   C63   A    
C46   C47   A    
C64   C69   A    
C79   C80   A    
C86   O30   S    
C14   C95   S    
C80   H30   S    
C71   O7    A    
O34   H43   S    
Cr1   O24   S    
C22   C27   A    
C72   O10   A    
C70   C76   S    
C91   C92   A    
C13   C16   A    
C2    C5    A    
Cr4   O19   S    
C3    C4    A    
C86   O29   D    
C97   C98   A    
Cr3   O23   S    
C96   H44   S    
C61   C69   S    
C90   H39   S    
C39   C79   S    
C40   C41   A    
C1    C20   S    
C72   O9    A    
C50   C88   S    
C14   C15   A    
C81   H31   S    
C71   O8    A    
C31   C32   A    
C9    C23   S    
C95   C100  A    
C83   C84   A    
C79   C84   A    
C52   C57   A    
C39   C43   A    
C98   H46   S    
C38   C42   A    
C92   H41   S    
Cr6   O11   S    
Cr2   O26   S    
C38   H6    S    
Cr6   O18   S    
C47   H13   S    
C64   C65   A    
C28   C30   T    
C2    C3    A    
C58   C59   A    
C4    C77   A    
O32   H37   S    
C80   C81   A    
C32   C33   A    
C49   H16   S    
C56   O24   A    
C45   O3    A    
C38   C39   A    
C48   C49   A    
Cr3   O3    S    
Cr6   O17   S    
C33   C35   A    
Cr6   O19   S    
C37   H10   S    
C88   C93   A    
C51   C55   A    
C99   H47   S    
C85   O28   S    
Cr5   O9    S    
C61   C62   A    
C24   H3    S    
C94   O34   S    
Cr4   O14   S    
C97   H45   S    
C7    C67   T    
C96   C97   A    
C9    C18   T    
C59   C60   A    
Cr1   O25   S    
C26   C29   S    
C49   C50   A    
C31   C45   S    
Cr1   O1    S    
C27   C28   S    
C34   C58   S    
C81   C82   A    
C54   H14   S    
C65   H20   S    
C5    C78   A    
C21   C22   A    
C74   O14   A    
C60   H21   S    
C75   O16   A    
C23   O1    A    
