data_mof_unit_39925.cif
_audit_creation_date              2012-12-10T17:40:33-0500
_audit_creation_method            fapswitch 2.2
_symmetry_space_group_name_H-M    P1
_symmetry_Int_Tables_number       1
_space_group_crystal_system       triclinic
_cell_length_a                    13.773145
_cell_length_b                    15.049488
_cell_length_c                    15.85771
_cell_angle_alpha                 88.650454
_cell_angle_beta                  69.442665
_cell_angle_gamma                 91.085769
_cell_volume                      3075.50215917

loop_
_atom_site_label
_atom_site_type_symbol
_atom_type_description
_atom_site_fract_x
_atom_site_fract_y
_atom_site_fract_z
_atom_type_partial_charge
C1    C     C_R   0.500964 0.670972 0.499396 0.888853
C2    C     C_R   0.498366 0.328891 0.501279 0.934331
C3    C     C_R   0.377418 0.517681 0.096189 -0.209533
C4    C     C_R   0.616103 0.457475 0.908165 -0.219274
C5    C     C_R   0.306982 0.528236 0.052296 -0.194860
C6    C     C_R   0.684091 0.441529 0.953215 -0.199895
C7    C     C_R   0.492343 0.183981 0.579672 0.292009
C8    C     C_R   0.494553 0.815157 0.422683 0.345765
C9    C     C_R   0.494712 0.232278 0.501981 -0.258743
C10   C     C_R   0.503896 0.767463 0.497097 -0.284755
C11   C     C_R   0.489086 0.188869 0.426188 0.319145
C12   C     C_R   0.513248 0.811512 0.571057 0.299546
C13   C     C_R   0.492624 0.095587 0.424348 0.013043
C14   C     C_R   0.503445 0.904140 0.574828 0.015790
C15   C     C_R   0.495341 0.046561 0.500663 -0.012282
C16   C     C_R   0.498757 0.952956 0.499167 -0.021331
C17   C     C_R   0.492158 0.090647 0.579266 0.031151
C18   C     C_R   0.494669 0.908367 0.422983 0.039311
C19   C     C_R   0.492350 0.050288 0.348113 -0.204805
C20   C     C_R   0.495152 0.948550 0.653683 -0.204730
C21   C     C_R   0.489607 0.957989 0.348710 -0.182317
C22   C     C_R   0.487820 0.040411 0.656345 -0.192650
C23   C     C_R   0.436721 0.501710 0.672500 0.847814
C24   C     C_R   0.563253 0.496668 0.327672 0.831371
C25   C     C_R   0.235819 0.539257 0.429680 -0.075180
C26   C     C_R   0.764864 0.458939 0.569266 -0.089091
C27   C     C_R   0.177137 0.458603 0.570044 0.596477
C28   C     C_R   0.821506 0.546568 0.433182 0.608082
C29   C     C_R   0.072707 0.462064 0.573353 -0.145119
C30   C     C_R   0.926603 0.542226 0.428926 -0.143042
C31   C     C_R   0.051686 0.500710 0.500345 -0.010439
C32   C     C_R   0.948075 0.501376 0.500767 -0.012437
C33   C     C_R   0.134036 0.539341 0.427355 -0.074417
C34   C     C_R   0.866265 0.460208 0.572481 -0.075137
C35   C     C_R   0.989120 0.427425 0.647610 -0.281004
C36   C     C_R   0.010427 0.576698 0.354364 -0.288619
C37   C     C_R   0.888162 0.420464 0.644962 0.447850
C38   C     C_R   0.112685 0.577395 0.353971 0.430775
C39   C     C_R   0.398861 0.506942 0.771581 -0.138157
C40   C     C_R   0.601024 0.487064 0.229088 -0.133494
C41   C     C_R   0.266129 0.533302 0.916114 -0.302844
C42   C     C_R   0.723800 0.435805 0.089243 -0.300825
C43   C     C_R   0.296092 0.528098 0.822395 0.456575
C44   C     C_R   0.698362 0.451298 0.181404 0.469859
C45   C     C_R   0.470208 0.494386 0.815192 -0.354957
C46   C     C_R   0.532932 0.507722 0.183788 -0.368791
C47   C     C_R   0.442026 0.499917 0.909008 0.100361
C48   C     C_R   0.555631 0.488196 0.092829 0.109906
C49   C     C_R   0.338216 0.520619 0.959290 0.090974
C50   C     C_R   0.654859 0.455823 0.044897 0.096858
C51   C     C_R   0.514106 0.485892 0.953993 0.072206
C52   C     C_R   0.482362 0.498723 0.048500 0.065537
Cu1   Cu    Cu3+1 0.402580 0.500010 0.499990 0.987550
Cu2   Cu    Cu3+1 0.597420 0.499990 0.500010 0.984811
H1    H     H_    0.484581 0.925982 0.290016 0.187051
H2    H     H_    0.480402 0.071697 0.718947 0.178623
N1    N     N_R   0.256170 0.500070 0.500040 -0.238286
N2    N     N_R   0.743830 0.499930 0.499960 -0.222873
O1    O     O_R   0.417730 0.629750 0.499970 -0.569428
O2    O     O_R   0.582270 0.370250 0.500030 -0.590362
O3    O     O_R   0.582270 0.629730 0.499980 -0.591193
O4    O     O_R   0.417730 0.370270 0.500020 -0.589816
O5    O     O_R   0.371590 0.500020 0.629830 -0.493313
O6    O     O_R   0.628410 0.499980 0.370170 -0.498520
O7    O     O_R   0.536130 0.499990 0.629840 -0.618239
O8    O     O_R   0.463870 0.500010 0.370160 -0.616695
H3    H     H_    0.227251 0.542579 0.091663 0.168316
H4    H     H_    0.760723 0.418181 0.915662 0.174261
H5    H     H_    0.299093 0.570868 0.375186 0.191969
H6    H     H_    0.702092 0.426958 0.623542 0.171154
O9    O     O_3   0.198804 0.420064 0.641188 -0.524708
C53   C     C_3   0.196195 0.326325 0.636452 0.032824
H7    H     H_    0.248706 0.303660 0.570631 0.141072
H8    H     H_    0.117426 0.299133 0.646218 0.106160
C54   C     C_3   0.229659 0.286532 0.710556 -0.680352
H9    H     H_    0.171032 0.299890 0.777497 0.228233
H10   H     H_    0.237512 0.213552 0.703168 0.199120
H11   H     H_    0.305167 0.316982 0.706651 0.279750
O10   O     O_3   0.797365 0.592660 0.366806 -0.571650
C55   C     C_3   0.811835 0.685759 0.372202 0.032680
H12   H     H_    0.869553 0.705110 0.403666 0.118292
H13   H     H_    0.737448 0.714743 0.412783 0.162713
C56   C     C_3   0.845815 0.728987 0.278022 -0.869756
H14   H     H_    0.837374 0.802117 0.282912 0.217051
H15   H     H_    0.797716 0.702678 0.240433 0.255500
H16   H     H_    0.928128 0.715349 0.239548 0.229346
H17   H     H_    0.001374 0.402722 0.707628 0.191237
H18   H     H_    0.997714 0.602350 0.295107 0.183154
O11   O     O_3   0.810323 0.376973 0.715023 -0.619008
C57   C     C_3   0.829217 0.284590 0.715184 0.032853
H19   H     H_    0.908368 0.265355 0.670998 0.127176
H20   H     H_    0.773376 0.248927 0.690903 0.149171
C58   C     C_3   0.812949 0.251507 0.810717 -0.820099
H21   H     H_    0.733163 0.265193 0.856398 0.251898
H22   H     H_    0.824379 0.178699 0.811558 0.206937
H23   H     H_    0.869739 0.285288 0.835425 0.240364
O12   O     O_3   0.192638 0.609579 0.278462 -0.618255
C59   C     C_3   0.203087 0.702402 0.284597 0.031774
H24   H     H_    0.209121 0.720418 0.350475 0.157426
H25   H     H_    0.135912 0.736250 0.275804 0.145121
C60   C     C_3   0.301930 0.735832 0.210295 -0.762039
H26   H     H_    0.297882 0.721004 0.143305 0.243613
H27   H     H_    0.311720 0.808803 0.214569 0.204424
H28   H     H_    0.370103 0.702823 0.217691 0.255422
H29   H     H_    0.461732 0.538888 0.221584 0.163672
H30   H     H_    0.548358 0.481049 0.773580 0.173625
O13   O     O_3   0.759344 0.418231 0.227736 -0.551148
C61   C     C_3   0.859954 0.458263 0.194264 0.083998
H31   H     H_    0.856537 0.529658 0.210953 0.185314
H32   H     H_    0.898166 0.453352 0.120216 0.111310
C62   C     C_3   0.928355 0.410933 0.237281 -0.739394
H33   H     H_    0.939136 0.341282 0.214884 0.235591
H34   H     H_    0.005503 0.445449 0.216818 0.194417
H35   H     H_    0.891856 0.409883 0.311748 0.257807
O14   O     O_3   0.224219 0.541911 0.781042 -0.539135
C63   C     C_3   0.212614 0.634373 0.772463 0.081025
H36   H     H_    0.289180 0.670145 0.741169 0.153411
H37   H     H_    0.170641 0.662093 0.839586 0.126622
C64   C     C_3   0.149581 0.651160 0.712118 -0.730157
H38   H     H_    0.134746 0.723233 0.709267 0.183789
H39   H     H_    0.193166 0.629794 0.642836 0.257296
H40   H     H_    0.074171 0.613678 0.738891 0.245902
H41   H     H_    0.186470 0.548304 0.954965 0.141204
H42   H     H_    0.795416 0.403713 0.052571 0.139344
H43   H     H_    0.346040 0.521591 0.168370 0.193963
H44   H     H_    0.645792 0.443741 0.837686 0.188681
O15   O     O_3   0.471276 0.227240 0.659922 -0.602040
C65   C     C_3   0.563396 0.242697 0.677678 0.049165
H45   H     H_    0.606780 0.300559 0.636512 0.171158
H46   H     H_    0.615151 0.184640 0.663291 0.126874
C66   C     C_3   0.534259 0.263491 0.776806 -0.806619
H47   H     H_    0.505411 0.202045 0.819109 0.235958
H48   H     H_    0.602413 0.291064 0.790008 0.224297
H49   H     H_    0.472215 0.312984 0.795954 0.265344
O16   O     O_3   0.472642 0.771615 0.354890 -0.589300
C67   C     C_3   0.561736 0.730654 0.296416 0.069650
H50   H     H_    0.535250 0.668636 0.274171 0.161639
H51   H     H_    0.618509 0.711470 0.328456 0.135829
C68   C     C_3   0.615711 0.789121 0.212599 -0.869954
H52   H     H_    0.651902 0.848848 0.230537 0.244468
H53   H     H_    0.677431 0.751343 0.163103 0.215418
H54   H     H_    0.559142 0.809655 0.180846 0.253920
O17   O     O_3   0.486219 0.238590 0.352321 -0.566264
C69   C     C_3   0.382234 0.242010 0.355731 0.066519
H55   H     H_    0.330960 0.269853 0.419750 0.141026
H56   H     H_    0.350821 0.174949 0.349271 0.128297
C70   C     C_3   0.377334 0.301285 0.278421 -0.755215
H57   H     H_    0.430720 0.277503 0.213125 0.250646
H58   H     H_    0.297035 0.300330 0.277594 0.190301
H59   H     H_    0.399618 0.370581 0.287256 0.264105
O18   O     O_3   0.520576 0.762275 0.643499 -0.586922
C71   C     C_3   0.625314 0.763697 0.638057 0.072503
H60   H     H_    0.650537 0.831408 0.650022 0.132247
H61   H     H_    0.678019 0.742312 0.571212 0.136074
C72   C     C_3   0.636857 0.700071 0.709653 -0.769622
H62   H     H_    0.618348 0.631053 0.696150 0.263448
H63   H     H_    0.717961 0.703449 0.708404 0.192448
H64   H     H_    0.583680 0.718009 0.777462 0.246415
H65   H     H_    0.492784 0.085780 0.287808 0.177858
H66   H     H_    0.493035 0.912429 0.714207 0.175874

loop_
_geom_bond_atom_site_label_1
_geom_bond_atom_site_label_2
_ccdc_geom_bond_type
C60   H26   S    
C72   H63   S    
C34   C37   A    
Cu1   O5    S    
C62   H33   S    
C5    H3    S    
C66   H49   S    
C65   H45   S    
O12   C59   S    
Cu1   O1    S    
C42   H42   S    
O16   C67   S    
C47   C49   A    
Cu2   O7    S    
Cu2   O2    S    
Cu1   Cu2   S    
C36   H18   S    
C40   C46   A    
C58   H21   S    
C25   N1    A    
C57   C58   S    
C56   H14   S    
C70   H58   S    
C53   C54   S    
C68   H54   S    
C2    O2    A    
C44   O13   S    
C27   C29   A    
O14   C63   S    
C18   C21   A    
C46   H29   S    
C11   C13   A    
C61   H31   S    
C15   C17   A    
C28   O10   S    
C43   O14   S    
C35   H17   S    
C26   C34   A    
C70   H57   S    
C63   H37   S    
C7    C17   A    
C30   C36   A    
O18   C71   S    
C31   C33   A    
C24   O8    A    
C39   C45   A    
C23   O5    A    
C24   O6    A    
C72   H64   S    
C41   C43   A    
C12   O18   S    
C5    C49   A    
C42   C44   A    
C69   C70   S    
C41   C49   A    
C3    C52   A    
C45   C47   A    
C39   C43   A    
C46   C48   A    
C13   C19   A    
C4    C51   A    
C16   C18   A    
C51   C52   A    
C14   C20   A    
C70   H59   S    
C69   H56   S    
C27   N1    A    
C37   O11   S    
C21   H1    S    
Cu1   N1    S    
C55   H12   S    
C22   H2    S    
C3    C5    A    
C8    C18   A    
C1    O3    A    
C32   C34   A    
C54   H9    S    
C19   C21   A    
Cu1   O8    S    
C26   N2    A    
Cu1   O4    S    
C57   H20   S    
C31   C32   A    
C71   C72   S    
C40   C44   A    
C64   H38   S    
C62   H34   S    
C61   C62   S    
C6    C50   A    
C48   C50   A    
C54   H10   S    
C71   H61   S    
C64   H39   S    
C10   C12   A    
C42   C50   A    
C53   H8    S    
C56   H15   S    
C12   C14   A    
C58   H23   S    
C59   H25   S    
C9    C11   A    
C13   C15   A    
C26   H6    S    
C14   C16   A    
C4    C6    A    
C38   O12   S    
O13   C61   S    
O15   C65   S    
C65   C66   S    
C27   O9    S    
C45   H30   S    
C67   H51   S    
C55   C56   S    
Cu2   N2    S    
C64   H40   S    
C7    C9    A    
C35   C37   A    
C8    C10   A    
C1    C10   S    
C17   C22   A    
C20   C22   A    
C53   H7    S    
C66   H48   S    
C65   H46   S    
C47   C51   A    
C68   H52   S    
C3    H43   S    
Cu2   O3    S    
C28   N2    A    
C60   H28   S    
C59   C60   S    
C29   C35   A    
C33   C38   A    
C63   C64   S    
C4    H44   S    
C69   H55   S    
C19   H65   S    
O9    C53   S    
C41   H41   S    
C1    O1    A    
O17   C69   S    
C28   C30   A    
C29   C31   A    
C67   C68   S    
C36   C38   A    
C30   C32   A    
C68   H53   S    
C23   O7    A    
C57   H19   S    
C58   H22   S    
Cu2   O6    S    
C23   C39   S    
C6    H4    S    
C24   C40   S    
C55   H13   S    
C61   H32   S    
C63   H36   S    
C62   H35   S    
C66   H47   S    
C54   H11   S    
O10   C55   S    
C2    O4    A    
C48   C52   A    
C56   H16   S    
C25   H5    S    
C71   H60   S    
C60   H27   S    
C59   H24   S    
C20   H66   S    
C72   H62   S    
C67   H50   S    
C7    O15   S    
O11   C57   S    
C2    C9    S    
C11   O17   S    
C15   C16   A    
C25   C33   A    
C8    O16   S    
