data_mof_unit_13132.cif
_audit_creation_date              2012-12-10T17:01:36-0500
_audit_creation_method            fapswitch 2.2
_symmetry_space_group_name_H-M    P1
_symmetry_Int_Tables_number       1
_space_group_crystal_system       triclinic
_cell_length_a                    9.888299
_cell_length_b                    11.056127
_cell_length_c                    12.999555
_cell_angle_alpha                 89.494766
_cell_angle_beta                  75.890458
_cell_angle_gamma                 111.48234
_cell_volume                      1274.96771315

loop_
_atom_site_label
_atom_site_type_symbol
_atom_type_description
_atom_site_fract_x
_atom_site_fract_y
_atom_site_fract_z
_atom_type_partial_charge
C1    C     C_R   0.438434 0.253370 0.508022 0.726972
C2    C     C_R   0.561472 0.746609 0.492681 0.728421
C3    C     C_2   0.085664 0.521834 0.499124 0.403449
C4    C     C_2   0.917577 0.499543 0.517759 0.406394
C5    C     C_R   0.473887 0.497019 0.702148 0.826066
C6    C     C_R   0.526121 0.502941 0.297849 0.827724
C7    C     C_R   0.541815 0.508548 0.183847 -0.216129
C8    C     C_R   0.458281 0.491257 0.816130 -0.215496
C9    C     C_R   0.313630 0.376603 0.991284 0.490373
C10   C     C_R   0.686644 0.622961 0.008641 0.488585
C11   C     C_R   0.328572 0.397356 0.882566 -0.363530
C12   C     C_R   0.671575 0.602384 0.117395 -0.360323
C13   C     C_R   0.574603 0.572532 0.857623 0.416836
C14   C     C_R   0.425652 0.427076 0.142314 0.419487
C15   C     C_R   0.566215 0.549179 0.966126 -0.074704
C16   C     C_R   0.434069 0.450377 0.033795 -0.073319
C17   C     C_2   0.401405 0.111792 0.513552 0.203884
C18   C     C_2   0.598005 0.888012 0.490439 0.205774
C19   C     C_2   0.512472 0.068890 0.508631 -0.104983
C20   C     C_2   0.484464 0.929909 0.511061 -0.110750
Cu1   Cu    Cu3+1 0.647370 0.522180 0.481340 1.021595
Cu2   Cu    Cu3+1 0.352630 0.477820 0.518660 1.021913
H1    H     H_    0.760596 0.662767 0.151130 0.175797
H2    H     H_    0.239499 0.337054 0.848839 0.175810
H3    H     H_    0.368423 0.860599 0.528770 0.205400
H4    H     H_    0.626855 0.137576 0.501149 0.208734
H5    H     H_    0.944186 0.609405 0.384082 0.166216
H6    H     H_    0.051185 0.360682 0.592080 0.165839
N1    N     N_2   0.131210 0.444490 0.546730 -0.280435
N2    N     N_2   0.868790 0.555510 0.453270 -0.279774
O1    O     O_R   0.578710 0.332530 0.490040 -0.548989
O2    O     O_R   0.421290 0.667470 0.509960 -0.537376
O3    O     O_R   0.329810 0.295070 0.521560 -0.587556
O4    O     O_R   0.670190 0.704930 0.478440 -0.588425
O5    O     O_R   0.604230 0.515670 0.637800 -0.501785
O6    O     O_R   0.395770 0.484330 0.362200 -0.511028
O7    O     O_R   0.355330 0.478200 0.669330 -0.582251
O8    O     O_R   0.644670 0.521800 0.330670 -0.581009
O9    O     O_3   0.304647 0.324134 0.205944 -0.630532
H7    H     H_    0.337784 0.290714 0.262302 0.314354
O10   O     O_3   0.695727 0.675365 0.793970 -0.632318
H8    H     H_    0.662583 0.709030 0.737742 0.314931
O11   O     O_3   0.182804 0.284131 0.056191 -0.640294
H9    H     H_    0.110876 0.242826 0.013374 0.321794
O12   O     O_3   0.817544 0.715326 0.943716 -0.642793
H10   H     H_    0.889459 0.756641 0.986539 0.321786
O13   O     O_3   0.745463 0.977741 0.467487 -0.716722
H11   H     H_    0.815277 0.930980 0.452665 0.352343
O14   O     O_3   0.256134 0.022985 0.522824 -0.724617
H12   H     H_    0.189062 0.070795 0.522029 0.352872
O15   O     O_3   0.812385 0.418461 0.605271 -0.676181
H13   H     H_    0.863561 0.415616 0.661293 0.297889
O16   O     O_3   0.194411 0.626564 0.430087 -0.678490
H14   H     H_    0.153928 0.695673 0.426547 0.298574

loop_
_geom_bond_atom_site_label_1
_geom_bond_atom_site_label_2
_ccdc_geom_bond_type
C5    C8    S    
O11   H9    S    
C6    O8    A    
C8    C13   A    
Cu1   O5    S    
Cu2   N1    S    
C5    O7    A    
C2    C18   S    
Cu1   O1    S    
O10   H8    S    
C1    C17   S    
C19   C20   S    
C13   C15   A    
C18   O13   S    
C2    O4    A    
C10   O12   S    
C13   O10   S    
C3    C4    S    
C1    O3    A    
O16   H14   S    
H5    N2    S    
C3    O16   S    
C12   H1    S    
C6    C7    S    
Cu2   O2    S    
C8    C11   A    
C10   C12   A    
Cu1   Cu2   S    
H6    N1    S    
C17   C19   D    
C9    C16   A    
C6    O6    A    
C18   C20   D    
C10   C15   A    
C9    C11   A    
C7    C12   A    
C14   C16   A    
C9    O11   S    
C20   H3    S    
C4    O15   S    
C15   C16   A    
O13   H11   S    
C5    O5    A    
C11   H2    S    
C1    O1    A    
Cu2   O6    S    
C19   H4    S    
C2    O2    A    
O14   H12   S    
Cu1   N2    S    
C17   O14   S    
O9    H7    S    
C3    N1    D    
Cu2   O3    S    
Cu1   O4    S    
C14   O9    S    
O12   H10   S    
Cu2   O7    S    
C7    C14   A    
C4    N2    D    
Cu1   O8    S    
O15   H13   S    
