data_mof_unit_51900.cif
_audit_creation_date              2012-10-26T21:04:54-0400
_audit_creation_method            fapswitch 2.2
_symmetry_space_group_name_H-M    P1
_symmetry_Int_Tables_number       1
_space_group_crystal_system       triclinic
_cell_length_a                    11.702021
_cell_length_b                    12.362037
_cell_length_c                    13.199095
_cell_angle_alpha                 116.629634
_cell_angle_beta                  77.570345
_cell_angle_gamma                 101.427427
_cell_volume                      1655.50274789

loop_
_atom_site_label
_atom_site_type_symbol
_atom_type_description
_atom_site_fract_x
_atom_site_fract_y
_atom_site_fract_z
_atom_type_partial_charge
C1    C     C_R   0.511431 0.854404 0.286393 0.526900
C2    C     C_R   0.369695 0.478967 0.168407 -0.141183
C3    C     C_R   0.395090 0.601843 0.193404 -0.126594
C4    C     C_R   0.715785 0.999809 0.499669 0.542681
C5    C     C_R   0.503095 0.351539 0.869308 -0.145896
C6    C     C_R   0.418564 0.183584 0.918543 -0.129745
C7    C     C_R   0.528720 0.769779 0.163818 -0.008809
C8    C     C_R   0.684894 0.351587 0.330070 -0.131741
C9    C     C_R   0.342620 0.760476 0.646184 0.049191
C10   C     C_R   0.306738 0.664281 0.678010 -0.162321
C11   C     C_R   0.364716 0.560078 0.622608 -0.135254
C12   C     C_R   0.469728 0.227080 0.835813 -0.023286
C13   C     C_R   0.459869 0.551244 0.534436 -0.002775
C14   C     C_R   0.493395 0.652720 0.504967 0.180379
C15   C     C_R   0.523911 0.446888 0.475053 -0.025157
C16   C     C_R   0.483841 0.145062 0.713503 0.549075
C17   C     C_R   0.618581 0.448261 0.388532 0.012139
C18   C     C_R   0.648809 0.546856 0.360541 -0.175450
C19   C     C_R   0.588235 0.647194 0.418162 -0.089580
C20   C     C_R   0.499268 0.340961 0.496878 0.022783
C21   C     C_R   0.660958 0.251943 0.356539 0.167319
C22   C     C_R   0.284230 0.000067 0.500094 0.546602
C23   C     C_R   0.608020 0.810035 0.088848 -0.153654
C24   C     C_1   0.837594 0.999738 0.499402 -0.034172
C25   C     C_1   0.940147 0.999776 0.499328 -0.052091
C26   C     C_1   0.059996 0.999844 0.499492 -0.050890
C27   C     C_1   0.162485 0.999917 0.499768 -0.032234
C28   C     C_R   0.389145 0.265149 0.033040 0.016611
C29   C     C_3   0.325223 0.213591 0.117705 -0.286799
C30   C     C_3   0.402863 0.233694 0.205419 -0.419412
C31   C     C_3   0.733712 0.523367 0.873284 -0.270460
C32   C     C_3   0.786414 0.462728 0.928452 -0.430872
C33   C     C_3   0.745098 0.156036 0.291312 -0.237066
C34   C     C_R   0.662571 0.726856 0.987084 -0.129853
C35   C     C_3   0.866220 0.201565 0.331114 -0.440128
C36   C     C_R   0.637997 0.601216 0.956542 0.025535
C37   C     C_R   0.538098 0.558299 0.019353 0.044753
C38   C     C_R   0.486194 0.644092 0.125750 0.011117
C39   C     C_R   0.491224 0.433521 0.984317 0.009375
C40   C     C_R   0.418791 0.392205 0.064274 0.058234
Cu1   Cu    Cu3+1 0.526510 0.098270 0.475420 0.908851
Cu2   Cu    Cu3+1 0.473490 0.901730 0.524580 0.914966
H1    H     H_    0.721559 0.547320 0.293957 0.107145
H2    H     H_    0.394869 0.086554 0.892718 0.122408
H3    H     H_    0.757550 0.354346 0.264056 0.094455
H4    H     H_    0.305212 0.453231 0.228232 0.112056
H5    H     H_    0.485503 0.191183 0.161474 0.158323
H6    H     H_    0.425307 0.332284 0.257758 0.164073
H7    H     H_    0.355229 0.191507 0.263651 0.151395
H8    H     H_    0.241723 0.254185 0.161462 0.132498
H9    H     H_    0.299659 0.113846 0.072725 0.135559
H10   H     H_    0.818171 0.532297 0.009132 0.149542
H11   H     H_    0.720936 0.393669 0.947444 0.163156
H12   H     H_    0.427581 0.332418 0.560456 0.121666
H13   H     H_    0.862226 0.416130 0.868884 0.135567
H14   H     H_    0.705087 0.455318 0.791493 0.141579
H15   H     H_    0.807912 0.581248 0.846668 0.132846
H16   H     H_    0.733258 0.761966 0.937867 0.108687
H17   H     H_    0.858071 0.230917 0.424890 0.178492
H18   H     H_    0.923610 0.127117 0.286582 0.130895
H19   H     H_    0.909125 0.279437 0.310782 0.132870
H20   H     H_    0.714645 0.069350 0.296506 0.206067
H21   H     H_    0.755630 0.133362 0.198434 0.091850
H22   H     H_    0.296957 0.840871 0.689682 0.125347
H23   H     H_    0.333796 0.488267 0.650505 0.099552
H24   H     H_    0.233768 0.670567 0.745861 0.099097
H25   H     H_    0.620089 0.719018 0.392211 0.184548
H26   H     H_    0.529538 0.385788 0.804770 0.133115
H27   H     H_    0.638556 0.905933 0.114487 0.116602
H28   H     H_    0.342982 0.663160 0.267725 0.150235
N1    N     N_R   0.566700 0.246290 0.438210 -0.227176
N2    N     N_R   0.434010 0.754320 0.561170 -0.235912
O1    O     O_R   0.533340 0.972510 0.318140 -0.518793
O2    O     O_R   0.488570 0.806530 0.359650 -0.524851
O3    O     O_R   0.685190 0.083000 0.479260 -0.505768
O4    O     O_R   0.640410 0.917020 0.520770 -0.507114
O5    O     O_R   0.511430 0.193470 0.640350 -0.506755
O6    O     O_R   0.466660 0.027490 0.681860 -0.503680
O7    O     O_R   0.359590 0.082980 0.479230 -0.498147
O8    O     O_R   0.314810 0.917000 0.520740 -0.502520

loop_
_geom_bond_atom_site_label_1
_geom_bond_atom_site_label_2
_ccdc_geom_bond_type
Cu2   O8    S    
C9    H22   S    
Cu1   Cu2   S    
C23   H27   S    
C9    N2    A    
C2    H4    S    
C26   C27   T    
C29   C30   S    
C21   N1    A    
C1    O2    A    
C30   H6    S    
C36   C37   A    
C22   O7    A    
C16   O5    A    
C6    C12   A    
C4    C24   S    
C21   C33   S    
C28   C40   A    
C35   H17   S    
C18   C19   A    
C8    H3    S    
C32   H10   S    
C4    O3    A    
C6    C28   A    
C12   C16   S    
C3    C38   A    
C33   H20   S    
C20   N1    A    
C19   H25   S    
C31   H14   S    
C9    C10   A    
C32   H13   S    
C16   O6    A    
Cu1   N1    S    
C6    H2    S    
C13   C14   A    
C5    H26   S    
C8    C21   A    
C29   H8    S    
C10   H24   S    
C15   C20   A    
Cu2   O2    S    
C30   H5    S    
C3    H28   S    
C24   C25   T    
C5    C12   A    
C20   H12   S    
C39   C40   A    
C25   C26   S    
C35   H18   S    
C37   C38   A    
Cu1   O3    S    
C31   C32   S    
C33   H21   S    
C23   C34   A    
Cu2   N2    S    
C17   C18   A    
C35   H19   S    
C30   H7    S    
Cu2   O6    S    
C22   C27   S    
C13   C15   A    
C32   H11   S    
C29   H9    S    
C15   C17   A    
C28   C29   S    
C1    C7    S    
C14   N2    A    
C14   C19   A    
Cu1   O7    S    
Cu2   O4    S    
C8    C17   A    
C1    O1    A    
C31   H15   S    
C5    C39   A    
C2    C3    A    
C22   O8    A    
C37   C39   A    
C18   H1    S    
Cu1   O5    S    
C11   C13   A    
C7    C23   A    
C33   C35   S    
C7    C38   A    
C34   C36   A    
C4    O4    A    
C10   C11   A    
Cu1   O1    S    
C2    C40   A    
C34   H16   S    
C31   C36   S    
C11   H23   S    
