data_mof_unit_22029.cif
_audit_creation_date              2012-12-10T18:07:05-0500
_audit_creation_method            fapswitch 2.2
_symmetry_space_group_name_H-M    P1
_symmetry_Int_Tables_number       1
_space_group_crystal_system       triclinic
_cell_length_a                    10.780493
_cell_length_b                    12.717071
_cell_length_c                    13.883318
_cell_angle_alpha                 98.383507
_cell_angle_beta                  90.07625
_cell_angle_gamma                 92.874336
_cell_volume                      1880.57198059

loop_
_atom_site_label
_atom_site_type_symbol
_atom_type_description
_atom_site_fract_x
_atom_site_fract_y
_atom_site_fract_z
_atom_type_partial_charge
C1    C     C_R   0.496639 0.483188 0.315866 0.806160
C2    C     C_3   0.877044 0.495928 0.482220 0.041228
C3    C     C_3   0.930870 0.548769 0.582860 -0.411691
C4    C     C_3   0.931981 0.559400 0.400812 -0.201175
C5    C     C_1   0.507447 0.526904 0.787659 -0.177669
C6    C     C_2   0.517353 0.543295 0.979205 -0.034057
C7    C     C_2   0.463872 0.464488 0.023326 -0.046048
C8    C     C_1   0.475475 0.466994 0.126463 -0.054564
C9    C     C_1   0.512356 0.535361 0.874755 -0.037377
C10   C     C_1   0.486073 0.473287 0.213000 -0.177618
C11   C     C_2   0.499853 0.029225 0.466316 -0.327362
C12   C     C_R   0.259945 0.499595 0.492158 0.770611
C13   C     C_2   0.519854 0.972714 0.540755 -0.056773
C14   C     C_1   0.520551 0.855020 0.524159 0.175754
C15   C     C_1   0.487327 0.145699 0.477809 0.193654
C16   C     C_R   0.502286 0.516790 0.684277 0.830152
C17   C     C_R   0.739584 0.498383 0.490832 0.757283
C18   C     C_3   0.065480 0.379576 0.457002 -0.184918
C19   C     C_3   0.920652 0.377705 0.463925 -0.189245
C20   C     C_3   0.072521 0.541203 0.586653 -0.432152
C21   C     C_3   0.077714 0.568577 0.407823 -0.167840
C22   C     C_3   0.122233 0.498350 0.484490 0.056573
Cu1   Cu    Cu3+1 0.491980 0.395330 0.493960 0.970314
Cu2   Cu    Cu3+1 0.508020 0.604670 0.506040 0.982726
H1    H     H_    0.094188 0.337589 0.517981 0.126788
H2    H     H_    0.118170 0.619171 0.616767 0.176329
H3    H     H_    0.906120 0.633222 0.598317 0.184149
H4    H     H_    0.489058 0.986345 0.392970 0.141485
H5    H     H_    0.897257 0.347009 0.533475 0.134510
H6    H     H_    0.095689 0.486496 0.639059 0.162413
H7    H     H_    0.888795 0.509115 0.642339 0.153045
H8    H     H_    0.111636 0.529513 0.337249 0.096220
H9    H     H_    0.908033 0.513789 0.329088 0.088710
N1    N     N_1   0.479930 0.238040 0.484880 -0.158656
N2    N     N_1   0.520070 0.761960 0.515120 -0.147691
O1    O     O_R   0.492240 0.399110 0.356330 -0.567462
O2    O     O_R   0.505790 0.575900 0.366540 -0.568456
O3    O     O_R   0.310920 0.411610 0.494880 -0.588725
O4    O     O_R   0.324460 0.588390 0.505090 -0.572217
O5    O     O_R   0.494210 0.424100 0.633460 -0.561843
O6    O     O_R   0.507760 0.600890 0.643670 -0.571855
O7    O     O_R   0.675540 0.411610 0.494910 -0.580835
O8    O     O_R   0.689080 0.588390 0.505120 -0.566419
C23   C     C_1   0.874923 0.662285 0.396635 0.272631
N3    N     N_1   0.830186 0.742475 0.392758 -0.285899
C24   C     C_1   0.396335 0.373317 0.969324 0.240336
N4    N     N_1   0.342234 0.300466 0.926251 -0.309961
C25   C     C_R   0.586416 0.637575 0.034353 0.140615
C26   C     C_R   0.709931 0.662568 0.010301 -0.150947
C27   C     C_R   0.776283 0.749521 0.063195 -0.140374
C28   C     C_R   0.719770 0.812642 0.139956 -0.097370
C29   C     C_R   0.596389 0.789557 0.163476 -0.130463
C30   C     C_R   0.529573 0.702802 0.110679 -0.135025
H10   H     H_    0.755387 0.613817 0.951579 0.123473
H11   H     H_    0.871760 0.767725 0.044899 0.128476
H12   H     H_    0.771579 0.879511 0.181046 0.123668
H13   H     H_    0.552572 0.838880 0.222646 0.117718
H14   H     H_    0.433753 0.686369 0.129409 0.121055
C31   C     C_R   0.537490 0.026980 0.642494 0.136773
C32   C     C_R   0.467230 0.991899 0.718023 -0.158170
C33   C     C_R   0.483315 0.042719 0.813892 -0.118852
C34   C     C_R   0.570035 0.128415 0.835300 -0.082495
C35   C     C_R   0.641267 0.163190 0.760957 -0.139830
C36   C     C_R   0.625780 0.112477 0.665042 -0.123789
H15   H     H_    0.399064 0.926011 0.702558 0.127008
H16   H     H_    0.428351 0.015760 0.871602 0.129587
H17   H     H_    0.582228 0.167716 0.909526 0.126565
H18   H     H_    0.708852 0.229243 0.777687 0.125356
H19   H     H_    0.683201 0.139449 0.608592 0.129736
C37   C     C_R   0.117965 0.314558 0.364223 0.130209
C38   C     C_R   0.195895 0.230558 0.374031 -0.093067
C39   C     C_R   0.247649 0.171378 0.292510 -0.129648
C40   C     C_R   0.220163 0.192717 0.199415 -0.105636
C41   C     C_R   0.139017 0.271893 0.187614 -0.133614
C42   C     C_R   0.087229 0.331439 0.268905 -0.150102
H20   H     H_    0.218020 0.211131 0.445236 0.117983
H21   H     H_    0.309169 0.108789 0.301504 0.109650
H22   H     H_    0.260282 0.146844 0.136340 0.127020
H23   H     H_    0.115176 0.286620 0.115170 0.137742
H24   H     H_    0.020742 0.387974 0.255679 0.116958
C43   C     C_R   0.853210 0.293853 0.387567 0.142271
C44   C     C_R   0.866140 0.185591 0.395654 -0.140580
C45   C     C_R   0.804636 0.105007 0.331270 -0.127053
C46   C     C_R   0.728786 0.130841 0.257640 -0.138442
C47   C     C_R   0.714415 0.237277 0.248304 -0.117368
C48   C     C_R   0.775659 0.318310 0.312538 -0.079440
H25   H     H_    0.923940 0.163574 0.452647 0.109209
H26   H     H_    0.815344 0.022441 0.338908 0.138325
H27   H     H_    0.680474 0.068444 0.208171 0.119245
H28   H     H_    0.654420 0.257231 0.191759 0.127900
H29   H     H_    0.757775 0.398919 0.304071 0.081167
C49   C     C_R   0.135983 0.683027 0.416299 0.156436
C50   C     C_R   0.106291 0.764495 0.491922 -0.096572
C51   C     C_R   0.150774 0.869413 0.491273 -0.149173
C52   C     C_R   0.225664 0.895128 0.415595 -0.115645
C53   C     C_R   0.259908 0.815494 0.341915 -0.132579
C54   C     C_R   0.215761 0.710306 0.342137 -0.120043
H30   H     H_    0.042999 0.749713 0.548719 0.118429
H31   H     H_    0.124471 0.931424 0.548391 0.125843
H32   H     H_    0.256254 0.977029 0.413936 0.123073
H33   H     H_    0.319103 0.835517 0.283659 0.109817
H34   H     H_    0.242097 0.650592 0.282935 0.102403

loop_
_geom_bond_atom_site_label_1
_geom_bond_atom_site_label_2
_ccdc_geom_bond_type
C18   C37   S    
C50   C51   A    
C30   H14   S    
C40   C41   A    
C52   C53   A    
C6    C9    S    
C43   C44   A    
C7    C8    S    
C20   H6    S    
C47   C48   A    
C29   C30   A    
C31   C36   A    
C39   H21   S    
Cu1   O7    S    
C6    C25   S    
C34   H17   S    
C51   H31   S    
C21   C22   S    
C18   C19   S    
C48   H29   S    
C38   H20   S    
C4    H9    S    
C44   H25   S    
Cu1   O1    S    
C12   C22   S    
Cu2   O4    S    
C28   H12   S    
C17   O7    A    
C5    C16   S    
C24   N4    T    
C11   C15   S    
C33   H16   S    
Cu1   Cu2   S    
C37   C38   A    
C42   H24   S    
C15   N1    T    
C43   C48   A    
C1    O2    A    
C45   H26   S    
C31   C32   A    
C26   H10   S    
C13   C14   S    
C2    C17   S    
Cu2   O6    S    
C51   C52   A    
C18   H1    S    
C49   C54   A    
C27   C28   A    
C25   C30   A    
C21   H8    S    
Cu2   N2    S    
C41   C42   A    
C28   C29   A    
C7    C24   S    
C46   C47   A    
C14   N2    T    
C52   H32   S    
C4    C23   S    
C32   C33   A    
C2    C4    S    
C17   O8    A    
C5    C9    T    
C34   C35   A    
C45   C46   A    
C40   H22   S    
Cu1   N1    S    
C53   C54   A    
Cu2   O2    S    
C3    C20   S    
C36   H19   S    
C3    H7    S    
C16   O5    A    
C25   C26   A    
C20   C22   S    
C32   H15   S    
C44   C45   A    
C41   H23   S    
C46   H27   S    
C19   H5    S    
C23   N3    T    
C35   H18   S    
C2    C19   S    
C18   C22   S    
C1    C10   S    
C54   H34   S    
C39   C40   A    
C47   H28   S    
C6    C7    D    
C13   C31   S    
Cu1   O3    S    
C27   H11   S    
C12   O4    A    
C3    H3    S    
C2    C3    S    
C38   C39   A    
C19   C43   S    
C4    C21   S    
C11   C13   D    
C20   H2    S    
C11   H4    S    
C50   H30   S    
C49   C50   A    
C12   O3    A    
C33   C34   A    
C29   H13   S    
C35   C36   A    
C8    C10   T    
C26   C27   A    
C37   C42   A    
Cu2   O8    S    
C53   H33   S    
C16   O6    A    
Cu1   O5    S    
C1    O1    A    
C21   C49   S    
