data_mof_unit_50936.cif
_audit_creation_date              2013-03-05T15:46:02-0500
_audit_creation_method            fapswitch 2.2
_symmetry_space_group_name_H-M    P1
_symmetry_Int_Tables_number       1
_space_group_crystal_system       triclinic
_cell_length_a                    17.417968
_cell_length_b                    24.230812
_cell_length_c                    15.014368
_cell_angle_alpha                 89.347414
_cell_angle_beta                  125.109843
_cell_angle_gamma                 90.655738
_cell_volume                      5183.42607116

loop_
_atom_site_label
_atom_site_type_symbol
_atom_site_description
_atom_site_fract_x
_atom_site_fract_y
_atom_site_fract_z
_atom_type_partial_charge
C1    C     C_R   0.321889 0.137468 0.907843 -0.216204
C2    C     C_R   0.350105 0.848169 0.908506 -0.254643
C3    C     C_R   0.821889 0.637468 0.907843 -0.216202
C4    C     C_R   0.850105 0.348169 0.908507 -0.254634
H1    H     H_    0.271178 0.149200 0.824573 0.147979
H2    H     H_    0.313234 0.834773 0.825129 0.174289
H3    H     H_    0.771178 0.649200 0.824573 0.147980
H4    H     H_    0.813233 0.334773 0.825129 0.174294
N1    N     N_R   0.392140 0.102630 0.941800 -0.070034
N2    N     N_R   0.392140 0.897370 0.941800 -0.078310
N3    N     N_R   0.892140 0.602630 0.941800 -0.070034
N4    N     N_R   0.892140 0.397370 0.941800 -0.078309
C5    C     C_R   0.442277 0.846745 0.089884 0.704409
C6    C     C_R   0.415643 0.140009 0.089920 0.683708
C7    C     C_R   0.942278 0.346745 0.089884 0.704408
C8    C     C_R   0.915643 0.640009 0.089920 0.683706
N5    N     N_R   0.450890 0.896450 0.057150 -0.116756
N6    N     N_R   0.450890 0.103550 0.057150 -0.112620
N7    N     N_R   0.950890 0.396450 0.057150 -0.116757
N8    N     N_R   0.950890 0.603550 0.057150 -0.112620
C9    C     C_R   0.484942 0.044303 0.254694 -0.139635
C10   C     C_R   0.480811 0.952628 0.247842 -0.121380
C11   C     C_R   0.984943 0.544303 0.254696 -0.139635
C12   C     C_R   0.980812 0.452629 0.247844 -0.121380
H5    H     H_    0.486804 0.085252 0.282621 0.200148
H6    H     H_    0.475066 0.909744 0.263566 0.180743
H7    H     H_    0.986805 0.585252 0.282621 0.200148
H8    H     H_    0.975067 0.409744 0.263567 0.180742
N9    N     N_R   0.525160 0.027960 0.206160 -0.052892
N10   N     N_R   0.525160 0.972040 0.206160 -0.047733
N11   N     N_R   0.025160 0.527960 0.206160 -0.052892
N12   N     N_R   0.025160 0.472040 0.206160 -0.047733
C13   C     C_R   0.230753 0.952708 0.741804 0.020536
C14   C     C_R   0.229877 0.045622 0.735240 -0.021956
C15   C     C_R   0.730753 0.452708 0.741804 0.020539
C16   C     C_R   0.729877 0.545622 0.735240 -0.021957
H9    H     H_    0.210662 0.909772 0.725975 0.121019
H10   H     H_    0.207611 0.087004 0.705562 0.142270
H11   H     H_    0.710662 0.409771 0.725975 0.121020
H12   H     H_    0.707611 0.587004 0.705561 0.142271
N13   N     N_R   0.317870 0.971120 0.792790 -0.042563
N14   N     N_R   0.317870 0.028880 0.792790 -0.047756
N15   N     N_R   0.817870 0.471120 0.792790 -0.042562
N16   N     N_R   0.817870 0.528880 0.792790 -0.047757
C17   C     C_R   0.330754 0.157863 0.999202 -0.091262
C18   C     C_R   0.380584 0.814998 0.999069 -0.089317
C19   C     C_R   0.830754 0.657863 0.999202 -0.091263
C20   C     C_R   0.880585 0.314998 0.999070 -0.089321
C21   C     C_R   0.454039 0.997506 0.278013 -0.001386
C22   C     C_R   0.954041 0.497506 0.278015 -0.001385
C23   C     C_R   0.173963 0.998876 0.706755 -0.035028
C24   C     C_R   0.673963 0.498876 0.706755 -0.035030
C25   C     C_R   0.454736 0.045569 0.698369 0.260198
C26   C     C_R   0.455671 0.954105 0.700195 0.292219
C27   C     C_R   0.954732 0.545569 0.698368 0.260194
C28   C     C_R   0.955664 0.454105 0.700191 0.292207
N17   N     N_R   0.473480 0.027920 0.793480 -0.111717
N18   N     N_R   0.473480 0.972080 0.793480 -0.111530
N19   N     N_R   0.973480 0.527920 0.793480 -0.111718
N20   N     N_R   0.973480 0.472080 0.793480 -0.111529
C29   C     C_R   0.754202 0.953178 0.302193 -0.109411
C30   C     C_R   0.754094 0.045382 0.304186 -0.092397
C31   C     C_R   0.254202 0.453179 0.302193 -0.109409
C32   C     C_R   0.254094 0.545382 0.304185 -0.092395
H13   H     H_    0.767558 0.910126 0.325030 0.117939
H14   H     H_    0.767473 0.087827 0.330507 0.108592
H15   H     H_    0.267559 0.410126 0.325030 0.117938
H16   H     H_    0.267474 0.587827 0.330507 0.108587
N21   N     N_R   0.681610 0.971120 0.207570 -0.045496
N22   N     N_R   0.681610 0.028880 0.207570 -0.047872
N23   N     N_R   0.181610 0.471120 0.207570 -0.045496
N24   N     N_R   0.181610 0.528880 0.207570 -0.047870
C33   C     C_R   0.689899 0.123303 0.091132 -0.054365
C34   C     C_R   0.647692 0.848529 0.092385 -0.051429
C35   C     C_R   0.189899 0.623304 0.091131 -0.054360
C36   C     C_R   0.147692 0.348529 0.092385 -0.051428
H17   H     H_    0.746190 0.130027 0.175310 0.138197
H18   H     H_    0.690024 0.836769 0.177174 0.158641
H19   H     H_    0.246190 0.630028 0.175309 0.138187
H20   H     H_    0.190024 0.336769 0.177174 0.158642
N25   N     N_R   0.605410 0.102620 0.056870 -0.061826
N26   N     N_R   0.605410 0.897380 0.056870 -0.063599
N27   N     N_R   0.105410 0.602620 0.056870 -0.061827
N28   N     N_R   0.105410 0.397380 0.056870 -0.063599
C37   C     C_R   0.555619 0.847051 0.911759 -0.106106
C38   C     C_R   0.600952 0.121665 0.909778 -0.080760
C39   C     C_R   0.055620 0.347052 0.911759 -0.106102
C40   C     C_R   0.100952 0.621665 0.909778 -0.080762
H21   H     H_    0.509726 0.833258 0.829036 0.160389
H22   H     H_    0.576391 0.124179 0.825997 0.133270
H23   H     H_    0.009728 0.333258 0.829036 0.160390
H24   H     H_    0.076390 0.624178 0.825997 0.133269
N29   N     N_R   0.549680 0.896430 0.944180 -0.052926
N30   N     N_R   0.549680 0.103570 0.944180 -0.037451
N31   N     N_R   0.049680 0.396430 0.944180 -0.052923
N32   N     N_R   0.049680 0.603570 0.944180 -0.037451
Ni1   Ni    Ni4+2 0.433410 0.064680 0.868830 0.302292
Ni2   Ni    Ni4+2 0.433410 0.935320 0.868830 0.275834
Ni3   Ni    Ni4+2 0.933410 0.564680 0.868830 0.302293
Ni4   Ni    Ni4+2 0.933410 0.435320 0.868830 0.275840
Ni5   Ni    Ni4+2 0.565650 0.934380 0.131170 0.263746
Ni6   Ni    Ni4+2 0.565650 0.065620 0.131170 0.256149
Ni7   Ni    Ni4+2 0.065650 0.434380 0.131170 0.263748
Ni8   Ni    Ni4+2 0.065650 0.565620 0.131170 0.256149
C41   C     C_R   0.444173 0.999788 0.639187 -0.234883
C42   C     C_R   0.944165 0.499789 0.639182 -0.234865
C43   C     C_R   0.800234 0.998850 0.365288 0.045348
C44   C     C_R   0.300234 0.498850 0.365288 0.045349
C45   C     C_R   0.690310 0.133948 0.999863 0.051338
C46   C     C_R   0.613962 0.815028 0.002722 0.044157
C47   C     C_R   0.190310 0.633948 0.999863 0.051346
C48   C     C_R   0.113963 0.315028 0.002722 0.044153
C49   C     C_3   0.025018 0.945135 0.624912 -0.462879
C50   C     C_3   0.023824 0.048418 0.630808 -0.448070
C51   C     C_3   0.525018 0.445135 0.624911 -0.462878
C52   C     C_3   0.523824 0.548418 0.630808 -0.448070
H25   H     H_    0.055733 0.907608 0.615512 0.203566
H26   H     H_    0.056444 0.088340 0.632414 0.194766
H27   H     H_    0.555734 0.407608 0.615511 0.203566
H28   H     H_    0.556444 0.588340 0.632414 0.194765
H29   H     H_    0.034518 0.941889 0.704699 0.192590
H30   H     H_    0.028989 0.045240 0.708107 0.190834
H31   H     H_    0.534518 0.441889 0.704698 0.192590
H32   H     H_    0.528989 0.545239 0.708107 0.190834
C53   C     C_3   0.920070 0.945951 0.532114 -0.371067
C54   C     C_3   0.920423 0.049711 0.533659 -0.381457
C55   C     C_3   0.420070 0.445951 0.532113 -0.371068
C56   C     C_3   0.420423 0.549711 0.533659 -0.381457
H33   H     H_    0.877567 0.945211 0.565945 0.183571
H34   H     H_    0.874522 0.050458 0.562972 0.177729
H35   H     H_    0.377567 0.445210 0.565944 0.183572
H36   H     H_    0.374522 0.550458 0.562972 0.177730
H37   H     H_    0.903698 0.907729 0.484042 0.182822
H38   H     H_    0.908701 0.088528 0.487410 0.190471
H39   H     H_    0.403699 0.407729 0.484040 0.182822
H40   H     H_    0.408701 0.588528 0.487411 0.190466
H41   H     H_    0.943456 0.962423 0.365608 0.194369
H42   H     H_    0.940925 0.036242 0.362753 0.241324
H43   H     H_    0.443456 0.462424 0.365607 0.194370
H44   H     H_    0.440926 0.536243 0.362753 0.241321
C57   C     C_3   0.062270 0.001322 0.509832 1.346168
C58   C     C_3   0.562270 0.501322 0.509832 1.346168
C59   C     C_3   0.073441 0.998395 0.620388 0.070205
C60   C     C_3   0.573442 0.498395 0.620388 0.070205
C61   C     C_3   0.897347 0.998493 0.460892 0.193288
C62   C     C_3   0.397347 0.498494 0.460892 0.193286
C63   C     C_3   0.958467 0.999572 0.416423 -0.538989
C64   C     C_3   0.458467 0.499573 0.416422 -0.538988
C65   C     C_R   0.281919 0.734028 0.897295 -0.141359
C66   C     C_R   0.177050 0.203559 0.900609 -0.149479
C67   C     C_R   0.781923 0.234027 0.897297 -0.141359
C68   C     C_R   0.677051 0.703559 0.900609 -0.149477
H45   H     H_    0.252098 0.755155 0.820475 0.140886
H46   H     H_    0.163235 0.193757 0.822647 0.133043
H47   H     H_    0.752103 0.255153 0.820476 0.140886
H48   H     H_    0.663235 0.693758 0.822647 0.133043
C69   C     C_R   0.737083 0.186706 0.896877 -0.186694
C70   C     C_R   0.614908 0.737561 0.901208 -0.188781
C71   C     C_R   0.237079 0.686707 0.896875 -0.186696
C72   C     C_R   0.114907 0.237561 0.901208 -0.188784
H49   H     H_    0.675026 0.174286 0.819535 0.154453
H50   H     H_    0.557527 0.753415 0.823518 0.151253
H51   H     H_    0.175020 0.674289 0.819534 0.154454
H52   H     H_    0.057526 0.253415 0.823518 0.151250
C73   C     C_R   0.763691 0.161938 0.995651 0.001521
C74   C     C_R   0.636685 0.757439 0.000598 0.013114
C75   C     C_R   0.263690 0.661939 0.995649 0.001526
C76   C     C_R   0.136685 0.257439 0.000598 0.013117
C77   C     C_R   0.851514 0.175881 0.091333 0.294335
C78   C     C_R   0.703156 0.729197 0.097532 0.301279
C79   C     C_R   0.351514 0.675879 0.091329 0.294324
C80   C     C_R   0.203156 0.229197 0.097532 0.301279
C81   C     C_R   0.395395 0.724652 0.091630 -0.172676
C82   C     C_R   0.266248 0.194883 0.096630 -0.219250
C83   C     C_R   0.895395 0.224653 0.091633 -0.172673
C84   C     C_R   0.766247 0.694883 0.096629 -0.219250
H53   H     H_    0.458817 0.737518 0.166869 0.259659
H54   H     H_    0.320700 0.174858 0.171355 0.209282
H55   H     H_    0.958815 0.237520 0.166873 0.259655
H56   H     H_    0.820699 0.674857 0.171354 0.209281
C85   C     C_R   0.355115 0.756678 0.996211 0.100915
C86   C     C_R   0.258459 0.186910 0.999287 0.109975
C87   C     C_R   0.855116 0.256678 0.996212 0.100916
C88   C     C_R   0.758459 0.686910 0.999287 0.109975
C89   C     C_R   0.515847 0.973882 0.551097 -0.106407
C90   C     C_R   0.364472 0.020614 0.444987 0.019594
C91   C     C_R   0.015838 0.473879 0.551094 -0.106418
C92   C     C_R   0.864470 0.520618 0.444984 0.019602
H57   H     H_    0.574388 0.957084 0.627634 0.124419
H58   H     H_    0.305805 0.039192 0.439970 0.176991
H59   H     H_    0.074377 0.457078 0.627630 0.124415
H60   H     H_    0.805804 0.539199 0.439967 0.176994
C93   C     C_R   0.517060 0.971625 0.461343 -0.139705
C94   C     C_R   0.366775 0.019560 0.354466 -0.176868
C95   C     C_R   0.017054 0.471622 0.461341 -0.139702
C96   C     C_R   0.866775 0.519564 0.354465 -0.176870
H61   H     H_    0.577267 0.953709 0.468703 0.135455
H62   H     H_    0.310718 0.038118 0.278490 0.144386
H63   H     H_    0.077259 0.453702 0.468702 0.135455
H64   H     H_    0.810723 0.538125 0.278490 0.144386
C97   C     C_R   0.443155 0.994828 0.364008 0.124408
C98   C     C_R   0.943153 0.494828 0.364007 0.124408
C99   C     C_R   0.440039 0.998380 0.542586 0.190527
C100  C     C_R   0.940033 0.498380 0.542583 0.190523
F1    F     F_    0.107283 0.957232 0.500312 -0.690516
F2    F     F_    0.101411 0.049760 0.501959 -0.677082
F3    F     F_    0.607283 0.457233 0.500311 -0.690514
F4    F     F_    0.601411 0.549761 0.501959 -0.677082
N33   N     N_R   0.896108 0.141252 0.186724 0.229353
O1    O     O_R   0.956424 0.161867 0.282745 -0.342962
O2    O     O_R   0.885709 0.087915 0.176456 -0.405535
N34   N     N_R   0.706147 0.734368 0.194736 0.228438
O3    O     O_R   0.783221 0.724404 0.289837 -0.342950
O4    O     O_R   0.628867 0.741860 0.187488 -0.359720
N35   N     N_R   0.396112 0.641247 0.186717 0.229353
O5    O     O_R   0.456453 0.661857 0.282736 -0.342936
O6    O     O_R   0.385699 0.587911 0.176444 -0.405543
N36   N     N_R   0.206147 0.234368 0.194736 0.228438
O7    O     O_R   0.283221 0.224404 0.289837 -0.342950
O8    O     O_R   0.128867 0.241860 0.187488 -0.359722
F5    F     F_    0.503899 0.827942 0.192738 -0.703589
F6    F     F_    0.465224 0.164462 0.188873 -0.713895
F7    F     F_    0.003901 0.327942 0.192738 -0.703589
F8    F     F_    0.965224 0.664462 0.188873 -0.713896
N37   N     N_R   0.421820 0.099951 0.655214 0.239187
O9    O     O_R   0.389334 0.131172 0.696207 -0.382015
O10   O     O_R   0.430342 0.120068 0.580619 -0.374283
N38   N     N_R   0.414770 0.901124 0.655591 0.240580
O11   O     O_R   0.418438 0.880117 0.578800 -0.377431
O12   O     O_R   0.362422 0.877286 0.680930 -0.413272
N39   N     N_R   0.921818 0.599951 0.655214 0.239187
O13   O     O_R   0.889333 0.631173 0.696209 -0.382016
O14   O     O_R   0.930341 0.620069 0.580621 -0.374286
N40   N     N_R   0.914759 0.401125 0.655587 0.240583
O15   O     O_R   0.918404 0.380122 0.578778 -0.377417
O16   O     O_R   0.862424 0.377285 0.680946 -0.413286

loop_
_geom_bond_atom_site_label_1
_geom_bond_atom_site_label_2
_geom_bond_distance
_ccdc_geom_bond_type
C5    F5    1.353876 S    
C40   N32   1.331564 A    
N28   Ni7   1.858378 S    
C39   H23   1.074532 S    
N19   Ni3   1.872398 S    
N13   N14   1.399574 A    
C6    N6    1.330112 A    
N18   Ni2   1.852433 S    
C3    N3    1.328915 A    
C90   C94   1.383106 A    
C4    H4    1.079188 S    
C1    C17   1.385526 A    
H44   C64   1.113051 S    
C57   C59   1.557037 S    
C9    C21   1.375453 A    
N36   O7    1.301525 A    
C93   C97   1.393840 A    
C66   C86   1.396927 A    
C95   C98   1.393840 A    
C78   C84   1.391937 A    
C2    C18   1.389697 A    
C7    N7    1.334845 A    
C42   C100  1.411012 S    
C79   C81   1.398686 A    
C70   C74   1.401372 A    
C14   C23   1.386019 A    
C24   C60   1.461329 S    
C35   H19   1.077433 S    
C66   C72   1.371952 A    
C1    H1    1.073065 S    
C72   H52   1.079205 S    
C18   C85   1.469952 S    
C55   H39   1.110161 S    
N37   O10   1.300442 A    
C3    H3    1.073064 S    
N35   O6    1.301512 A    
C26   N18   1.326161 A    
C5    C18   1.387515 A    
C43   C61   1.459057 S    
N16   Ni3   1.856249 S    
C52   H28   1.109661 S    
N34   O4    1.301275 A    
C41   C99   1.411007 S    
C49   C53   1.534169 S    
C54   H34   1.112881 S    
N2    N5    1.417099 A    
C29   N21   1.318451 A    
C48   C76   1.460478 S    
N32   Ni3   1.901154 S    
C51   C55   1.534169 S    
N21   Ni5   1.872138 S    
C30   N22   1.324060 A    
N3    Ni3   1.872608 S    
N6    Ni6   1.881169 S    
C69   H49   1.078927 S    
N2    Ni2   1.852162 S    
C65   H45   1.079675 S    
C57   F2    1.388371 S    
C92   C96   1.383105 A    
N5    Ni5   1.871157 S    
C38   N30   1.331567 A    
C25   N37   1.433678 S    
C52   C60   1.557050 S    
C40   C47   1.384743 A    
C37   N29   1.324103 A    
C21   C97   1.409476 S    
C40   H24   1.071877 S    
C57   F1    1.388538 S    
C80   C82   1.391936 A    
C14   N14   1.320263 A    
C49   C59   1.555785 S    
C39   N31   1.324102 A    
N9    Ni6   1.863619 S    
N1    Ni1   1.872608 S    
C58   F4    1.388371 S    
C4    N4    1.334108 A    
C15   N15   1.320481 A    
C82   H54   1.080677 S    
C95   H63   1.084631 S    
C16   C24   1.386018 A    
C96   H64   1.083509 S    
C79   N35   1.437563 S    
C27   N39   1.433677 S    
C72   C76   1.401373 A    
C77   N33   1.437555 S    
N19   N20   1.353051 A    
N26   N29   1.384447 A    
C65   C85   1.398871 A    
C36   C48   1.385877 A    
C82   C86   1.403415 A    
C2    H2    1.079189 S    
N40   O16   1.300691 A    
C7    C20   1.387515 A    
C34   N26   1.334811 A    
C56   H36   1.112882 S    
C8    C19   1.383200 A    
C33   N25   1.341518 A    
N38   O11   1.300534 A    
C61   C63   1.548036 S    
C54   C61   1.552337 S    
C6    F6    1.355241 S    
C17   C86   1.450239 S    
C32   C44   1.381262 A    
C6    C17   1.383201 A    
C62   C64   1.548036 S    
N25   Ni6   1.838363 S    
C22   C98   1.409477 S    
C73   C77   1.410423 A    
N3    N8    1.417351 A    
C57   C63   1.523318 S    
C68   C70   1.371953 A    
C36   N28   1.334809 A    
C51   H31   1.113009 S    
N27   Ni8   1.838363 S    
C30   H14   1.079841 S    
C27   C42   1.372491 A    
C33   C45   1.395563 A    
C67   C69   1.377966 A    
C68   H48   1.079592 S    
C16   H12   1.074413 S    
C38   C45   1.384744 A    
C1    N1    1.328916 A    
N15   Ni4   1.865599 S    
C37   C46   1.377502 A    
C38   H22   1.071878 S    
N14   Ni1   1.856249 S    
C69   C73   1.403495 A    
C25   N17   1.334810 A    
N31   Ni4   1.911329 S    
C11   C22   1.375455 A    
C75   C79   1.410423 A    
C39   C48   1.377503 A    
N24   Ni8   1.881672 S    
N30   Ni1   1.901154 S    
C94   C97   1.395218 A    
N7    Ni7   1.871157 S    
C91   C100  1.390795 A    
C92   C100  1.396303 A    
C13   H9    1.078402 S    
C28   N20   1.326165 A    
C51   H27   1.110816 S    
N28   N31   1.384447 A    
C11   N11   1.333674 A    
C90   H58   1.083400 S    
C15   H11   1.078404 S    
N15   N16   1.399574 A    
C12   N12   1.323128 A    
C31   H15   1.079626 S    
N9    N10   1.354989 A    
C58   C64   1.523319 S    
C71   C75   1.403495 A    
N36   O8    1.301274 A    
N11   N12   1.354989 A    
C29   H13   1.079623 S    
C81   H53   1.076260 S    
H42   C63   1.113051 S    
C8    N8    1.330112 A    
N17   Ni1   1.872398 S    
N33   O1    1.301491 A    
C77   C83   1.398682 A    
N12   Ni7   1.883971 S    
C26   N38   1.433158 S    
N39   O14   1.300442 A    
C58   F3    1.388536 S    
C67   C87   1.398871 A    
C65   C71   1.377964 A    
C12   C22   1.367827 A    
C28   C42   1.369482 A    
C50   H26   1.109660 S    
C45   C73   1.473030 S    
C10   C21   1.367829 A    
C49   H25   1.110816 S    
C31   N23   1.318449 A    
C74   C78   1.408597 A    
C11   H7    1.074466 S    
C53   H33   1.112867 S    
C10   H6    1.079238 S    
N38   O12   1.300664 A    
C58   C60   1.557037 S    
C8    F8    1.355241 S    
C68   C88   1.396927 A    
N40   O15   1.300504 A    
C52   C56   1.533194 S    
C96   C98   1.395220 A    
C2    N2    1.334106 A    
C32   H16   1.079840 S    
C27   N19   1.334811 A    
N39   O13   1.300909 A    
C80   N36   1.436990 S    
C28   N40   1.433153 S    
C12   H8    1.079239 S    
C83   C87   1.406372 A    
C4    C20   1.389699 A    
C76   C80   1.408596 A    
C53   H37   1.110162 S    
C84   C88   1.403415 A    
C9    H5    1.074464 S    
C51   C60   1.555783 S    
C37   H21   1.074532 S    
C52   H32   1.113110 S    
C26   C41   1.369472 A    
C91   C95   1.361590 A    
C14   H10   1.074413 S    
C91   H59   1.084872 S    
H41   C63   1.114241 S    
C36   H20   1.078120 S    
C89   C93   1.361591 A    
C19   C88   1.450239 S    
N20   Ni4   1.852433 S    
C34   C46   1.385874 A    
C20   C87   1.469953 S    
C83   H55   1.076260 S    
N22   Ni6   1.881672 S    
C89   H57   1.084873 S    
C30   C43   1.381260 A    
C23   C59   1.461329 S    
C13   C23   1.385644 A    
C49   H29   1.113008 S    
C34   H18   1.078120 S    
C35   C47   1.395563 A    
C67   H47   1.079676 S    
C5    N5    1.334848 A    
C92   H60   1.083400 S    
C13   N13   1.320481 A    
N11   Ni8   1.863619 S    
C89   C99   1.390790 A    
C56   H40   1.111299 S    
N23   N24   1.399574 A    
C56   C62   1.552336 S    
C44   C62   1.459056 S    
C10   N10   1.323128 A    
C50   C59   1.557049 S    
N25   N30   1.384176 A    
C46   C74   1.460480 S    
C35   N27   1.341519 A    
N17   N18   1.353051 A    
C94   H62   1.083507 S    
C9    N9    1.333675 A    
C93   H61   1.084631 S    
N27   N32   1.384176 A    
N4    N7    1.417099 A    
C3    C19   1.385527 A    
N33   O2    1.301512 A    
N26   Ni5   1.858378 S    
N10   Ni5   1.883971 S    
C90   C99   1.396302 A    
C71   H51   1.078927 S    
H43   C64   1.114240 S    
C32   N24   1.324060 A    
N35   O5    1.301486 A    
C7    F7    1.353876 S    
N21   N22   1.399574 A    
C29   C43   1.376542 A    
C55   H35   1.112867 S    
N4    Ni4   1.852162 S    
C16   N16   1.320263 A    
N8    Ni8   1.881169 S    
C70   H50   1.079204 S    
C55   C62   1.553937 S    
C81   C85   1.406372 A    
C50   H30   1.113112 S    
C25   C41   1.372492 A    
N1    N6    1.417351 A    
C84   H56   1.080677 S    
C78   N34   1.436990 S    
N34   O3    1.301524 A    
C54   H38   1.111298 S    
C66   H46   1.079592 S    
C15   C24   1.385643 A    
C50   C54   1.533194 S    
C33   H17   1.077431 S    
N13   Ni2   1.865599 S    
C47   C75   1.473027 S    
C53   C61   1.553935 S    
C31   C44   1.376540 A    
N23   Ni7   1.872138 S    
N29   Ni2   1.911329 S    
N37   O9    1.300906 A    
