data_mof_unit_45751.cif
_audit_creation_date              2012-12-11T14:17:44-0500
_audit_creation_method            fapswitch 2.2
_symmetry_space_group_name_H-M    P1
_symmetry_Int_Tables_number       1
_space_group_crystal_system       triclinic
_cell_length_a                    6.945867
_cell_length_b                    13.636845
_cell_length_c                    20.419821
_cell_angle_alpha                 102.101365
_cell_angle_beta                  89.862545
_cell_angle_gamma                 90.705116
_cell_volume                      1891.0358907

loop_
_atom_site_label
_atom_site_type_symbol
_atom_type_description
_atom_site_fract_x
_atom_site_fract_y
_atom_site_fract_z
_atom_type_partial_charge
O1    O     O_R   0.506860 0.599390 0.449240 -0.540089
O2    O     O_R   0.180220 0.594600 0.586780 -0.544251
O3    O     O_R   0.004500 0.400610 0.550760 -0.543173
C1    C     C_R   0.348798 0.614549 0.613815 0.717778
O4    O     O_R   0.177490 0.611290 0.451970 -0.538498
O5    O     O_R   0.001750 0.417420 0.414990 -0.543500
C2    C     C_R   0.347105 0.637951 0.435250 0.706349
O6    O     O_R   0.509610 0.582580 0.585010 -0.539445
O7    O     O_3   0.337420 0.436370 0.488020 -0.374437
V1    V     V_3+5 0.064680 0.511800 0.502220 1.485007
O8    O     O_R   0.671710 0.405400 0.413220 -0.546979
C3    C     C_R   0.839838 0.384071 0.386538 0.759971
O9    O     O_R   0.674440 0.388710 0.548030 -0.540465
C4    C     C_R   0.842378 0.362085 0.564824 0.810659
V2    V     V_3+5 0.564010 0.488200 0.497780 1.481576
O10   O     O_3   0.841140 0.563630 0.511980 -0.370285
C5    C     C_R   0.835624 0.109684 0.611331 0.628457
C6    C     C_R   0.847839 0.284326 0.604382 -0.241697
C7    C     C_R   0.873376 0.315058 0.927893 -0.167495
C8    C     C_R   0.873691 0.390856 0.891911 -0.131567
C9    C     C_R   0.866909 0.367671 0.822170 -0.125810
C10   C     C_R   0.859364 0.266698 0.786192 0.138184
C11   C     C_R   0.857312 0.189402 0.823579 -0.038449
C12   C     C_R   0.853808 0.240010 0.714588 -0.058858
C13   C     C_R   0.844031 0.136772 0.681937 -0.243755
C14   C     C_R   0.842257 0.062439 0.720229 0.728313
C15   C     C_R   0.849211 0.088491 0.789629 -0.284967
C16   C     C_R   0.857119 0.312519 0.674126 -0.288703
C17   C     C_R   0.836400 0.183176 0.573093 0.510512
C18   C     C_R   0.864748 0.214660 0.894529 -0.042518
H1    H     H_    0.864974 0.391842 0.694959 0.132286
H2    H     H_    0.880155 0.334723 0.982095 0.098953
H3    H     H_    0.867725 0.430867 0.798248 0.101901
H4    H     H_    0.879923 0.468483 0.918294 0.119083
H5    H     H_    0.847781 0.028118 0.816648 0.166532
C19   C     C_2   0.005301 0.288742 0.284953 -0.124979
C20   C     C_2   0.842213 0.315725 0.319770 -0.280351
H6    H     H_    0.703512 0.287704 0.299512 0.124367
C21   C     C_2   0.013524 0.220709 0.217342 -0.129106
C22   C     C_2   0.858418 0.183209 0.180372 -0.304092
H7    H     H_    0.714266 0.201467 0.198857 0.125793
C23   C     C_2   0.208952 0.781757 0.785362 -0.230512
C24   C     C_2   0.366867 0.827413 0.816481 0.459269
H8    H     H_    0.072095 0.790408 0.811678 0.122469
C25   C     C_2   0.205678 0.721878 0.715240 -0.049299
C26   C     C_2   0.360477 0.676769 0.682282 -0.247327
H9    H     H_    0.065589 0.711280 0.691107 0.164703
H10   H     H_    0.499732 0.680660 0.706350 0.203862
C27   C     C_R   0.408616 0.887202 0.386988 -0.099101
H11   H     H_    0.405731 0.836923 0.479754 0.155637
H12   H     H_    0.435944 0.011695 0.303614 0.138075
H13   H     H_    0.433918 0.964680 0.411777 0.160233
C28   C     C_R   0.359224 0.714708 0.395094 -0.054404
C29   C     C_R   0.322707 0.685773 0.071735 -0.168518
C30   C     C_R   0.305571 0.610149 0.107616 -0.119216
C31   C     C_R   0.318107 0.632441 0.177268 -0.157621
C32   C     C_R   0.348722 0.732239 0.213166 0.081937
C33   C     C_R   0.367448 0.809410 0.175910 0.066334
C34   C     C_R   0.361274 0.758038 0.284621 0.074178
C35   C     C_R   0.393670 0.859916 0.316931 0.115308
C36   C     C_R   0.411507 0.933932 0.279262 -0.174897
C37   C     C_R   0.398350 0.909321 0.209947 -0.195629
C38   C     C_R   0.343363 0.686370 0.325403 -0.217092
C39   C     C_R   0.392309 0.814875 0.425797 -0.112277
C40   C     C_R   0.353834 0.785039 0.105099 -0.072331
H14   H     H_    0.318585 0.607808 0.304870 0.092604
H15   H     H_    0.311285 0.666882 0.017612 0.099942
H16   H     H_    0.281706 0.533416 0.081228 0.118241
O11   O     O_R   0.203230 0.917310 0.915020 -0.559593
O12   O     O_R   0.535500 0.888690 0.048040 -0.542733
O13   O     O_R   0.711080 0.082610 0.085000 -0.547463
C41   C     C_R   0.365962 0.862279 0.064983 0.681010
O14   O     O_R   0.532630 0.905370 0.913230 -0.513539
O15   O     O_R   0.708190 0.099410 0.949230 -0.536297
C42   C     C_R   0.364869 0.886236 0.885977 0.640919
O16   O     O_R   0.206120 0.900510 0.050790 -0.539147
O17   O     O_3   0.375360 0.063570 0.011990 -0.375183
V3    V     V_3+5 0.648170 0.988200 0.997780 1.463238
O18   O     O_R   0.038240 0.111390 0.951940 -0.541450
C43   C     C_R   0.870315 0.137556 0.934852 0.689790
O19   O     O_R   0.041120 0.094710 0.086750 -0.543658
C44   C     C_R   0.872445 0.115698 0.113531 0.736431
V4    V     V_3+5 0.148810 0.011930 0.002180 1.426514
O20   O     O_3   0.871750 0.936430 0.988010 -0.368716
F1    F     F_    0.825853 0.155663 0.505299 -0.660108
H17   H     H_    0.156379 0.201632 0.197285 0.131827
F2    F     F_    0.537414 0.825417 0.783395 -0.664030
F3    F     F_    0.833885 0.963422 0.690851 -0.593096
H18   H     H_    0.303117 0.569639 0.201283 0.105750
H19   H     H_    0.413040 0.969681 0.183205 0.117777
F4    F     F_    0.825167 0.012057 0.578861 -0.587318
H20   H     H_    0.142538 0.317250 0.306845 0.132253

loop_
_geom_bond_atom_site_label_1
_geom_bond_atom_site_label_2
_ccdc_geom_bond_type
C33   C37   A    
C30   C31   A    
O12   V3    S    
H11   C39   S    
C4    C6    S    
C7    C8    A    
C5    F4    S    
C41   O16   A    
O19   C44   A    
C29   C40   A    
C1    C26   S    
C25   C26   D    
C14   C15   A    
C27   C35   A    
C19   C20   D    
O5    C3    A    
C28   C39   A    
C32   C34   A    
C9    H3    S    
O17   V4    S    
V2    O10   S    
C5    C17   A    
C31   C32   A    
C3    C20   S    
O8    V2    S    
H12   C36   S    
O14   V3    S    
O1    V2    S    
C11   C15   A    
O7    V1    S    
C17   F1    S    
C1    O6    A    
O13   C44   A    
C8    H4    S    
C19   H20   S    
C38   H14   S    
C34   C35   A    
C27   C39   A    
O15   C43   A    
O9    C4    A    
O14   C42   A    
C23   H8    S    
C7    H2    S    
O16   V4    S    
O19   V4    S    
C30   H16   S    
C25   H9    S    
C24   C42   S    
C26   H10   S    
C11   C18   A    
C22   C44   S    
C6    C16   A    
C12   C13   A    
C21   C22   D    
O4    C2    A    
C29   H15   S    
C15   H5    S    
C13   C14   A    
O17   V3    S    
C19   C21   S    
C35   C36   A    
C23   C25   S    
O2    C1    A    
C20   H6    S    
O11   V4    S    
C33   C40   A    
V4    O20   S    
C27   H13   S    
C18   C43   S    
C6    C17   A    
O3    C4    A    
C31   H18   S    
O6    V2    S    
O9    V2    S    
C10   C12   A    
C23   C24   D    
C2    C28   S    
O2    V1    S    
C29   C30   A    
C22   H7    S    
O1    C2    A    
C16   H1    S    
C12   C16   A    
O5    V1    S    
O8    C3    A    
C40   C41   S    
C34   C38   A    
C24   F2    S    
O7    V2    S    
C5    C13   A    
O4    V1    S    
O3    V1    S    
V1    O10   S    
O18   V4    S    
C28   C38   A    
C32   C33   A    
C37   H19   S    
O11   C42   A    
C36   C37   A    
O18   C43   A    
V3    O20   S    
C8    C9    A    
C14   F3    S    
O15   V3    S    
C10   C11   A    
O12   C41   A    
C21   H17   S    
C9    C10   A    
C7    C18   A    
O13   V3    S    
