data_mof_unit_45116.cif
_audit_creation_date              2012-12-11T15:08:47-0500
_audit_creation_method            fapswitch 2.2
_symmetry_space_group_name_H-M    P1
_symmetry_Int_Tables_number       1
_space_group_crystal_system       triclinic
_cell_length_a                    19.326124
_cell_length_b                    11.309274
_cell_length_c                    18.707984
_cell_angle_alpha                 90.000224
_cell_angle_beta                  90.941892
_cell_angle_gamma                 90.00008
_cell_volume                      4088.34740167

loop_
_atom_site_label
_atom_site_type_symbol
_atom_type_description
_atom_site_fract_x
_atom_site_fract_y
_atom_site_fract_z
_atom_type_partial_charge
C1    C     C_R   0.272464 0.044680 0.853615 0.533434
C2    C     C_3   0.687341 0.538646 0.953493 -0.251898
C3    C     C_R   0.226927 0.543208 0.354662 0.535607
C4    C     C_R   0.447004 0.820539 0.638046 0.537359
C5    C     C_R   0.553005 0.820538 0.361955 0.537355
C6    C     C_R   0.947004 0.320539 0.638046 0.537359
C7    C     C_R   0.053005 0.320539 0.361955 0.537354
C8    C     C_R   0.258735 0.634904 0.645783 0.535685
C9    C     C_R   0.741265 0.634903 0.354216 0.535681
C10   C     C_R   0.758735 0.134904 0.645783 0.535683
C11   C     C_R   0.241265 0.134903 0.354216 0.535684
C12   C     C_3   0.480357 0.917761 0.035815 -0.106027
C13   C     C_3   0.812659 0.038644 0.046506 -0.251898
C14   C     C_3   0.519669 0.917743 0.964175 -0.106025
C15   C     C_3   0.980349 0.417752 0.035820 -0.106028
C16   C     C_3   0.019660 0.417750 0.964180 -0.106028
C17   C     C_3   0.431290 0.820454 0.007009 -0.164656
C18   C     C_3   0.568720 0.820418 0.992989 -0.164647
C19   C     C_3   0.931288 0.320439 0.007010 -0.164653
C20   C     C_3   0.068718 0.320434 0.992990 -0.164648
C21   C     C_3   0.470782 0.821380 0.936188 0.053705
C22   C     C_3   0.529227 0.821380 0.063810 0.053697
C23   C     C_3   0.970780 0.321380 0.936189 0.053702
C24   C     C_3   0.187337 0.038650 0.953490 -0.251897
C25   C     C_3   0.029225 0.321379 0.063811 0.053698
C26   C     C_1   0.174978 0.769971 0.089743 0.178123
C27   C     C_1   0.825052 0.769949 0.910283 0.178134
C28   C     C_1   0.674950 0.269948 0.089722 0.178132
C29   C     C_1   0.325047 0.269955 0.910279 0.178133
C30   C     C_3   0.323149 0.569824 0.967452 -0.246398
C31   C     C_3   0.676856 0.569805 0.032552 -0.246395
C32   C     C_3   0.823147 0.069818 0.967450 -0.246398
C33   C     C_3   0.176849 0.069815 0.032547 -0.246396
C34   C     C_3   0.180924 0.522519 0.025035 -0.215469
C35   C     C_3   0.819077 0.522500 0.974967 -0.215457
C36   C     C_3   0.680924 0.022503 0.025032 -0.215464
C37   C     C_R   0.727535 0.044677 0.146383 0.533434
C38   C     C_3   0.319074 0.022510 0.974965 -0.215466
C39   C     C_3   0.235784 0.713560 0.056778 -0.121928
C40   C     C_3   0.764230 0.713553 0.943229 -0.121923
C41   C     C_3   0.735772 0.213554 0.056774 -0.121922
C42   C     C_3   0.264224 0.213559 0.943224 -0.121925
C43   C     C_3   0.240075 0.579393 0.071123 0.055024
C44   C     C_3   0.759929 0.579387 0.928879 0.055026
C45   C     C_3   0.740071 0.079388 0.071121 0.055023
C46   C     C_3   0.259926 0.079393 0.928876 0.055030
C47   C     C_3   0.255155 0.616061 0.933404 0.037259
C48   C     C_R   0.772465 0.544677 0.853616 0.533435
C49   C     C_3   0.744849 0.616047 0.066599 0.037257
C50   C     C_3   0.755153 0.116053 0.933402 0.037258
C51   C     C_3   0.244844 0.116053 0.066596 0.037263
C52   C     C_3   0.197840 0.524749 0.944893 -0.256736
C53   C     C_3   0.802165 0.524739 0.055110 -0.256736
C54   C     C_3   0.697839 0.024739 0.944890 -0.256731
C55   C     C_3   0.302159 0.024742 0.055107 -0.256742
C56   C     C_3   0.233307 0.730232 0.974268 -0.221442
C57   C     C_3   0.766694 0.730219 0.025738 -0.221429
C58   C     C_3   0.733304 0.230223 0.974264 -0.221434
C59   C     C_R   0.227536 0.544679 0.146385 0.533441
C60   C     C_3   0.266688 0.230226 0.025734 -0.221435
C61   C     C_3   0.505190 0.701126 0.460510 -0.233061
C62   C     C_3   0.494822 0.701127 0.539493 -0.233063
C63   C     C_3   0.005190 0.201126 0.460510 -0.233061
C64   C     C_3   0.994823 0.201127 0.539493 -0.233063
C65   C     C_R   0.443258 0.817187 0.862156 0.536952
C66   C     C_R   0.556746 0.817186 0.137845 0.536955
C67   C     C_R   0.943257 0.317187 0.862156 0.536951
C68   C     C_R   0.056746 0.317186 0.137845 0.536952
C69   C     C_3   0.574504 0.886767 0.491147 -0.270695
C70   C     C_3   0.519339 0.724547 0.964549 -0.109748
C71   C     C_3   0.425509 0.886765 0.508855 -0.270700
C72   C     C_3   0.074504 0.386767 0.491147 -0.270694
C73   C     C_3   0.925509 0.386765 0.508855 -0.270699
C74   C     C_3   0.459122 0.904387 0.435866 -0.225010
C75   C     C_3   0.540891 0.904387 0.564137 -0.225014
C76   C     C_3   0.959122 0.404387 0.435866 -0.225010
C77   C     C_3   0.040891 0.404387 0.564137 -0.225014
C78   C     C_3   0.524450 0.828086 0.435225 0.061313
C79   C     C_3   0.475563 0.828087 0.564778 0.061316
C80   C     C_3   0.024450 0.328086 0.435225 0.061313
C81   C     C_3   0.480655 0.724565 0.035457 -0.109751
C82   C     C_3   0.975563 0.328087 0.564778 0.061316
C83   C     C_3   0.180230 0.652909 0.458733 -0.228619
C84   C     C_3   0.819766 0.652914 0.541269 -0.228625
C85   C     C_3   0.680230 0.152909 0.458733 -0.228619
C86   C     C_3   0.319766 0.152915 0.541269 -0.228625
C87   C     C_3   0.181002 0.656547 0.538728 -0.225372
C88   C     C_3   0.818993 0.656559 0.461274 -0.225371
C89   C     C_3   0.681002 0.156548 0.538728 -0.225372
C90   C     C_3   0.318993 0.156560 0.461274 -0.225372
C91   C     C_3   0.242367 0.450765 0.473683 -0.212459
C92   C     C_3   0.019343 0.224556 0.964546 -0.109751
C93   C     C_3   0.757646 0.450763 0.526316 -0.212458
C94   C     C_3   0.742366 0.950765 0.473683 -0.212458
C95   C     C_3   0.257647 0.950763 0.526316 -0.212458
C96   C     C_3   0.306594 0.634765 0.447806 -0.265332
C97   C     C_3   0.693401 0.634746 0.552192 -0.265325
C98   C     C_3   0.806594 0.134764 0.447806 -0.265332
C99   C     C_3   0.193401 0.134746 0.552192 -0.265325
C100  C     C_3   0.238836 0.570285 0.431413 0.066139
C101  C     C_3   0.761163 0.570283 0.568587 0.066134
C102  C     C_3   0.738836 0.070285 0.431413 0.066139
C103  C     C_3   0.980660 0.224557 0.035454 -0.109752
C104  C     C_3   0.261163 0.070283 0.568587 0.066134
C105  C     C_3   0.248461 0.598889 0.570012 0.067170
C106  C     C_3   0.751539 0.598887 0.429988 0.067169
C107  C     C_3   0.748461 0.098889 0.570012 0.067171
C108  C     C_3   0.251539 0.098887 0.429988 0.067168
C109  C     C_3   0.240123 0.467262 0.556310 -0.265686
C110  C     C_3   0.759888 0.467262 0.443689 -0.265686
C111  C     C_3   0.740123 0.967262 0.556310 -0.265686
C112  C     C_3   0.259889 0.967262 0.443689 -0.265685
C113  C     C_R   0.262873 0.644915 0.855965 0.540964
C114  C     C_3   0.312660 0.538640 0.046506 -0.251893
C115  C     C_R   0.737129 0.644904 0.144038 0.540957
C116  C     C_R   0.762872 0.144910 0.855963 0.540961
C117  C     C_R   0.237127 0.144911 0.144036 0.540969
C118  C     C_3   0.315214 0.635391 0.530090 -0.214675
C119  C     C_3   0.684781 0.635368 0.469909 -0.214677
C120  C     C_3   0.815214 0.135391 0.530090 -0.214675
C121  C     C_3   0.184781 0.135367 0.469909 -0.214677
C122  C     C_R   0.273073 0.043209 0.645338 0.535602
C123  C     C_R   0.726927 0.043209 0.354662 0.535605
C124  C     C_R   0.773073 0.543209 0.645338 0.535604
Cr1   Cr    Cr6+3 0.229620 0.836040 0.749110 0.996167
Cr2   Cr    Cr6+3 0.613980 0.676590 0.250790 1.012483
Cr3   Cr    Cr6+3 0.886020 0.176590 0.749210 1.012484
Cr4   Cr    Cr6+3 0.113980 0.176590 0.250790 1.012491
Cr5   Cr    Cr6+3 0.770380 0.836040 0.250890 0.996166
Cr6   Cr    Cr6+3 0.729620 0.336040 0.749110 0.996168
Cr7   Cr    Cr6+3 0.270380 0.336040 0.250890 0.996169
Cr8   Cr    Cr6+3 0.387630 0.990680 0.750730 1.021001
Cr9   Cr    Cr6+3 0.612370 0.990680 0.249270 1.021001
Cr10  Cr    Cr6+3 0.887630 0.490680 0.750730 1.021001
Cr11  Cr    Cr6+3 0.112370 0.490680 0.249270 1.020999
Cr12  Cr    Cr6+3 0.386020 0.676590 0.749210 1.012485
H1    H     H_    0.376581 0.809855 0.020453 0.091174
H2    H     H_    0.733479 0.802099 0.041165 0.098934
H3    H     H_    0.206807 0.912856 0.537700 0.124235
H4    H     H_    0.282967 0.419708 0.583712 0.109669
H5    H     H_    0.717051 0.419694 0.416286 0.109666
H6    H     H_    0.782967 0.919708 0.583712 0.109669
H7    H     H_    0.217051 0.919693 0.416286 0.109668
H8    H     H_    0.319690 0.443162 0.054193 0.140163
H9    H     H_    0.680296 0.443172 0.945791 0.140166
H10   H     H_    0.819693 0.943167 0.054197 0.140163
H11   H     H_    0.180295 0.943175 0.945790 0.140163
H12   H     H_    0.353277 0.581999 0.079974 0.114166
H13   H     H_    0.766515 0.302108 0.958837 0.098941
H14   H     H_    0.646728 0.582036 0.920034 0.114164
H15   H     H_    0.853273 0.082015 0.079971 0.114168
H16   H     H_    0.146726 0.082035 0.920027 0.114163
H17   H     H_    0.364305 0.636268 0.961858 0.128420
H18   H     H_    0.635693 0.636232 0.038158 0.128435
H19   H     H_    0.864305 0.136256 0.961852 0.128425
H20   H     H_    0.135689 0.136249 0.038150 0.128425
H21   H     H_    0.341461 0.492109 0.938677 0.170111
H22   H     H_    0.658555 0.492075 0.061319 0.170100
H23   H     H_    0.841456 0.992097 0.938679 0.170106
H24   H     H_    0.233473 0.302108 0.041161 0.098927
H25   H     H_    0.158542 0.992089 0.061314 0.170105
H26   H     H_    0.667537 0.936663 0.046369 0.094390
H27   H     H_    0.332462 0.936672 0.953626 0.094391
H28   H     H_    0.167534 0.436682 0.046372 0.094399
H29   H     H_    0.832462 0.436660 0.953630 0.094386
H30   H     H_    0.715589 0.938268 0.926506 0.118486
H31   H     H_    0.284408 0.938269 0.073485 0.118493
H32   H     H_    0.215590 0.438276 0.926513 0.118489
H33   H     H_    0.784419 0.438267 0.073496 0.118478
H34   H     H_    0.179646 0.752885 0.956540 0.141241
H35   H     H_    0.820351 0.752882 0.043476 0.141254
H36   H     H_    0.679647 0.252881 0.956528 0.141252
H37   H     H_    0.320347 0.252883 0.043472 0.141257
H38   H     H_    0.631812 0.072395 0.031819 0.151604
H39   H     H_    0.368185 0.072404 0.968181 0.151609
H40   H     H_    0.131816 0.572420 0.031822 0.151598
H41   H     H_    0.623431 0.809794 0.979556 0.091171
H42   H     H_    0.868189 0.572389 0.968179 0.151603
H43   H     H_    0.150645 0.547715 0.913106 0.128944
H44   H     H_    0.849361 0.547714 0.086894 0.128941
H45   H     H_    0.650643 0.047707 0.913103 0.128938
H46   H     H_    0.349354 0.047701 0.086895 0.128946
H47   H     H_    0.544073 0.633809 0.448057 0.124653
H48   H     H_    0.455938 0.633809 0.551944 0.124654
H49   H     H_    0.044073 0.133809 0.448058 0.124654
H50   H     H_    0.955938 0.133809 0.551944 0.124654
H51   H     H_    0.456885 0.672012 0.432802 0.135415
H52   H     H_    0.876579 0.309832 0.020454 0.091179
H53   H     H_    0.543126 0.672013 0.567201 0.135414
H54   H     H_    0.956885 0.172012 0.432802 0.135415
H55   H     H_    0.043126 0.172013 0.567202 0.135414
H56   H     H_    0.616912 0.830184 0.505169 0.106339
H57   H     H_    0.383105 0.830171 0.494831 0.106347
H58   H     H_    0.116913 0.330184 0.505169 0.106339
H59   H     H_    0.883106 0.330171 0.494832 0.106346
H60   H     H_    0.576880 0.878406 0.608597 0.120925
H61   H     H_    0.423133 0.878408 0.391406 0.120934
H62   H     H_    0.076880 0.378406 0.608597 0.120925
H63   H     H_    0.123430 0.309823 0.979556 0.091171
H64   H     H_    0.923133 0.378408 0.391406 0.120933
H65   H     H_    0.465646 0.998506 0.065545 0.122794
H66   H     H_    0.534391 0.998473 0.934437 0.122784
H67   H     H_    0.965634 0.498490 0.065554 0.122786
H68   H     H_    0.034376 0.498487 0.934445 0.122786
H69   H     H_    0.472198 0.999379 0.428127 0.129128
H70   H     H_    0.527814 0.999378 0.571878 0.129126
H71   H     H_    0.972198 0.499379 0.428127 0.129128
H72   H     H_    0.027814 0.499378 0.571878 0.129126
H73   H     H_    0.406608 0.970187 0.529371 0.123785
H74   H     H_    0.282729 0.753594 0.080925 0.086175
H75   H     H_    0.593402 0.970187 0.470630 0.123790
H76   H     H_    0.906608 0.470187 0.529371 0.123785
H77   H     H_    0.093402 0.470187 0.470630 0.123790
H78   H     H_    0.127146 0.632658 0.439804 0.135389
H79   H     H_    0.872850 0.632660 0.560195 0.135393
H80   H     H_    0.627147 0.132658 0.439804 0.135389
H81   H     H_    0.372850 0.132660 0.560195 0.135393
H82   H     H_    0.188140 0.742690 0.437639 0.112651
H83   H     H_    0.811854 0.742692 0.562368 0.112655
H84   H     H_    0.688140 0.242690 0.437639 0.112650
H85   H     H_    0.717294 0.753600 0.919071 0.086166
H86   H     H_    0.311853 0.242692 0.562368 0.112655
H87   H     H_    0.171916 0.747714 0.555332 0.137182
H88   H     H_    0.828069 0.747728 0.444672 0.137185
H89   H     H_    0.671917 0.247714 0.555332 0.137182
H90   H     H_    0.328068 0.247728 0.444673 0.137185
H91   H     H_    0.134994 0.609178 0.559178 0.112574
H92   H     H_    0.865005 0.609203 0.440823 0.112577
H93   H     H_    0.634995 0.109178 0.559178 0.112574
H94   H     H_    0.365005 0.109204 0.440823 0.112577
H95   H     H_    0.704302 0.889065 0.452477 0.106379
H96   H     H_    0.782709 0.253599 0.080930 0.086169
H97   H     H_    0.295724 0.889093 0.547522 0.106370
H98   H     H_    0.204303 0.389062 0.452477 0.106379
H99   H     H_    0.795724 0.389093 0.547522 0.106370
H100  H     H_    0.691402 0.933820 0.578956 0.106694
H101  H     H_    0.308614 0.933833 0.421044 0.106697
H102  H     H_    0.191402 0.433819 0.578956 0.106694
H103  H     H_    0.808614 0.433833 0.421044 0.106696
H104  H     H_    0.350467 0.587237 0.423067 0.112758
H105  H     H_    0.649532 0.587208 0.576932 0.112764
H106  H     H_    0.850467 0.087237 0.423067 0.112758
H107  H     H_    0.217288 0.253605 0.919065 0.086167
H108  H     H_    0.149532 0.087207 0.576932 0.112764
H109  H     H_    0.305749 0.725632 0.425711 0.108240
H110  H     H_    0.694240 0.725614 0.574287 0.108235
H111  H     H_    0.805749 0.225632 0.425711 0.108239
H112  H     H_    0.194240 0.225614 0.574287 0.108235
H113  H     H_    0.534155 0.642925 0.935785 0.132921
H114  H     H_    0.465824 0.642959 0.064228 0.132920
H115  H     H_    0.034165 0.142941 0.935778 0.132919
H116  H     H_    0.965835 0.142944 0.064221 0.132918
H117  H     H_    0.333847 0.716905 0.553364 0.107975
H118  H     H_    0.266514 0.802119 0.958837 0.098943
H119  H     H_    0.666133 0.716873 0.446634 0.107981
H120  H     H_    0.833848 0.216905 0.553364 0.107976
H121  H     H_    0.166132 0.216871 0.446633 0.107980
H122  H     H_    0.355413 0.568717 0.543518 0.120753
H123  H     H_    0.644592 0.568676 0.456482 0.120750
H124  H     H_    0.855413 0.068717 0.543518 0.120753
H125  H     H_    0.144592 0.068674 0.456483 0.120750
H126  H     H_    0.293215 0.412888 0.462302 0.124225
H127  H     H_    0.706807 0.412857 0.537700 0.124235
H128  H     H_    0.793214 0.912887 0.462302 0.124226
N1    N     N_1   0.126738 0.809903 0.116598 -0.303961
N2    N     N_1   0.873307 0.809870 0.883449 -0.303983
N3    N     N_1   0.626692 0.309864 0.116556 -0.303974
N4    N     N_1   0.373306 0.309875 0.883448 -0.303978
O1    O     O_R   0.214130 0.708570 0.829890 -0.526921
O2    O     O_R   0.542830 0.717300 0.331620 -0.523966
O3    O     O_R   0.957170 0.217300 0.668380 -0.523968
O4    O     O_R   0.042830 0.217300 0.331620 -0.523966
O5    O     O_R   0.320870 0.624890 0.673130 -0.517289
O6    O     O_R   0.679130 0.624890 0.326870 -0.517294
O7    O     O_R   0.820870 0.124890 0.673130 -0.517290
O8    O     O_R   0.179130 0.124890 0.326870 -0.517291
O9    O     O_3   0.334430 0.834430 0.749680 -0.301290
O10   O     O_3   0.665570 0.834430 0.250320 -0.301297
O11   O     O_3   0.834430 0.334430 0.749680 -0.301289
O12   O     O_R   0.785870 0.708570 0.170110 -0.526926
O13   O     O_3   0.165570 0.334430 0.250320 -0.301301
O14   O     O_R   0.236050 0.959150 0.825270 -0.517783
O15   O     O_R   0.763950 0.959150 0.174730 -0.517779
O16   O     O_R   0.736050 0.459150 0.825270 -0.517781
O17   O     O_R   0.263950 0.459150 0.174730 -0.517781
O18   O     O_R   0.332100 0.076650 0.832310 -0.500798
O19   O     O_R   0.667900 0.076650 0.167690 -0.500797
O20   O     O_R   0.832100 0.576650 0.832310 -0.500798
O21   O     O_R   0.167900 0.576650 0.167690 -0.500795
O22   O     O_R   0.446500 0.918620 0.826240 -0.497080
O23   O     O_R   0.714130 0.208570 0.829890 -0.526926
O24   O     O_R   0.553500 0.918620 0.173760 -0.497079
O25   O     O_R   0.946500 0.418620 0.826240 -0.497081
O26   O     O_R   0.053500 0.418620 0.173760 -0.497083
O27   O     O_R   0.457310 0.715830 0.831280 -0.514236
O28   O     O_R   0.542690 0.715830 0.168720 -0.514234
O29   O     O_R   0.957310 0.215830 0.831280 -0.514236
O30   O     O_R   0.042690 0.215830 0.168720 -0.514236
O31   O     O_R   0.321000 0.623520 0.824130 -0.506306
O32   O     O_R   0.679000 0.623520 0.175870 -0.506307
O33   O     O_R   0.821000 0.123520 0.824130 -0.506306
O34   O     O_R   0.285870 0.208570 0.170110 -0.526923
O35   O     O_R   0.179000 0.123520 0.175870 -0.506296
O36   O     O_R   0.213990 0.710040 0.667000 -0.530742
O37   O     O_R   0.786010 0.710040 0.333000 -0.530742
O38   O     O_R   0.713990 0.210040 0.667000 -0.530742
O39   O     O_R   0.286010 0.210040 0.333000 -0.530741
O40   O     O_R   0.235920 0.960520 0.674260 -0.511282
O41   O     O_R   0.764080 0.960520 0.325740 -0.511281
O42   O     O_R   0.735920 0.460520 0.674260 -0.511282
O43   O     O_R   0.264080 0.460520 0.325740 -0.511282
O44   O     O_R   0.331960 0.078120 0.669410 -0.531981
O45   O     O_R   0.446360 0.919990 0.675230 -0.503816
O46   O     O_R   0.668040 0.078120 0.330590 -0.531981
O47   O     O_R   0.831960 0.578120 0.669410 -0.531980
O48   O     O_R   0.168040 0.578120 0.330590 -0.531977
O49   O     O_R   0.553640 0.919990 0.324770 -0.503814
O50   O     O_R   0.946360 0.419990 0.675230 -0.503816
O51   O     O_R   0.053640 0.419990 0.324770 -0.503815
O52   O     O_R   0.457170 0.717300 0.668380 -0.523968

loop_
_geom_bond_atom_site_label_1
_geom_bond_atom_site_label_2
_ccdc_geom_bond_type
C94   H128  S    
C8    O36   A    
C29   C42   S    
C35   C53   S    
C107  C120  S    
Cr7   O34   S    
C83   C87   S    
C10   O7    A    
C48   O16   A    
C33   H20   S    
C5    O49   A    
Cr2   O10   S    
C91   H98   S    
C7    O51   A    
Cr10  O11   S    
C13   H10   S    
C14   C21   S    
Cr11  O26   S    
C72   H58   S    
C1    C46   S    
C10   O38   A    
C94   C111  S    
Cr5   O15   S    
C73   H76   S    
C111  H6    S    
Cr1   O36   S    
Cr5   O37   S    
C3    C100  S    
C38   C55   S    
C18   H41   S    
Cr10  O20   S    
C69   H75   S    
C91   C100  S    
C108  C121  S    
C93   C110  S    
C99   C121  S    
C35   H42   S    
C72   H77   S    
Cr9   O46   S    
C1    O18   A    
Cr2   O2    S    
Cr2   O28   S    
C13   H15   S    
C86   C90   S    
C93   C101  S    
Cr7   O17   S    
C83   H82   S    
Cr6   O38   S    
C98   C102  S    
Cr7   O43   S    
C17   C21   S    
C87   H87   S    
C19   C23   S    
C19   H52   S    
C20   C92   S    
C30   C47   S    
C39   C56   S    
C66   O28   A    
C16   C20   S    
C123  O46   A    
C111  H100  S    
C93   H127  S    
Cr11  O21   S    
C70   H113  S    
C59   O21   A    
C49   C115  S    
C83   C100  S    
Cr4   O8    S    
C105  C118  S    
C37   C45   S    
C102  C123  S    
C96   H109  S    
C90   H90   S    
C84   C88   S    
Cr3   O7    S    
C15   H67   S    
C98   C120  S    
C47   C52   S    
C118  H122  S    
C95   H3    S    
C40   H85   S    
C24   C46   S    
Cr1   O40   S    
Cr9   O49   S    
C13   C45   S    
C77   C82   S    
C49   C53   S    
C51   C55   S    
C98   H106  S    
C94   C102  S    
C29   N4    T    
C41   C45   S    
C17   H1    S    
C16   H68   S    
C75   C79   S    
C64   H50   S    
C44   C48   S    
C115  O12   A    
C2    H14   S    
C56   H118  S    
C110  H5    S    
C28   C41   S    
C13   C32   S    
Cr12  O5    S    
C86   C104  S    
C8    C105  S    
C37   O19   A    
C71   C79   S    
C59   O17   A    
C5    O2    A    
Cr1   O9    S    
C7    O4    A    
Cr12  O27   S    
C113  O1    A    
C41   C58   S    
C34   H28   S    
C15   C25   S    
C27   N2    T    
C104  C122  S    
C12   C22   S    
C49   C57   S    
C23   C67   S    
C99   H108  S    
C2    C44   S    
C71   H73   S    
C117  O34   A    
C88   H88   S    
C77   H62   S    
C4    O52   A    
C43   C59   S    
C75   H60   S    
C6    O50   A    
Cr2   O6    S    
Cr3   O3    S    
C122  O40   A    
Cr4   O4    S    
C117  O35   A    
C63   C80   S    
C101  C124  S    
C11   O39   A    
Cr5   O41   S    
Cr4   O35   S    
C97   C119  S    
C124  O47   A    
C118  H117  S    
C87   C105  S    
C27   C40   S    
C64   C82   S    
C54   H45   S    
Cr5   O10   S    
C38   H27   S    
C16   C23   S    
Cr7   O13   S    
C31   H18   S    
Cr6   O42   S    
Cr7   O39   S    
C56   H34   S    
C6    O3    A    
C18   C22   S    
C107  C111  S    
C34   C43   S    
C76   C80   S    
C24   H11   S    
C4    O45   A    
Cr12  O31   S    
C63   H54   S    
C52   H43   S    
C90   C108  S    
C72   C80   S    
Cr11  O51   S    
C88   H92   S    
Cr12  O52   S    
C96   C100  S    
C51   C117  S    
C55   H46   S    
C61   C62   S    
C62   C79   S    
C38   C46   S    
C36   C54   S    
C62   H48   S    
C63   C64   S    
C40   C44   S    
C11   C108  S    
C23   C92   S    
C90   H94   S    
C51   C60   S    
Cr3   O11   S    
Cr10  O47   S    
C85   C102  S    
C121  H121  S    
C47   C56   S    
C74   H69   S    
C65   O22   A    
C30   H21   S    
C119  H123  S    
C36   H38   S    
C106  C119  S    
C55   H31   S    
C81   H114  S    
C83   H78   S    
C109  H102  S    
C2    H9    S    
C15   C19   S    
C50   C54   S    
C28   N3    T    
C109  H4    S    
C112  H7    S    
C85   H84   S    
C31   C49   S    
C95   C112  S    
C43   C114  S    
C26   C39   S    
C71   H57   S    
C20   C25   S    
C42   H107  S    
C61   H51   S    
Cr5   O12   S    
C42   C46   S    
C105  C109  S    
C24   H16   S    
C63   H49   S    
C12   C17   S    
C124  O42   A    
C37   O15   A    
C8    O5    A    
C84   H79   S    
C53   H33   S    
C32   H23   S    
C99   C104  S    
C113  O31   A    
C67   O29   A    
C36   H26   S    
C60   H37   S    
C96   H104  S    
C25   C68   S    
C54   H30   S    
C69   H56   S    
C62   H53   S    
C50   C58   S    
C22   C81   S    
C85   H80   S    
C97   H110  S    
C85   C89   S    
Cr9   O10   S    
C108  C112  S    
C39   H74   S    
C115  O32   A    
C114  H8    S    
Cr8   O45   S    
C58   H36   S    
Cr3   O29   S    
C41   H96   S    
C89   C107  S    
C122  O44   A    
C123  O41   A    
C87   H91   S    
C73   H59   S    
C73   C76   S    
Cr8   O22   S    
C73   C82   S    
C64   H55   S    
C30   C114  S    
C47   C113  S    
C40   C57   S    
C21   C65   S    
C3    O43   A    
C89   H89   S    
C119  H119  S    
C71   C74   S    
C33   C51   S    
C34   C52   S    
C24   C33   S    
C114  H12   S    
C120  H124  S    
C48   O20   A    
C38   H39   S    
C68   O30   A    
C116  O33   A    
C69   C75   S    
C17   C81   S    
C31   H22   S    
C97   H105  S    
Cr11  O48   S    
C9    O37   A    
C112  H101  S    
C74   C78   S    
C5    C78   S    
C7    C80   S    
C18   C70   S    
C6    C82   S    
C14   C18   S    
C33   H25   S    
Cr11  O13   S    
Cr10  O50   S    
C93   H99   S    
Cr8   O9    S    
C103  H116  S    
C96   C118  S    
C1    O14   A    
C75   H70   S    
Cr2   O32   S    
C15   C16   S    
C14   H66   S    
Cr6   O11   S    
C70   C81   S    
C65   O27   A    
C22   C66   S    
Cr6   O16   S    
C92   C103  S    
C121  H125  S    
C19   C103  S    
C30   H17   S    
Cr8   O18   S    
Cr9   O19   S    
C68   O26   A    
C58   H13   S    
C26   N1    T    
C66   O24   A    
C84   C101  S    
C69   C78   S    
Cr4   O13   S    
C94   H95   S    
C11   O8    A    
C61   H47   S    
Cr9   O24   S    
C9    O6    A    
C4    C79   S    
C76   H64   S    
C77   H72   S    
C42   C60   S    
C110  H103  S    
C25   C103  S    
C39   C43   S    
C9    C106  S    
Cr1   O1    S    
C2    C31   S    
C86   H81   S    
Cr6   O23   S    
C120  H120  S    
C20   H63   S    
C72   C77   S    
C84   H83   S    
C32   H19   S    
C88   C106  S    
C74   H61   S    
C61   C78   S    
C67   O25   A    
C36   C45   S    
C12   H65   S    
Cr8   O44   S    
C35   C44   S    
C32   C50   S    
C91   H126  S    
C12   C14   S    
C53   H44   S    
C10   C107  S    
C95   C104  S    
C106  C110  S    
C92   H115  S    
C60   H24   S    
Cr3   O33   S    
C76   H71   S    
Cr4   O30   S    
C86   H86   S    
C116  O23   A    
C21   C70   S    
C3    O48   A    
C91   C109  S    
Cr12  O9    S    
Cr10  O25   S    
C98   H111  S    
C52   H32   S    
C35   H29   S    
C57   H2    S    
C50   C116  S    
C34   H40   S    
Cr1   O14   S    
C95   H97   S    
C89   H93   S    
C99   H112  S    
C97   C101  S    
C57   H35   S    
