data_mof_unit_44165.cif
_audit_creation_date              2012-12-11T14:15:26-0500
_audit_creation_method            fapswitch 2.2
_symmetry_space_group_name_H-M    P1
_symmetry_Int_Tables_number       1
_space_group_crystal_system       triclinic
_cell_length_a                    11.150231
_cell_length_b                    12.688584
_cell_length_c                    23.575061
_cell_angle_alpha                 90.523967
_cell_angle_beta                  96.998783
_cell_angle_gamma                 68.674732
_cell_volume                      3081.65920764

loop_
_atom_site_label
_atom_site_type_symbol
_atom_type_description
_atom_site_fract_x
_atom_site_fract_y
_atom_site_fract_z
_atom_type_partial_charge
C1    C     C_R   0.149320 0.616930 0.428897 0.546358
C2    C     C_R   0.669847 0.552771 0.309561 -0.117378
C3    C     C_R   0.711906 0.726815 0.317730 -0.138848
C4    C     C_R   0.705699 0.736023 0.258246 0.024300
C5    C     C_R   0.689619 0.647553 0.224820 0.025822
C6    C     C_R   0.689994 0.654365 0.166208 -0.154234
C7    C     C_R   0.705025 0.841117 0.171324 0.035956
C8    C     C_R   0.719351 0.830025 0.231647 0.099675
C9    C     C_1   0.236691 0.161873 0.123168 -0.014274
C10   C     C_2   0.183115 0.232422 0.226702 -0.125294
C11   C     C_2   0.152414 0.167030 0.262399 -0.124738
C12   C     C_R   0.750063 0.603550 0.403631 0.543845
C13   C     C_1   0.130493 0.200620 0.320187 -0.047392
C14   C     C_1   0.211820 0.196608 0.169881 -0.057703
C15   C     C_1   0.114949 0.233259 0.368040 -0.003854
C16   C     C_1   0.171584 0.748940 0.124274 -0.029023
C17   C     C_2   0.149652 0.684486 0.228177 -0.137547
C18   C     C_2   0.236780 0.683010 0.273114 -0.135773
C19   C     C_1   0.218052 0.656343 0.330146 -0.049292
C20   C     C_1   0.161657 0.718255 0.171326 -0.072833
C21   C     C_1   0.194052 0.636567 0.376655 -0.005572
C22   C     C_1   0.614573 0.766177 0.862908 -0.020099
C23   C     C_R   0.100822 0.282637 0.423192 0.545600
C24   C     C_2   0.643520 0.762463 0.753301 0.009470
C25   C     C_2   0.673796 0.661656 0.728906 -0.113229
C26   C     C_1   0.685044 0.647701 0.668961 -0.063939
C27   C     C_1   0.632955 0.763628 0.813672 -0.044035
C28   C     C_1   0.705487 0.630727 0.620213 -0.017354
C29   C     C_R   0.195585 0.180244 0.854623 0.012343
C30   C     C_R   0.106012 0.238706 0.642839 0.018212
C31   C     C_R   0.036078 0.144041 0.712983 -0.141431
C32   C     C_R   0.035715 0.172515 0.656004 -0.140354
C33   C     C_R   0.170829 0.281191 0.686147 -0.124540
C34   C     C_R   0.147832 0.614637 0.592050 0.535320
C35   C     C_R   0.170503 0.254781 0.742613 0.043021
C36   C     C_R   0.104692 0.183867 0.756387 0.042529
C37   C     C_R   0.115281 0.149006 0.812975 -0.129989
C38   C     C_R   0.252674 0.257084 0.841319 -0.131905
C39   C     C_R   0.239189 0.295181 0.785302 -0.138558
C40   C     C_R   0.125174 0.742613 0.854266 0.010783
C41   C     C_R   0.181435 0.627945 0.652927 0.009488
C42   C     C_R   0.308849 0.566381 0.745650 -0.122100
C43   C     C_R   0.298922 0.557614 0.685864 -0.019144
C44   C     C_R   0.080038 0.703110 0.679956 -0.129504
C45   C     C_R   0.749967 0.602075 0.565875 0.542547
C46   C     C_R   0.090713 0.709499 0.738388 0.038282
C47   C     C_R   0.206122 0.641498 0.771521 0.029068
C48   C     C_R   0.220527 0.655281 0.829957 -0.126856
C49   C     C_R   0.005768 0.803054 0.821984 -0.130697
C50   C     C_R   0.988218 0.785745 0.763991 -0.134035
C51   C     C_R   0.266132 0.109766 0.069554 0.543496
C52   C     C_R   0.602406 0.775099 0.081059 0.537652
C53   C     C_R   0.190610 0.787841 0.070070 0.543305
C54   C     C_R   0.240684 0.115138 0.907920 0.544574
C55   C     C_R   0.573827 0.776984 0.918396 0.545648
C56   C     C_R   0.099730 0.279920 0.585389 0.540847
C57   C     C_R   0.163257 0.785722 0.907838 0.544078
C58   C     C_R   0.677387 0.755464 0.138695 -0.025426
C59   C     C_R   0.700016 0.633173 0.343418 -0.009061
C60   C     C_R   0.668023 0.556415 0.250540 -0.005019
Cr1   Cr    Cr6+3 0.189770 0.415650 0.511620 1.010259
Cr2   Cr    Cr6+3 0.930400 0.667320 0.496770 1.015433
Cr3   Cr    Cr6+3 0.879870 0.417010 0.491650 1.018392
Cr4   Cr    Cr6+3 0.149500 0.973980 0.985330 1.010143
Cr5   Cr    Cr6+3 0.457000 0.976510 0.994660 1.005271
Cr6   Cr    Cr6+3 0.411170 0.724270 0.995270 1.010452
H1    H     H_    0.682988 0.585589 0.140470 0.141782
H2    H     H_    0.065603 0.663618 0.234126 0.140550
H3    H     H_    0.697445 0.585232 0.755261 0.115652
H4    H     H_    0.071767 0.089052 0.823536 0.125812
H5    H     H_    0.314107 0.281909 0.873638 0.122459
H6    H     H_    0.984416 0.090317 0.723058 0.104937
H7    H     H_    0.288633 0.350517 0.774950 0.106536
H8    H     H_    0.981629 0.142958 0.622440 0.114825
H9    H     H_    0.220315 0.336737 0.675938 0.123953
H10   H     H_    0.312051 0.606412 0.855108 0.125015
H11   H     H_    0.930263 0.869331 0.840470 0.126451
H12   H     H_    0.395979 0.515758 0.772808 0.097507
H13   H     H_    0.898283 0.837157 0.738677 0.102423
H14   H     H_    0.988930 0.755639 0.655663 0.134457
H15   H     H_    0.656970 0.481665 0.329523 0.138008
H16   H     H_    0.732917 0.788795 0.344822 0.129611
H17   H     H_    0.146415 0.086850 0.248792 0.134095
H18   H     H_    0.189858 0.312251 0.240487 0.136505
H19   H     H_    0.320054 0.705284 0.267534 0.137666
O1    O     O_R   0.196340 0.303200 0.448500 -0.506081
O2    O     O_R   0.811960 0.658090 0.547150 -0.498067
O3    O     O_R   0.757930 0.506140 0.547110 -0.517159
O4    O     O_R   0.988670 0.321620 0.556040 -0.497547
O5    O     O_3   0.000020 0.499990 0.500010 -0.242176
O6    O     O_R   0.113660 0.883270 0.047820 -0.516788
O7    O     O_R   0.186930 0.068530 0.043990 -0.497854
O8    O     O_R   0.377770 0.089040 0.054220 -0.519289
O9    O     O_R   0.562800 0.872960 0.056970 -0.512988
O10   O     O_R   0.555390 0.700940 0.062700 -0.521946
O11   O     O_R   0.295020 0.731920 0.049950 -0.496520
O12   O     O_R   0.199310 0.519670 0.454880 -0.492361
O13   O     O_R   0.094290 0.884230 0.921550 -0.521492
O14   O     O_R   0.168980 0.069410 0.926940 -0.503759
O15   O     O_R   0.358400 0.089990 0.927950 -0.517694
O16   O     O_R   0.544850 0.873850 0.939920 -0.495917
O17   O     O_R   0.536020 0.701900 0.936430 -0.512701
O18   O     O_R   0.277070 0.732810 0.932890 -0.506224
O19   O     O_3   0.339220 0.891590 0.991750 -0.236797
O20   O     O_R   0.045660 0.691380 0.441680 -0.510236
O21   O     O_R   0.811930 0.659460 0.430950 -0.502746
O22   O     O_R   0.757900 0.507620 0.421760 -0.519651
O23   O     O_R   0.988630 0.322990 0.439840 -0.496091
O24   O     O_R   0.196380 0.301720 0.573850 -0.531410
O25   O     O_R   0.199350 0.518300 0.571080 -0.515750
O26   O     O_R   0.045700 0.689900 0.567030 -0.521671
C61   C     C_3   0.603371 0.872244 0.717795 -0.236205
C62   C     C_3   0.581015 0.978013 0.753688 -0.296138
C63   C     C_3   0.542235 0.084924 0.715698 -0.453048
H20   H     H_    0.620736 0.079416 0.689648 0.145326
H21   H     H_    0.451372 0.096780 0.686867 0.166990
H22   H     H_    0.525210 0.159696 0.742826 0.143229
H23   H     H_    0.502063 0.987956 0.780307 0.183292
H24   H     H_    0.671356 0.968751 0.782422 0.158725
H25   H     H_    0.679761 0.865653 0.690251 0.140486
H26   H     H_    0.512160 0.882712 0.689425 0.153471
C64   C     C_3   0.720832 0.944376 0.145056 -0.220607
C65   C     C_3   0.863601 0.932743 0.152179 -0.298270
C66   C     C_3   0.878729 0.041878 0.133843 -0.435472
H27   H     H_    0.838794 0.064314 0.088190 0.152888
H28   H     H_    0.827396 0.112442 0.160678 0.149315
H29   H     H_    0.983275 0.029967 0.139174 0.168697
H30   H     H_    0.909101 0.910315 0.197144 0.198584
H31   H     H_    0.915695 0.863903 0.124817 0.170118
H32   H     H_    0.688145 0.959209 0.098988 0.168689
H33   H     H_    0.661376 0.021937 0.165573 0.172938
C67   C     C_3   0.410013 0.475012 0.657178 -0.242581
C68   C     C_3   0.538519 0.416751 0.696139 -0.322421
C69   C     C_3   0.645235 0.344341 0.662028 -0.445983
H34   H     H_    0.616775 0.277546 0.640097 0.145431
H35   H     H_    0.663918 0.397727 0.629723 0.182792
H36   H     H_    0.736278 0.303007 0.691403 0.151600
H37   H     H_    0.570459 0.481488 0.718016 0.168935
H38   H     H_    0.524836 0.360869 0.728781 0.148016
H39   H     H_    0.379173 0.406836 0.638567 0.173802
H40   H     H_    0.429268 0.522122 0.621992 0.156063
C70   C     C_3   0.644471 0.460962 0.217264 -0.264758
C71   C     C_3   0.505101 0.499248 0.186647 -0.295094
C72   C     C_3   0.484370 0.406445 0.149732 -0.440898
H41   H     H_    0.503369 0.329020 0.176450 0.155189
H42   H     H_    0.382404 0.436211 0.128786 0.153798
H43   H     H_    0.550052 0.385575 0.116051 0.151219
H44   H     H_    0.482085 0.576372 0.159115 0.188437
H45   H     H_    0.436515 0.519884 0.219102 0.173054
H46   H     H_    0.716925 0.427470 0.186859 0.138448
H47   H     H_    0.659882 0.387728 0.246606 0.140671
N1    N     N_3   0.740754 0.918373 0.265075 -0.660190
H48   H     H_    0.827329 0.883510 0.292704 0.231017
H49   H     H_    0.663462 0.954105 0.288900 0.231973

loop_
_geom_bond_atom_site_label_1
_geom_bond_atom_site_label_2
_ccdc_geom_bond_type
C12   O21   A    
C1    C21   S    
Cr3   O3    S    
Cr6   O17   S    
C35   C36   A    
C9    C51   S    
C24   C27   S    
Cr5   O16   S    
C4    C8    A    
Cr1   O24   S    
C50   H13   S    
C69   H36   S    
C63   H20   S    
C65   H30   S    
C65   C66   S    
Cr2   O20   S    
C55   O17   A    
Cr6   O11   S    
C36   C37   A    
C8    N1    S    
C32   H8    S    
C5    C6    A    
C2    C60   A    
C29   C54   S    
C23   O23   A    
C40   C49   A    
C17   C20   S    
C52   O10   A    
C40   C48   A    
C18   C19   S    
C6    C58   A    
C16   C53   S    
C60   C70   S    
C62   H24   S    
C12   C59   S    
C33   H9    S    
Cr4   O14   S    
Cr2   O26   S    
C31   C32   A    
C67   C68   S    
C23   O1    A    
C24   C61   S    
C29   C38   A    
C53   O6    A    
C52   O9    A    
C7    C58   A    
C5    C60   A    
C15   C23   S    
Cr4   O13   S    
C68   H37   S    
C37   H4    S    
C65   H31   S    
C53   O11   A    
C34   O26   A    
C41   C43   A    
C54   O15   A    
C38   H5    S    
C34   C41   S    
C72   H43   S    
Cr1   O25   S    
C61   C62   S    
C44   C46   A    
C71   H44   S    
C57   O18   A    
C28   C45   S    
C18   H19   S    
C31   H6    S    
Cr1   O1    S    
Cr6   O19   S    
C44   H14   S    
C45   O3    A    
C24   C25   D    
C72   H42   S    
C10   C14   S    
C1    O12   A    
C61   H25   S    
C2    C59   A    
C72   H41   S    
C69   H35   S    
C11   H17   S    
C25   C26   S    
C30   C56   S    
C62   H23   S    
C70   H47   S    
C35   C39   A    
C9    C14   T    
C51   O7    A    
C47   C48   A    
C16   C20   T    
Cr3   O4    S    
C3    H16   S    
C17   C18   D    
C22   C55   S    
C52   C58   S    
C51   O8    A    
C66   H29   S    
C56   O4    A    
N1    H49   S    
C42   H12   S    
C22   C27   T    
C13   C15   T    
C68   C69   S    
C34   O25   A    
C41   C44   A    
C54   O14   A    
C25   H3    S    
C42   C43   A    
Cr4   O7    S    
C7    C64   S    
Cr3   O22   S    
C3    C4    A    
C56   O24   A    
Cr1   O5    S    
C66   H28   S    
C62   C63   S    
C67   H40   S    
Cr4   O19   S    
C46   C50   A    
C46   C47   A    
Cr5   O9    S    
C17   H2    S    
C40   C57   S    
C30   C33   A    
C45   O2    A    
C31   C36   A    
Cr6   O18   S    
Cr1   O12   S    
Cr5   O15   S    
C4    C5    A    
C12   O22   A    
C63   H21   S    
C68   H38   S    
C69   H34   S    
Cr2   O21   S    
C67   H39   S    
Cr2   O2    S    
C55   O16   A    
C26   C28   T    
Cr5   O19   S    
C70   H46   S    
C64   C65   S    
C61   H26   S    
C6    H1    S    
C30   C32   A    
C11   C13   S    
C64   H33   S    
C38   C39   A    
C57   O13   A    
Cr2   O5    S    
Cr3   O5    S    
C10   H18   S    
Cr5   O8    S    
C33   C35   A    
C49   H11   S    
C43   C67   S    
C42   C47   A    
C39   H7    S    
C63   H22   S    
C7    C8    A    
C10   C11   D    
C48   H10   S    
C71   H45   S    
N1    H48   S    
C49   C50   A    
C29   C37   A    
C70   C71   S    
Cr6   O10   S    
C2    H15   S    
Cr4   O6    S    
Cr3   O23   S    
C64   H32   S    
C71   C72   S    
C1    O20   A    
C66   H27   S    
C19   C21   T    
C3    C59   A    
