data_mof_unit_13677.cif
_audit_creation_date              2012-12-10T20:31:57-0500
_audit_creation_method            fapswitch 2.2
_symmetry_space_group_name_H-M    P1
_symmetry_Int_Tables_number       1
_space_group_crystal_system       triclinic
_cell_length_a                    9.894144
_cell_length_b                    10.712915
_cell_length_c                    15.597383
_cell_angle_alpha                 90.805067
_cell_angle_beta                  67.130147
_cell_angle_gamma                 89.689362
_cell_volume                      1523.02823662

loop_
_atom_site_label
_atom_site_type_symbol
_atom_type_description
_atom_site_fract_x
_atom_site_fract_y
_atom_site_fract_z
_atom_type_partial_charge
Br1   Br    Br    0.172235 0.122625 0.654039 -0.490208
Br2   Br    Br    0.948781 0.351327 0.332370 -0.558960
Br3   Br    Br    0.666640 0.270554 0.821914 -0.486360
C1    C     C_R   0.502546 0.739833 0.495536 0.879903
C2    C     C_R   0.727705 0.459930 0.032105 0.107573
C3    C     C_R   0.587702 0.511546 0.085389 0.102987
C4    C     C_R   0.407944 0.500150 0.675950 0.895282
C5    C     C_R   0.832086 0.445453 0.071750 -0.192340
C6    C     C_R   0.793711 0.470875 0.166163 -0.166426
C7    C     C_R   0.547382 0.521597 0.181209 -0.244158
C8    C     C_R   0.400495 0.936026 0.466236 0.048710
C9    C     C_R   0.513986 0.870585 0.478092 -0.102544
C10   C     C_R   0.640700 0.934156 0.472684 -0.200258
C11   C     C_R   0.639349 0.063290 0.474998 -0.161822
C12   C     C_R   0.409300 0.497843 0.914863 0.110501
C13   C     C_R   0.510815 0.128005 0.483731 -0.094567
C14   C     C_R   0.396696 0.063763 0.471948 0.021629
C15   C     C_3   0.232678 0.067951 0.524374 0.370718
C16   C     C_R   0.501635 0.259888 0.497756 0.945260
C17   C     C_3   0.237778 0.925163 0.514482 -0.053920
C18   C     C_R   0.880409 0.528900 0.579113 0.208519
C19   C     C_R   0.974290 0.449738 0.427399 0.288699
C20   C     C_R   0.118413 0.455693 0.425655 -0.215514
C21   C     C_R   0.021715 0.525894 0.579968 0.234085
C22   C     C_3   0.990164 0.640771 0.639834 -0.508253
C23   C     C_R   0.269868 0.551069 0.967191 0.120931
C24   C     C_3   0.838588 0.645485 0.636518 -0.476143
C25   C     C_R   0.591869 0.501248 0.323946 0.882301
C26   C     C_R   0.350535 0.504418 0.777438 -0.059925
C27   C     C_R   0.648080 0.501176 0.222270 -0.069267
C28   C     C_R   0.166991 0.567339 0.926329 -0.205549
C29   C     C_R   0.206099 0.540601 0.831879 -0.168010
C30   C     C_R   0.449668 0.483911 0.819435 -0.182585
C31   C     C_3   0.150328 0.138963 0.474466 -0.762231
C32   C     C_3   0.169070 0.867077 0.450204 -0.888699
C33   C     C_3   0.336237 0.709599 0.160670 -0.913745
C34   C     C_R   0.512230 0.477109 0.955981 -0.054228
C35   C     C_R   0.484767 0.534015 0.044232 0.013365
C36   C     C_R   0.354024 0.608266 0.088314 0.197519
C37   C     C_R   0.242313 0.602609 0.054667 -0.213809
C38   C     C_R   0.643039 0.403711 0.911718 0.238904
C39   C     C_R   0.754620 0.408276 0.944847 -0.251026
H1    H     H_    0.140175 0.653240 0.091286 0.159730
H2    H     H_    0.748841 0.630750 0.705451 0.210042
H3    H     H_    0.822115 0.725941 0.597188 0.210444
H4    H     H_    0.874573 0.457468 0.195677 0.206140
H5    H     H_    0.856033 0.357002 0.907887 0.197818
H6    H     H_    0.059917 0.608153 0.965816 0.150477
H7    H     H_    0.127860 0.558003 0.800457 0.153177
H8    H     H_    0.563497 0.469120 0.775767 0.188114
H9    H     H_    0.147572 0.239216 0.492094 0.264333
H10   H     H_    0.203916 0.127134 0.397660 0.224550
H11   H     H_    0.034961 0.107382 0.498952 0.246781
H12   H     H_    0.940198 0.407359 0.031220 0.164219
H13   H     H_    0.212297 0.909413 0.380217 0.257125
H14   H     H_    0.194182 0.765619 0.440493 0.266746
H15   H     H_    0.048029 0.879235 0.482082 0.242600
H16   H     H_    0.257744 0.679945 0.230036 0.242061
H17   H     H_    0.442437 0.736422 0.163644 0.251027
H18   H     H_    0.291835 0.796138 0.142312 0.253960
H19   H     H_    0.736034 0.885351 0.474040 0.167679
H20   H     H_    0.734420 0.111174 0.476789 0.193111
H21   H     H_    0.206729 0.877981 0.582199 0.180967
H22   H     H_    0.209432 0.418514 0.366052 0.190501
H23   H     H_    0.986870 0.621445 0.710383 0.204965
H24   H     H_    0.433405 0.535450 0.225372 0.184433
H25   H     H_    0.059662 0.719406 0.604867 0.220648
N1    N     N_R   0.856900 0.500860 0.500610 -0.132376
N2    N     N_R   0.142540 0.500820 0.500610 -0.133442
O1    O     O_R   0.385310 0.683210 0.499990 -0.623676
O2    O     O_R   0.614650 0.683240 0.500000 -0.626074
O3    O     O_R   0.319830 0.499970 0.632240 -0.598409
O4    O     O_R   0.549170 0.500000 0.632250 -0.615902
O5    O     O_R   0.385350 0.316760 0.500000 -0.601722
O6    O     O_R   0.614690 0.316790 0.500010 -0.588636
O7    O     O_R   0.450830 0.500000 0.367750 -0.636939
O8    O     O_R   0.680170 0.500030 0.367760 -0.574188
Zn1   Zn    Zn3+2 0.346870 0.499980 0.499990 0.956612
Zn2   Zn    Zn3+2 0.653130 0.500020 0.500010 0.996767

loop_
_geom_bond_atom_site_label_1
_geom_bond_atom_site_label_2
_ccdc_geom_bond_type
C2    C39   A    
C4    C26   S    
O1    Zn1   S    
C38   C39   A    
C20   N2    A    
C22   H25   S    
C33   H17   S    
O2    Zn2   S    
C4    O4    A    
C31   H9    S    
O7    Zn1   S    
C26   C29   A    
C33   H16   S    
C2    C3    A    
C11   H20   S    
C26   C30   A    
C12   C34   A    
O3    Zn1   S    
C17   C32   S    
C24   H2    S    
C37   H1    S    
C8    C14   A    
C13   C14   A    
Br2   C19   S    
C3    C35   A    
C1    C9    S    
C24   H3    S    
N1    Zn2   S    
C7    H24   S    
C18   C24   S    
C6    H4    S    
C10   C11   A    
N2    Zn1   S    
C1    O1    A    
C21   N2    A    
O8    Zn2   S    
O4    Zn2   S    
C8    C17   S    
C32   H13   S    
C22   H23   S    
C21   C22   S    
C5    H12   S    
C36   C37   A    
C5    C6    A    
C12   C23   A    
C30   H8    S    
C34   C35   A    
C7    C27   A    
C28   C29   A    
C14   C15   S    
Br1   C15   S    
C25   O8    A    
C15   C31   S    
C19   N1    A    
C6    C27   A    
C20   H22   S    
C28   H6    S    
C18   N1    A    
C11   C13   A    
C25   O7    A    
C4    O3    A    
Br3   C38   S    
C32   H14   S    
C33   C36   S    
C33   H18   S    
C3    C7    A    
C2    C5    A    
C8    C9    A    
C22   C24   S    
C31   H10   S    
C32   H15   S    
C17   H21   S    
C25   C27   S    
C23   C37   A    
C35   C36   A    
C13   C16   S    
C16   O6    A    
C15   C17   S    
C39   H5    S    
C16   O5    A    
C34   C38   A    
C29   H7    S    
C23   C28   A    
C10   H19   S    
C9    C10   A    
C31   H11   S    
O5    Zn1   S    
C18   C21   A    
C19   C20   A    
O6    Zn2   S    
C12   C30   A    
C1    O2    A    
