data_mof_unit_64591.cif
_audit_creation_date              2013-03-05T16:22:48-0500
_audit_creation_method            fapswitch 2.2
_symmetry_space_group_name_H-M    P1
_symmetry_Int_Tables_number       1
_space_group_crystal_system       triclinic
_cell_length_a                    30.823769
_cell_length_b                    29.142866
_cell_length_c                    30.450655
_cell_angle_alpha                 89.889898
_cell_angle_beta                  90.029758
_cell_angle_gamma                 89.988598
_cell_volume                      27353.5545648

loop_
_atom_site_label
_atom_site_type_symbol
_atom_site_description
_atom_site_fract_x
_atom_site_fract_y
_atom_site_fract_z
_atom_type_partial_charge
O1    O     O_R   0.321670 0.000000 0.730060 -0.618926
O2    O     O_R   0.678330 0.000000 0.730060 -0.613998
O3    O     O_R   0.821670 0.500000 0.730060 -0.618077
O4    O     O_R   0.178330 0.500000 0.730060 -0.618826
O5    O     O_R   0.821670 0.000000 0.230060 -0.619489
O6    O     O_R   0.178330 0.000000 0.230060 -0.619506
O7    O     O_R   0.321670 0.500000 0.230060 -0.619848
O8    O     O_R   0.678330 0.500000 0.230060 -0.619440
O9    O     O_R   0.269940 0.000000 0.678340 -0.616037
O10   O     O_R   0.730060 0.000000 0.678340 -0.613733
O11   O     O_R   0.769940 0.500000 0.678340 -0.611377
O12   O     O_R   0.230060 0.500000 0.678340 -0.613406
O13   O     O_R   0.769940 0.000000 0.178340 -0.614738
O14   O     O_R   0.230060 0.000000 0.178340 -0.614796
O15   O     O_R   0.269940 0.500000 0.178340 -0.614581
O16   O     O_R   0.730060 0.500000 0.178340 -0.614515
C1    C     C_R   0.309885 0.999521 0.689652 0.904655
C2    C     C_R   0.690110 0.999717 0.689745 0.900182
C3    C     C_R   0.809689 0.500232 0.689868 0.905725
C4    C     C_R   0.190225 0.500650 0.689794 0.905527
C5    C     C_R   0.809719 0.999729 0.189638 0.904324
C6    C     C_R   0.190286 0.000270 0.189641 0.903887
C7    C     C_R   0.309720 0.500260 0.189635 0.904530
C8    C     C_R   0.690287 0.499716 0.189644 0.905019
O17   O     O_R   0.275870 0.936860 0.775860 -0.601263
O18   O     O_R   0.724130 0.063140 0.775860 -0.602553
O19   O     O_R   0.724130 0.936860 0.775860 -0.595853
O20   O     O_R   0.275870 0.063140 0.775860 -0.598023
O21   O     O_R   0.775870 0.436860 0.775860 -0.595165
O22   O     O_R   0.224130 0.563140 0.775860 -0.596453
O23   O     O_R   0.224130 0.436860 0.775860 -0.601322
O24   O     O_R   0.775870 0.563140 0.775860 -0.602330
O25   O     O_R   0.775870 0.936860 0.275860 -0.596935
O26   O     O_R   0.224130 0.063140 0.275860 -0.597180
O27   O     O_R   0.224130 0.936860 0.275860 -0.600451
O28   O     O_R   0.775870 0.063140 0.275860 -0.601451
O29   O     O_R   0.275870 0.436860 0.275860 -0.602740
O30   O     O_R   0.724130 0.563140 0.275860 -0.599418
O31   O     O_R   0.724130 0.436860 0.275860 -0.601106
O32   O     O_R   0.275870 0.563140 0.275860 -0.597324
O33   O     O_R   0.224140 0.936870 0.724140 -0.594159
O34   O     O_R   0.775860 0.063130 0.724140 -0.593635
O35   O     O_R   0.775860 0.936870 0.724140 -0.599822
O36   O     O_R   0.224140 0.063130 0.724140 -0.598396
O37   O     O_R   0.724140 0.436870 0.724140 -0.600765
O38   O     O_R   0.275860 0.563130 0.724140 -0.600183
O39   O     O_R   0.275860 0.436870 0.724140 -0.595762
O40   O     O_R   0.724140 0.563130 0.724140 -0.595857
O41   O     O_R   0.724140 0.936870 0.224140 -0.599939
O42   O     O_R   0.275860 0.063130 0.224140 -0.599274
O43   O     O_R   0.275860 0.936870 0.224140 -0.595162
O44   O     O_R   0.724140 0.063130 0.224140 -0.594491
O45   O     O_R   0.224140 0.436870 0.224140 -0.594276
O46   O     O_R   0.775860 0.563130 0.224140 -0.597980
O47   O     O_R   0.775860 0.436870 0.224140 -0.595298
O48   O     O_R   0.224140 0.563130 0.224140 -0.599937
C9    C     C_R   0.250014 0.914247 0.750030 0.880220
C10   C     C_R   0.750012 0.085744 0.749984 0.876373
C11   C     C_R   0.749980 0.914254 0.750013 0.877343
C12   C     C_R   0.249984 0.085753 0.749977 0.878093
C13   C     C_R   0.750028 0.414247 0.750013 0.877243
C14   C     C_R   0.250014 0.585746 0.749982 0.876673
C15   C     C_R   0.249981 0.414256 0.750019 0.879595
C16   C     C_R   0.749983 0.585752 0.749982 0.877361
C17   C     C_R   0.750024 0.914247 0.250017 0.877248
C18   C     C_R   0.250017 0.085746 0.249986 0.875207
C19   C     C_R   0.249992 0.914255 0.250030 0.878884
C20   C     C_R   0.749977 0.085752 0.249987 0.880488
C21   C     C_R   0.250018 0.414248 0.250027 0.878817
C22   C     C_R   0.750008 0.585745 0.249977 0.877462
C23   C     C_R   0.749991 0.414255 0.250027 0.880124
C24   C     C_R   0.249982 0.585754 0.249979 0.878760
Zn1   Zn    Zn3+2 0.284540 0.000000 0.784540 0.968292
Zn2   Zn    Zn3+2 0.715460 0.000000 0.784540 0.972078
Zn3   Zn    Zn3+2 0.784540 0.500000 0.784540 0.971676
Zn4   Zn    Zn3+2 0.215460 0.500000 0.784540 0.970156
Zn5   Zn    Zn3+2 0.784540 0.000000 0.284540 0.968596
Zn6   Zn    Zn3+2 0.215460 0.000000 0.284540 0.972801
Zn7   Zn    Zn3+2 0.284540 0.500000 0.284540 0.966404
Zn8   Zn    Zn3+2 0.715460 0.500000 0.284540 0.960921
Zn9   Zn    Zn3+2 0.215460 0.000000 0.715470 0.982571
Zn10  Zn    Zn3+2 0.784540 0.000000 0.715470 0.982566
Zn11  Zn    Zn3+2 0.715460 0.500000 0.715470 0.978929
Zn12  Zn    Zn3+2 0.284540 0.500000 0.715470 0.977670
Zn13  Zn    Zn3+2 0.715460 0.000000 0.215470 0.980912
Zn14  Zn    Zn3+2 0.284540 0.000000 0.215470 0.981523
Zn15  Zn    Zn3+2 0.215460 0.500000 0.215470 0.980129
Zn16  Zn    Zn3+2 0.784540 0.500000 0.215470 0.981818
O49   O     O_R   0.230060 0.000000 0.821670 -0.612007
O50   O     O_R   0.769940 0.000000 0.821670 -0.612153
O51   O     O_R   0.730060 0.500000 0.821670 -0.611960
O52   O     O_R   0.269940 0.500000 0.821670 -0.611787
O53   O     O_R   0.730060 0.000000 0.321670 -0.612195
O54   O     O_R   0.269940 0.000000 0.321670 -0.608415
O55   O     O_R   0.230060 0.500000 0.321670 -0.609528
O56   O     O_R   0.769940 0.500000 0.321670 -0.616637
O57   O     O_R   0.178330 0.000000 0.769950 -0.615893
O58   O     O_R   0.821670 0.000000 0.769950 -0.615720
O59   O     O_R   0.678330 0.500000 0.769950 -0.616464
O60   O     O_R   0.321670 0.500000 0.769950 -0.616425
O61   O     O_R   0.678330 0.000000 0.269950 -0.616395
O62   O     O_R   0.321670 0.000000 0.269950 -0.615630
O63   O     O_R   0.178330 0.500000 0.269950 -0.618343
O64   O     O_R   0.821670 0.500000 0.269950 -0.613943
C25   C     C_R   0.190167 0.000528 0.810075 0.873417
C26   C     C_R   0.809828 0.999487 0.810072 0.873253
C27   C     C_R   0.690165 0.499489 0.810079 0.873533
C28   C     C_R   0.309825 0.500535 0.810068 0.873597
C29   C     C_R   0.690159 0.999475 0.310084 0.873671
C30   C     C_R   0.309783 0.000336 0.310028 0.870934
C31   C     C_R   0.190245 0.500169 0.310057 0.880662
C32   C     C_R   0.809841 0.500644 0.310050 0.874627
C33   C     C_1   0.250054 0.863427 0.750063 -0.197130
C34   C     C_1   0.750053 0.136565 0.749969 -0.200870
C35   C     C_1   0.749946 0.863432 0.750029 -0.192620
C36   C     C_1   0.249929 0.136575 0.749956 -0.195702
C37   C     C_1   0.750069 0.363425 0.750034 -0.191632
C38   C     C_1   0.250061 0.636568 0.749966 -0.191098
C39   C     C_1   0.249940 0.363435 0.750041 -0.200907
C40   C     C_1   0.749939 0.636572 0.749958 -0.200573
C41   C     C_1   0.750065 0.863425 0.250039 -0.193615
C42   C     C_1   0.250069 0.136568 0.249976 -0.194753
C43   C     C_1   0.249963 0.863436 0.250062 -0.199450
C44   C     C_1   0.749925 0.136573 0.249974 -0.199651
C45   C     C_1   0.250059 0.363427 0.250063 -0.200535
C46   C     C_1   0.750053 0.636566 0.249958 -0.198450
C47   C     C_1   0.749957 0.363433 0.250055 -0.196996
C48   C     C_1   0.249931 0.636576 0.249958 -0.193252
C49   C     C_1   0.250072 0.821120 0.750062 0.007143
C50   C     C_1   0.750071 0.178872 0.749978 0.005038
C51   C     C_1   0.749932 0.821124 0.750023 0.009033
C52   C     C_1   0.249908 0.178883 0.749966 0.007341
C53   C     C_1   0.750083 0.321117 0.750030 0.010851
C54   C     C_1   0.250079 0.678875 0.749980 0.010822
C55   C     C_1   0.249919 0.321128 0.750038 0.003986
C56   C     C_1   0.749926 0.678879 0.749965 0.004029
C57   C     C_1   0.750080 0.821118 0.250032 0.008644
C58   C     C_1   0.250090 0.178875 0.249992 0.007393
C59   C     C_1   0.249946 0.821129 0.250062 0.005085
C60   C     C_1   0.749910 0.178881 0.249991 0.004947
C61   C     C_1   0.250079 0.321120 0.250067 0.004237
C62   C     C_1   0.750073 0.678874 0.249966 0.005534
C63   C     C_1   0.749938 0.321126 0.250057 0.006805
C64   C     C_1   0.249916 0.678884 0.249973 0.008928
C65   C     C_1   0.250083 0.771151 0.750038 0.012841
C66   C     C_1   0.750082 0.228840 0.749997 0.011724
C67   C     C_1   0.749924 0.771155 0.750004 0.012055
C68   C     C_1   0.249900 0.228852 0.749993 0.010770
C69   C     C_1   0.750086 0.271148 0.750014 0.013621
C70   C     C_1   0.250086 0.728844 0.750011 0.014066
C71   C     C_1   0.249904 0.271160 0.750017 0.009774
C72   C     C_1   0.749922 0.728847 0.749985 0.010577
C73   C     C_1   0.750086 0.771149 0.250010 0.012051
C74   C     C_1   0.250096 0.228844 0.250023 0.010919
C75   C     C_1   0.249929 0.771160 0.250038 0.011189
C76   C     C_1   0.749911 0.228849 0.250020 0.010206
C77   C     C_1   0.250092 0.271152 0.250049 0.010024
C78   C     C_1   0.750084 0.728842 0.249988 0.010990
C79   C     C_1   0.749920 0.271157 0.250042 0.010901
C80   C     C_1   0.249919 0.728853 0.250008 0.012342
C81   C     C_R   0.385164 0.987773 0.666462 0.153177
C82   C     C_R   0.615558 0.010845 0.665029 0.154969
C83   C     C_R   0.871118 0.535944 0.653507 0.107978
C84   C     C_R   0.124325 0.469089 0.658124 0.120144
C85   C     C_R   0.879829 0.024625 0.161343 0.131069
C86   C     C_R   0.120246 0.975214 0.161370 0.130779
C87   C     C_R   0.379841 0.475318 0.161448 0.131656
C88   C     C_R   0.620241 0.524717 0.161261 0.131175
C89   C     C_R   0.341943 0.995806 0.655784 -0.182425
C90   C     C_R   0.657647 0.996445 0.656378 -0.172677
C91   C     C_R   0.841188 0.500543 0.656061 -0.152365
C92   C     C_R   0.158472 0.500023 0.655911 -0.156833
C93   C     C_R   0.840966 0.001704 0.155158 -0.171553
C94   C     C_R   0.159048 0.998251 0.155154 -0.171245
C95   C     C_R   0.340963 0.498224 0.155157 -0.171650
C96   C     C_R   0.659043 0.501660 0.155157 -0.171632
C97   C     C_R   0.329559 0.998762 0.611444 -0.256847
C98   C     C_R   0.668143 0.978111 0.615224 -0.255907
C99   C     C_R   0.838271 0.468172 0.622424 -0.255988
C100  C     C_R   0.165064 0.526127 0.617785 -0.274675
C101  C     C_R   0.830331 0.984607 0.113413 -0.253834
C102  C     C_R   0.169674 0.015369 0.113363 -0.253670
C103  C     C_R   0.330307 0.515237 0.113321 -0.253958
C104  C     C_R   0.669652 0.484434 0.113466 -0.253922
H1    H     H_    0.295728 0.002492 0.602475 0.214360
H2    H     H_    0.700349 0.964606 0.609213 0.209333
H3    H     H_    0.812967 0.442323 0.623003 0.189958
H4    H     H_    0.193648 0.547545 0.614671 0.199794
H5    H     H_    0.798687 0.969651 0.107466 0.208473
H6    H     H_    0.201289 0.030397 0.107405 0.208475
H7    H     H_    0.298651 0.530171 0.107299 0.208510
H8    H     H_    0.701265 0.469375 0.107587 0.208508
C105  C     C_R   0.361046 0.001052 0.578607 0.282490
C106  C     C_R   0.637704 0.978512 0.581247 0.274232
C107  C     C_R   0.870140 0.466590 0.590056 0.303562
C108  C     C_R   0.133997 0.525858 0.584373 0.288995
C109  C     C_R   0.861447 0.983629 0.080099 0.272680
C110  C     C_R   0.138572 0.016283 0.080012 0.272465
C111  C     C_R   0.361419 0.516178 0.079999 0.272753
C112  C     C_R   0.638544 0.483472 0.080125 0.272327
C113  C     C_R   0.405067 0.999164 0.591343 -0.221165
C114  C     C_R   0.596580 0.998376 0.589652 -0.228408
C115  C     C_R   0.903741 0.499795 0.590979 -0.252091
C116  C     C_R   0.096484 0.498644 0.590259 -0.239478
C117  C     C_R   0.903326 0.000759 0.089865 -0.232323
C118  C     C_R   0.096730 0.999074 0.089800 -0.232254
C119  C     C_R   0.403314 0.499094 0.089851 -0.232333
C120  C     C_R   0.596710 0.500741 0.089822 -0.232494
C121  C     C_R   0.416319 0.988937 0.634423 0.073469
C122  C     C_R   0.585421 0.012110 0.631891 0.069946
C123  C     C_R   0.901795 0.535834 0.620954 0.115405
C124  C     C_R   0.093833 0.468192 0.625428 0.099090
C125  C     C_R   0.910504 0.024469 0.128852 0.098110
C126  C     C_R   0.089580 0.975316 0.128843 0.097823
C127  C     C_R   0.410514 0.475436 0.128952 0.097669
C128  C     C_R   0.589571 0.524567 0.128743 0.098457
C129  C     C_3   0.448214 0.012426 0.663627 -0.524588
C130  C     C_3   0.567501 0.057015 0.647106 -0.474696
C131  C     C_3   0.936177 0.553641 0.651066 -0.470936
C132  C     C_3   0.057508 0.460451 0.657036 -0.489912
C133  C     C_3   0.946612 0.019654 0.161129 -0.517440
C134  C     C_3   0.053450 0.980034 0.161049 -0.517440
C135  C     C_3   0.446624 0.480296 0.161201 -0.517842
C136  C     C_3   0.553448 0.519911 0.160983 -0.517415
C137  C     C_3   0.413769 0.011090 0.699143 -0.424228
C138  C     C_3   0.600588 0.055357 0.683902 -0.463240
C139  C     C_3   0.902157 0.553554 0.687100 -0.460525
C140  C     C_3   0.091297 0.461673 0.693295 -0.443272
C141  C     C_3   0.912642 0.020085 0.197059 -0.428755
C142  C     C_3   0.087410 0.979661 0.197026 -0.428571
C143  C     C_3   0.412657 0.479908 0.197137 -0.429840
C144  C     C_3   0.587415 0.520339 0.196949 -0.429945
H9    H     H_    0.476744 0.990376 0.671022 0.208791
H10   H     H_    0.573280 0.085362 0.623311 0.217357
H11   H     H_    0.533648 0.054010 0.659037 0.198694
H12   H     H_    0.455932 0.047785 0.652282 0.206712
H13   H     H_    0.962706 0.528465 0.656689 0.190102
H14   H     H_    0.034411 0.489718 0.658203 0.189108
H15   H     H_    0.042326 0.426144 0.652825 0.217124
H16   H     H_    0.947044 0.588679 0.641683 0.211282
H17   H     H_    0.963179 0.986006 0.158116 0.202916
H18   H     H_    0.036825 0.013649 0.157897 0.202921
H19   H     H_    0.032173 0.949256 0.161522 0.207304
H20   H     H_    0.967944 0.050390 0.161537 0.207426
H21   H     H_    0.467969 0.449562 0.161754 0.207072
H22   H     H_    0.532164 0.550693 0.161299 0.207259
H23   H     H_    0.536831 0.486294 0.158010 0.202760
H24   H     H_    0.463176 0.513941 0.158021 0.202989
H25   H     H_    0.422352 0.988186 0.727062 0.203767
H26   H     H_    0.625550 0.082821 0.681648 0.198339
H27   H     H_    0.585740 0.050903 0.716897 0.208230
H28   H     H_    0.401700 0.045671 0.708567 0.205211
H29   H     H_    0.908897 0.528229 0.713608 0.218216
H30   H     H_    0.087829 0.491722 0.715482 0.214856
H31   H     H_    0.095560 0.428087 0.710113 0.202840
H32   H     H_    0.893389 0.588542 0.698544 0.202005
H33   H     H_    0.910206 0.986967 0.215104 0.212223
H34   H     H_    0.089772 0.012775 0.214970 0.212286
H35   H     H_    0.085968 0.948531 0.218125 0.202706
H36   H     H_    0.914140 0.051201 0.218060 0.202682
H37   H     H_    0.414173 0.448821 0.218289 0.202057
H38   H     H_    0.585972 0.551505 0.217884 0.202419
H39   H     H_    0.589787 0.487255 0.215067 0.211907
H40   H     H_    0.410208 0.513050 0.215021 0.212005
C145  C     C_R   0.153460 0.963386 0.870971 0.090812
C146  C     C_R   0.846477 0.036645 0.870874 0.091305
C147  C     C_R   0.653576 0.536585 0.870968 0.090999
C148  C     C_R   0.346610 0.463349 0.870889 0.090024
C149  C     C_R   0.654271 0.036047 0.371734 0.090821
C150  C     C_R   0.353475 0.959922 0.363487 0.086440
C151  C     C_R   0.159507 0.472447 0.378558 0.126962
C152  C     C_R   0.846226 0.463750 0.371232 0.091665
C153  C     C_R   0.157165 0.000508 0.842526 -0.068653
C154  C     C_R   0.842844 0.999555 0.842513 -0.068544
C155  C     C_R   0.657149 0.499557 0.842522 -0.068639
C156  C     C_R   0.342825 0.500522 0.842518 -0.068070
C157  C     C_R   0.657132 0.999581 0.342539 -0.070268
C158  C     C_R   0.342707 0.000620 0.342390 -0.054458
C159  C     C_R   0.157788 0.501611 0.342797 -0.094044
C160  C     C_R   0.842926 0.500580 0.342415 -0.071993
C161  C     C_R   0.124882 0.034345 0.841389 -0.198198
C162  C     C_R   0.875238 0.965850 0.841391 -0.198393
C163  C     C_R   0.624714 0.465904 0.841351 -0.198925
C164  C     C_R   0.375041 0.534412 0.841431 -0.198850
C165  C     C_R   0.624101 0.966601 0.340785 -0.198296
C166  C     C_R   0.368908 0.039498 0.347161 -0.201401
C167  C     C_R   0.122421 0.531884 0.338809 -0.197740
C168  C     C_R   0.875628 0.533947 0.340846 -0.204995
H41   H     H_    0.125875 0.061749 0.817303 0.152540
H42   H     H_    0.874299 0.938497 0.817349 0.152470
H43   H     H_    0.625602 0.438594 0.817262 0.152138
H44   H     H_    0.373980 0.561854 0.817385 0.152325
H45   H     H_    0.624479 0.939771 0.316195 0.153275
H46   H     H_    0.362761 0.070297 0.328147 0.145094
H47   H     H_    0.120075 0.555410 0.311313 0.160149
H48   H     H_    0.874920 0.561059 0.316448 0.152357
C169  C     C_R   0.092627 0.034223 0.873285 -0.195077
C170  C     C_R   0.907532 0.966017 0.873260 -0.195432
C171  C     C_R   0.592444 0.466058 0.873224 -0.195815
C172  C     C_R   0.407313 0.534286 0.873330 -0.195585
C173  C     C_R   0.591870 0.966734 0.372696 -0.197315
C174  C     C_R   0.401718 0.039277 0.378505 -0.185372
C175  C     C_R   0.090075 0.531938 0.371046 -0.213884
C176  C     C_R   0.907935 0.533783 0.372718 -0.210661
H49   H     H_    0.068889 0.061638 0.873840 0.160816
H50   H     H_    0.931346 0.938673 0.873856 0.160696
H51   H     H_    0.568599 0.438753 0.873764 0.160320
H52   H     H_    0.431004 0.561737 0.873937 0.160713
H53   H     H_    0.567530 0.939917 0.372752 0.159146
H54   H     H_    0.420514 0.070170 0.383861 0.164061
H55   H     H_    0.063044 0.555535 0.368204 0.154756
H56   H     H_    0.932016 0.560859 0.372961 0.159305
C177  C     C_R   0.092246 0.999360 0.905049 -0.082247
C178  C     C_R   0.907826 0.000795 0.904980 -0.082392
C179  C     C_R   0.592196 0.500778 0.905005 -0.082081
C180  C     C_R   0.407762 0.499372 0.905038 -0.082025
C181  C     C_R   0.592261 0.000798 0.405107 -0.077558
C182  C     C_R   0.408571 0.999708 0.403932 -0.085226
C183  C     C_R   0.092607 0.500624 0.406178 -0.085801
C184  C     C_R   0.907891 0.499349 0.404894 -0.100624
C185  C     C_R   0.120960 0.962602 0.901776 0.120614
C186  C     C_R   0.879015 0.037476 0.901662 0.120382
C187  C     C_R   0.621056 0.537410 0.901754 0.120231
C188  C     C_R   0.379122 0.462567 0.901702 0.120050
C189  C     C_R   0.621779 0.036891 0.402552 0.119935
C190  C     C_R   0.386255 0.959422 0.393999 0.113778
C191  C     C_R   0.127707 0.471260 0.408465 0.159567
C192  C     C_R   0.878722 0.462979 0.402082 0.103239
C193  C     C_3   0.149954 0.942388 0.936048 -0.454415
C194  C     C_3   0.850015 0.057530 0.935911 -0.454592
C195  C     C_3   0.650108 0.557347 0.936044 -0.454903
C196  C     C_3   0.350189 0.442248 0.935934 -0.453961
C197  C     C_3   0.651214 0.055440 0.437222 -0.459099
C198  C     C_3   0.362015 0.927603 0.423664 -0.422353
C199  C     C_3   0.148279 0.433843 0.434511 -0.462030
C200  C     C_3   0.849347 0.444140 0.436647 -0.384854
C201  C     C_3   0.185930 0.943499 0.902029 -0.455541
C202  C     C_3   0.813993 0.056365 0.901910 -0.455087
C203  C     C_3   0.686104 0.556188 0.902050 -0.454830
C204  C     C_3   0.314192 0.443357 0.901901 -0.455369
C205  C     C_3   0.687170 0.054267 0.403189 -0.451848
C206  C     C_3   0.325676 0.928399 0.389994 -0.474915
C207  C     C_3   0.184622 0.434793 0.399765 -0.490493
C208  C     C_3   0.813470 0.444944 0.402531 -0.480326
H57   H     H_    0.155582 0.965972 0.964132 0.245488
H58   H     H_    0.844499 0.033874 0.964042 0.245577
H59   H     H_    0.859923 0.092908 0.945088 0.201901
H60   H     H_    0.139957 0.907024 0.945299 0.201686
H61   H     H_    0.640249 0.592723 0.945283 0.201727
H62   H     H_    0.360257 0.406886 0.945134 0.201483
H63   H     H_    0.344535 0.465776 0.964051 0.245560
H64   H     H_    0.655619 0.533626 0.964134 0.245555
H65   H     H_    0.642032 0.090804 0.447186 0.200774
H66   H     H_    0.378128 0.893598 0.426480 0.197325
H67   H     H_    0.353081 0.943751 0.455429 0.254979
H68   H     H_    0.656283 0.030988 0.464823 0.245783
H69   H     H_    0.158900 0.445676 0.467494 0.230342
H70   H     H_    0.858827 0.408894 0.446853 0.239072
H71   H     H_    0.844021 0.468771 0.463964 0.221914
H72   H     H_    0.128756 0.401785 0.434123 0.203608
H73   H     H_    0.212450 0.967892 0.910258 0.234739
H74   H     H_    0.787558 0.031868 0.910199 0.234741
H75   H     H_    0.803010 0.091073 0.891561 0.199800
H76   H     H_    0.196794 0.908775 0.891740 0.199599
H77   H     H_    0.697118 0.590898 0.891767 0.199654
H78   H     H_    0.303385 0.408633 0.891554 0.199474
H79   H     H_    0.287632 0.467692 0.910155 0.234868
H80   H     H_    0.712518 0.531631 0.910301 0.234751
H81   H     H_    0.698839 0.088954 0.393603 0.199135
H82   H     H_    0.320719 0.894821 0.373480 0.199432
H83   H     H_    0.295590 0.945227 0.402103 0.236748
H84   H     H_    0.713114 0.028981 0.410932 0.234578
H85   H     H_    0.216349 0.446810 0.412740 0.224110
H86   H     H_    0.802272 0.410136 0.392885 0.208903
H87   H     H_    0.787181 0.469812 0.410198 0.222979
H88   H     H_    0.185853 0.403425 0.379087 0.200389
O65   O     O_R   0.954170 0.964330 0.954180 -0.595815
O66   O     O_R   0.045830 0.035670 0.954180 -0.595524
O67   O     O_R   0.045830 0.964330 0.954180 -0.643890
O68   O     O_R   0.954170 0.035670 0.954180 -0.643710
O69   O     O_R   0.454170 0.464330 0.954180 -0.644000
O70   O     O_R   0.545830 0.535670 0.954180 -0.643833
O71   O     O_R   0.545830 0.464330 0.954180 -0.595737
O72   O     O_R   0.454170 0.535670 0.954180 -0.595677
O73   O     O_R   0.454170 0.964330 0.454180 -0.641742
O74   O     O_R   0.545830 0.035670 0.454180 -0.646201
O75   O     O_R   0.545830 0.964330 0.454180 -0.597473
O76   O     O_R   0.454170 0.035670 0.454180 -0.605809
O77   O     O_R   0.954170 0.464330 0.454180 -0.613013
O78   O     O_R   0.045830 0.535670 0.454180 -0.595974
O79   O     O_R   0.045830 0.464330 0.454180 -0.640656
O80   O     O_R   0.954170 0.535670 0.454180 -0.636647
C209  C     C_R   0.938894 0.000092 0.939615 0.931585
C210  C     C_R   0.061113 0.999961 0.939621 0.931291
C211  C     C_R   0.438889 0.499967 0.939619 0.931821
C212  C     C_R   0.561110 0.500086 0.939619 0.930916
C213  C     C_R   0.439356 0.999993 0.439035 0.958822
C214  C     C_R   0.561119 0.000088 0.439642 0.924728
C215  C     C_R   0.938939 0.499969 0.439563 0.890734
C216  C     C_R   0.060319 0.500076 0.439095 0.958072
O81   O     O_R   0.454180 0.964360 0.545790 -0.633446
O82   O     O_R   0.545820 0.035640 0.545790 -0.646613
O83   O     O_R   0.545820 0.964360 0.545790 -0.583031
O84   O     O_R   0.454180 0.035640 0.545790 -0.596851
O85   O     O_R   0.954180 0.464360 0.545790 -0.570800
O86   O     O_R   0.045820 0.535640 0.545790 -0.594648
O87   O     O_R   0.045820 0.464360 0.545790 -0.626755
O88   O     O_R   0.954180 0.535640 0.545790 -0.633119
O89   O     O_R   0.954180 0.964360 0.045790 -0.582007
O90   O     O_R   0.045820 0.035640 0.045790 -0.582079
O91   O     O_R   0.045820 0.964360 0.045790 -0.639507
O92   O     O_R   0.954180 0.035640 0.045790 -0.639307
O93   O     O_R   0.454180 0.464360 0.045790 -0.639396
O94   O     O_R   0.545820 0.535640 0.045790 -0.639514
O95   O     O_R   0.545820 0.464360 0.045790 -0.582002
O96   O     O_R   0.454180 0.535640 0.045790 -0.582143
C217  C     C_R   0.438895 0.999927 0.559995 0.998495
C218  C     C_R   0.563752 0.999844 0.556962 0.977686
C219  C     C_R   0.938514 0.499829 0.559973 0.924648
C220  C     C_R   0.061109 0.499858 0.560229 0.974797
C221  C     C_R   0.937683 0.000040 0.058777 0.974951
C222  C     C_R   0.062340 0.999909 0.058745 0.975387
C223  C     C_R   0.437703 0.499916 0.058799 0.975453
C224  C     C_R   0.562358 0.500033 0.058724 0.975109
Zn17  Zn    Zn3+2 0.000000 0.952400 0.999990 1.008414
Zn18  Zn    Zn3+2 0.000000 0.047600 0.999990 1.009005
Zn19  Zn    Zn3+2 0.500000 0.452400 0.999990 1.008214
Zn20  Zn    Zn3+2 0.500000 0.547600 0.999990 1.008270
Zn21  Zn    Zn3+2 0.500000 0.952400 0.499990 1.014012
Zn22  Zn    Zn3+2 0.500000 0.047600 0.499990 0.985785
Zn23  Zn    Zn3+2 0.000000 0.452400 0.499990 1.021958
Zn24  Zn    Zn3+2 0.000000 0.547600 0.499990 1.006203
N1    N     N_R   0.347782 0.007276 0.533622 0.187253
O97   O     O_R   0.370169 0.033080 0.507135 -0.408674
O98   O     O_R   0.310173 0.992202 0.520604 -0.409455
N2    N     N_R   0.650469 0.962412 0.538375 0.184491
O99   O     O_R   0.623040 0.941740 0.512708 -0.393431
O100  O     O_R   0.691017 0.964159 0.526571 -0.403077
N3    N     N_R   0.868200 0.430671 0.557968 0.196722
O101  O     O_R   0.897754 0.398808 0.558033 -0.370555
O102  O     O_R   0.831457 0.422304 0.538533 -0.421673
N4    N     N_R   0.140823 0.553164 0.545583 0.216814
O103  O     O_R   0.130044 0.537387 0.507174 -0.415985
O104  O     O_R   0.163367 0.590845 0.547752 -0.379047
N5    N     N_R   0.849625 0.965576 0.037667 0.186275
O105  O     O_R   0.877262 0.942931 0.013857 -0.388474
O106  O     O_R   0.809487 0.967759 0.024521 -0.404472
N6    N     N_R   0.150368 0.034373 0.037532 0.186321
O107  O     O_R   0.122690 0.056958 0.013602 -0.388450
O108  O     O_R   0.190509 0.032268 0.024438 -0.404379
N7    N     N_R   0.349583 0.534175 0.037481 0.186340
O109  O     O_R   0.377213 0.556770 0.013546 -0.388676
O110  O     O_R   0.309446 0.531971 0.024348 -0.404336
N8    N     N_R   0.650332 0.465304 0.037739 0.186290
O111  O     O_R   0.622654 0.442676 0.013941 -0.388326
O112  O     O_R   0.690472 0.467365 0.024629 -0.404261

loop_
_geom_bond_atom_site_label_1
_geom_bond_atom_site_label_2
_geom_bond_distance
_ccdc_geom_bond_type
O65   Zn17  2.014505 S    
C143  H40   1.112284 S    
C113  C121  1.388498 A    
C144  H39   1.112286 S    
O29   C21   1.299838 A    
C50   C66   1.456232 S    
C168  C176  1.390181 A    
O86   Zn24  2.014228 S    
C154  C162  1.401004 A    
C68   C71   1.232961 T    
C37   C53   1.232971 T    
O34   C10   1.300337 A    
O24   Zn3   1.877508 S    
O80   Zn24  2.015528 S    
C134  H18   1.109448 S    
O94   C224  1.220563 A    
C139  H29   1.112168 S    
C99   C107  1.392735 A    
C147  C155  1.389448 A    
C97   C105  1.395332 A    
O38   C14   1.300300 A    
C175  H55   1.083539 S    
C194  C202  1.518182 S    
C118  C222  1.420321 S    
C110  C118  1.415583 A    
C185  C193  1.493776 S    
O95   C224  1.223679 A    
O12   Zn12  2.023941 S    
C176  H56   1.083467 S    
O96   C223  1.223777 A    
C193  C201  1.518187 S    
O47   Zn16  1.877371 S    
C114  C218  1.419650 S    
O42   C18   1.300303 A    
C126  C134  1.490829 S    
C82   C138  1.492928 S    
O48   C24   1.299939 A    
C152  C192  1.373042 A    
C18   C42   1.481088 S    
O3    C3    1.278197 A    
C108  C116  1.413569 A    
C27   C155  1.418684 S    
C120  C128  1.392327 A    
C49   C65   1.456230 S    
C100  C108  1.396846 A    
O57   C25   1.275109 A    
C22   C46   1.481070 S    
C151  C159  1.381058 A    
O45   C21   1.299778 A    
C112  C120  1.415617 A    
C85   C141  1.490485 S    
Zn10  O58   2.014943 S    
O93   C223  1.220716 A    
C118  C126  1.392317 A    
C62   C78   1.456227 S    
C83   C139  1.492077 S    
O20   Zn1   1.877508 S    
C56   C72   1.456230 S    
C148  C204  1.492914 S    
C166  C174  1.390234 A    
C195  H64   1.111722 S    
C2    C90   1.429008 S    
C138  H27   1.111644 S    
C172  C180  1.401431 A    
O88   Zn24  2.015343 S    
C86   C94   1.384609 A    
C204  H79   1.112226 S    
O60   C28   1.275329 A    
Zn12  O60   2.014943 S    
O51   C27   1.279291 A    
O36   Zn9   1.878323 S    
C129  H9    1.111749 S    
C82   C122  1.371626 A    
C147  C203  1.492898 S    
O10   Zn10  2.023941 S    
O74   Zn22  2.016444 S    
O79   Zn23  2.015616 S    
C113  C217  1.414191 S    
C128  C136  1.490840 S    
C88   C144  1.490534 S    
C98   C106  1.396364 A    
C136  H23   1.109448 S    
O46   C22   1.300300 A    
C116  C124  1.391967 A    
O28   C20   1.299643 A    
O13   C5    1.273340 A    
C47   C63   1.232962 T    
C202  H75   1.111558 S    
C48   C64   1.232974 T    
O24   C16   1.299639 A    
O67   Zn17  2.015616 S    
C105  N1    1.440447 S    
C60   C76   1.456239 S    
O38   Zn12  1.878257 S    
C112  N8    1.442664 S    
C61   C77   1.456232 S    
O79   C216  1.222373 A    
C4    C92   1.421875 S    
C90   C98   1.401284 A    
C5    C93   1.426244 S    
C199  H72   1.111480 S    
C182  C213  1.429008 S    
O5    Zn5   2.015924 S    
C8    C96   1.425550 S    
O86   C220  1.225012 A    
N2    O99   1.299975 A    
C193  H57   1.111736 S    
O7    Zn7   2.015924 S    
C96   C104  1.404798 A    
C91   C99   1.396734 A    
C19   C43   1.481036 S    
O83   Zn21  2.015252 S    
Zn6   O54   2.023941 S    
O27   Zn6   1.878545 S    
O58   C26   1.275330 A    
C121  C129  1.492535 S    
N6    O107  1.299744 A    
Zn2   O50   2.023939 S    
O1    Zn1   2.015924 S    
C207  H88   1.111672 S    
O31   Zn8   1.878545 S    
O46   Zn16  1.878258 S    
Zn5   O53   2.024915 S    
C195  C203  1.518214 S    
O23   Zn4   1.878545 S    
O92   C221  1.220730 A    
C84   C124  1.369100 A    
O37   C13   1.299716 A    
C173  C181  1.401223 A    
C167  H47   1.083515 S    
C177  C210  1.424979 S    
C168  H48   1.083727 S    
N5    O105  1.299671 A    
O33   C9    1.299760 A    
C98   H2    1.083585 S    
C163  C171  1.390126 A    
C7    C95   1.426357 S    
C142  H35   1.111561 S    
C164  H44   1.083738 S    
O13   Zn13  2.024913 S    
C152  C208  1.492432 S    
O31   C23   1.300237 A    
C102  H6    1.083725 S    
C33   C49   1.232953 T    
C130  C138  1.515389 S    
O47   C23   1.300175 A    
O6    C6    1.284979 A    
C107  C115  1.417869 A    
C190  C198  1.493919 S    
C87   C127  1.368957 A    
C101  C109  1.396733 A    
C94   C102  1.404829 A    
C199  C207  1.541498 S    
C105  C113  1.412080 A    
C133  H17   1.109492 S    
O69   C211  1.222642 A    
O67   C210  1.222848 A    
O70   C212  1.222952 A    
C144  H38   1.111557 S    
C174  C182  1.403643 A    
O84   C217  1.221043 A    
O82   C218  1.227885 A    
O10   C2    1.279637 A    
C130  H11   1.108537 S    
N3    O102  1.300899 A    
C196  H63   1.111736 S    
O6    Zn6   2.014945 S    
O91   C222  1.220567 A    
C43   C59   1.232945 T    
C166  H46   1.083786 S    
C109  N5    1.442661 S    
C73   C78   1.232952 T    
O9    Zn9   2.024915 S    
C106  N2    1.442939 S    
O52   C28   1.279423 A    
C45   C61   1.232950 T    
C104  C112  1.396451 A    
C198  H66   1.111567 S    
C183  C216  1.412966 S    
C51   C67   1.456247 S    
N8    O111  1.299718 A    
O85   C219  1.220599 A    
O27   C19   1.300213 A    
C155  C163  1.401131 A    
C65   C70   1.232955 T    
C38   C54   1.232963 T    
O35   C11   1.300134 A    
C81   C89   1.390852 A    
C198  C206  1.518252 S    
C184  C192  1.392763 A    
C201  H76   1.111554 S    
C152  C160  1.388729 A    
O73   Zn21  2.014505 S    
O37   Zn11  1.877227 S    
O17   C9    1.299862 A    
C89   C97   1.405413 A    
Zn16  O64   2.014948 S    
C147  C187  1.373017 A    
O20   C12   1.299713 A    
C145  C153  1.389319 A    
O21   C13   1.299933 A    
O77   C215  1.222743 A    
C200  H71   1.111998 S    
C165  H45   1.083727 S    
O23   C15   1.300202 A    
O68   C209  1.222780 A    
O14   Zn14  2.023939 S    
O64   C32   1.274702 A    
C9    C33   1.481057 S    
C156  C164  1.401042 A    
C117  C221  1.420998 S    
O44   C20   1.299971 A    
C157  C165  1.401348 A    
O75   Zn21  2.015616 S    
C204  H78   1.111562 S    
C165  C173  1.390046 A    
C159  C167  1.407326 A    
C32   C160  1.417838 S    
C15   C39   1.481049 S    
C36   C52   1.232971 T    
C59   C75   1.456230 S    
C148  C156  1.389189 A    
C203  H77   1.111560 S    
O96   Zn20  2.015343 S    
O32   Zn7   1.877508 S    
C149  C157  1.389651 A    
O45   Zn15  1.877228 S    
O43   C19   1.300179 A    
O36   C12   1.299933 A    
C208  H87   1.112203 S    
C180  C188  1.393126 A    
O75   C214  1.225828 A    
C178  C209  1.424308 S    
C85   C125  1.368888 A    
C170  H50   1.083454 S    
O72   Zn20  2.015528 S    
C84   C92   1.387560 A    
C64   C80   1.456245 S    
Zn14  O62   2.014948 S    
C87   C95   1.384696 A    
C136  H22   1.111336 S    
C88   C96   1.384539 A    
O32   C24   1.299717 A    
C119  C223  1.420986 S    
C16   C40   1.481034 S    
C120  C224  1.420321 S    
C183  C191  1.380955 A    
C29   C157  1.419175 S    
C134  H19   1.111337 S    
C139  H32   1.111537 S    
C123  C131  1.494753 S    
O1    C1    1.282867 A    
O40   Zn11  1.878323 S    
C206  H82   1.111612 S    
C25   C153  1.418543 S    
C88   C128  1.368671 A    
C110  N6    1.442679 S    
C200  C208  1.517027 S    
C177  C185  1.393190 A    
O25   Zn5   1.878610 S    
O81   C217  1.218693 A    
O7    C7    1.284716 A    
O82   Zn22  2.014228 S    
O8    C8    1.284918 A    
O17   Zn1   1.878610 S    
C12   C36   1.481098 S    
C180  C211  1.424333 S    
C21   C45   1.481051 S    
N7    O109  1.299672 A    
C141  H36   1.111558 S    
C181  C214  1.424332 S    
C134  C142  1.514851 S    
O49   C25   1.279224 A    
C10   C34   1.481043 S    
C203  H80   1.112223 S    
N7    O110  1.301650 A    
C58   C74   1.456242 S    
N4    O104  1.301400 A    
C129  C137  1.516377 S    
O30   C22   1.300120 A    
C34   C50   1.232951 T    
C109  C117  1.415755 A    
C132  H14   1.111527 S    
C170  C178  1.401430 A    
C191  C199  1.488631 S    
C101  H5    1.083728 S    
C135  H21   1.111328 S    
C148  C188  1.372627 A    
O11   C3    1.274368 A    
O72   C211  1.225894 A    
O80   C215  1.225866 A    
O28   Zn5   1.877508 S    
O39   C15   1.300185 A    
O40   C16   1.299972 A    
C99   H3    1.084575 S    
O61   C29   1.275231 A    
C186  C194  1.493761 S    
C97   H1    1.083240 S    
C132  C140  1.517902 S    
C197  H68   1.111809 S    
O63   C31   1.275139 A    
O66   C210  1.226053 A    
O65   C209  1.225744 A    
C100  H4    1.083971 S    
C196  H62   1.111542 S    
C125  C133  1.490877 S    
Zn4   O52   2.023939 S    
N2    O100  1.301663 A    
N1    O98   1.301708 A    
C102  C110  1.396428 A    
C104  H8    1.083733 S    
C17   C41   1.481080 S    
C83   C91   1.386233 A    
C111  N7    1.442668 S    
C92   C100  1.401715 A    
C143  H37   1.111561 S    
C117  C125  1.392401 A    
C86   C142  1.490534 S    
Zn11  O59   2.015921 S    
C23   C47   1.481078 S    
O43   Zn14  1.877371 S    
C135  C143  1.514881 S    
C201  H73   1.112230 S    
C13   C37   1.481095 S    
C42   C58   1.232969 T    
C74   C77   1.232955 T    
C161  C169  1.390246 A    
C163  H43   1.083731 S    
C81   C121  1.369702 A    
C46   C62   1.232957 T    
C39   C55   1.232954 T    
C200  H70   1.111586 S    
C40   C56   1.232948 T    
O5    C5    1.284667 A    
N6    O108  1.301606 A    
C131  H16   1.111583 S    
N3    O101  1.300693 A    
C160  C168  1.401481 A    
Zn7   O55   2.024915 S    
C140  H31   1.111560 S    
O29   Zn7   1.878610 S    
O91   Zn17  2.015252 S    
C124  C132  1.493778 S    
C82   C90   1.388947 A    
O33   Zn9   1.877227 S    
C119  C127  1.392378 A    
C146  C202  1.492918 S    
O39   Zn12  1.877371 S    
O9    C1    1.278419 A    
O18   C10   1.300053 A    
O50   C26   1.279500 A    
O41   C17   1.299719 A    
O21   Zn3   1.878610 S    
C24   C48   1.481104 S    
C137  H28   1.112390 S    
O22   C14   1.300143 A    
O62   C30   1.274438 A    
O19   C11   1.300305 A    
C208  H86   1.111570 S    
C195  H61   1.111538 S    
C138  H26   1.112408 S    
C158  C166  1.399260 A    
O89   C221  1.223824 A    
C44   C60   1.232960 T    
C205  H84   1.112225 S    
C193  H60   1.111543 S    
C28   C156  1.417754 S    
O83   C218  1.221481 A    
C63   C79   1.456244 S    
C184  C215  1.424675 S    
O59   C27   1.275113 A    
C108  N4    1.438547 S    
C153  C161  1.401146 A    
C150  C158  1.387916 A    
Zn1   O49   2.024913 S    
C192  C200  1.492671 S    
O54   C30   1.278475 A    
O93   Zn19  2.016172 S    
O14   C6    1.273564 A    
C171  H51   1.083448 S    
C151  C207  1.488917 S    
C149  C189  1.373087 A    
C179  C212  1.424941 S    
C146  C154  1.389341 A    
C55   C71   1.456230 S    
C131  H13   1.111497 S    
O92   Zn18  2.015343 S    
Zn9   O57   2.015921 S    
C164  C172  1.389973 A    
C202  H74   1.112225 S    
O69   Zn19  2.014505 S    
C145  C185  1.372895 A    
C14   C38   1.481081 S    
O88   C219  1.227828 A    
O70   Zn20  2.016444 S    
O78   Zn24  2.016444 S    
C150  C206  1.492603 S    
O78   C216  1.219971 A    
O11   Zn11  2.024915 S    
C115  C219  1.428751 S    
O87   C220  1.219552 A    
C133  C141  1.514858 S    
C198  H67   1.111260 S    
O16   Zn16  2.023939 S    
C199  H69   1.111721 S    
N8    O112  1.301632 A    
O85   Zn23  2.016172 S    
C85   C93   1.384638 A    
O71   Zn19  2.015616 S    
C31   C159  1.413432 S    
C30   C158  1.414238 S    
C141  H33   1.112286 S    
O2    C2    1.280416 A    
C189  C197  1.493759 S    
O34   Zn10  1.878257 S    
C20   C44   1.481069 S    
O25   C17   1.299926 A    
C182  C190  1.394449 A    
C35   C51   1.232974 T    
O56   C32   1.280096 A    
O90   Zn18  2.014228 S    
C115  C123  1.394107 A    
O95   Zn19  2.015252 S    
O94   Zn20  2.014228 S    
O44   Zn13  1.878323 S    
C3    C91   1.415454 S    
C207  H85   1.111497 S    
C136  C144  1.514821 S    
C175  C183  1.406951 A    
C1    C89   1.432913 S    
C176  C184  1.401159 A    
O73   C213  1.224375 A    
C41   C57   1.232959 T    
C66   C69   1.232960 T    
O22   Zn4   1.877651 S    
C194  H58   1.111715 S    
N5    O106  1.301654 A    
C196  C204  1.518146 S    
C179  C187  1.393170 A    
C131  C139  1.518160 S    
C142  H34   1.112284 S    
O68   Zn18  2.015528 S    
C132  H15   1.111577 S    
C197  H65   1.111540 S    
Zn8   O56   2.023941 S    
O19   Zn2   1.878545 S    
O53   C29   1.279423 A    
O2    Zn2   2.014945 S    
C171  C179  1.401509 A    
C172  H52   1.083443 S    
O15   C7    1.273348 A    
C173  H53   1.083472 S    
O16   C8    1.273557 A    
C167  C175  1.399550 A    
C150  C190  1.372344 A    
O12   C4    1.276770 A    
C107  N3    1.434562 S    
C114  C122  1.391136 A    
C129  H12   1.112046 S    
O26   C18   1.300135 A    
C6    C94   1.425690 S    
C178  C186  1.393097 A    
C81   C137  1.493812 S    
C146  C186  1.372782 A    
O87   Zn23  2.015252 S    
C57   C73   1.456230 S    
C52   C68   1.456245 S    
O41   Zn13  1.877228 S    
C53   C69   1.456247 S    
C130  H10   1.112248 S    
C83   C123  1.370282 A    
O48   Zn15  1.878323 S    
O66   Zn18  2.016444 S    
C103  C111  1.396725 A    
C206  H83   1.112356 S    
C194  H59   1.111543 S    
C116  C220  1.423116 S    
C162  H42   1.083743 S    
C174  H54   1.083297 S    
C111  C119  1.415734 A    
C84   C140  1.493478 S    
O76   Zn22  2.015528 S    
O77   Zn23  2.014505 S    
C86   C126  1.368758 A    
C140  H30   1.112226 S    
C181  C189  1.392995 A    
C169  H49   1.083437 S    
Zn15  O63   2.015926 S    
C187  C195  1.493755 S    
O71   C212  1.225932 A    
C149  C205  1.492958 S    
Zn13  O61   2.015926 S    
O3    Zn3   2.015924 S    
C162  C170  1.389831 A    
O15   Zn15  2.024913 S    
O76   C213  1.226397 A    
C137  H25   1.111672 S    
C54   C70   1.456236 S    
C75   C80   1.232958 T    
C95   C103  1.404883 A    
C76   C79   1.232960 T    
O81   Zn21  2.016172 S    
C127  C135  1.490866 S    
O89   Zn17  2.016172 S    
C87   C143  1.490485 S    
C103  H7    1.083724 S    
O4    C4    1.280069 A    
Zn3   O51   2.024913 S    
C135  H24   1.109500 S    
C188  C196  1.493790 S    
C151  C191  1.338729 A    
C122  C130  1.494856 S    
C205  H81   1.111558 S    
C67   C72   1.232957 T    
N4    O103  1.300547 A    
C169  C177  1.401515 A    
O55   C31   1.277012 A    
O26   Zn6   1.877651 S    
C26   C154  1.417917 S    
O30   Zn8   1.877651 S    
O18   Zn2   1.877651 S    
C93   C101  1.404861 A    
O74   C214  1.222761 A    
O4    Zn4   2.014945 S    
O42   Zn14  1.878258 S    
C197  C205  1.518154 S    
O84   Zn22  2.015343 S    
C106  C114  1.417038 A    
C11   C35   1.481098 S    
N1    O97   1.300235 A    
C145  C201  1.492891 S    
O8    Zn8   2.014945 S    
O35   Zn10  1.877371 S    
O90   C222  1.223616 A    
C161  H41   1.083730 S    
C133  H20   1.111335 S    
