data_mof_unit_35681.cif
_audit_creation_date              2012-12-10T17:46:57-0500
_audit_creation_method            fapswitch 2.2
_symmetry_space_group_name_H-M    P1
_symmetry_Int_Tables_number       1
_space_group_crystal_system       triclinic
_cell_length_a                    9.949151
_cell_length_b                    10.610263
_cell_length_c                    13.64579
_cell_angle_alpha                 92.137791
_cell_angle_beta                  83.404142
_cell_angle_gamma                 87.578578
_cell_volume                      1428.38958403

loop_
_atom_site_label
_atom_site_type_symbol
_atom_type_description
_atom_site_fract_x
_atom_site_fract_y
_atom_site_fract_z
_atom_type_partial_charge
C1    C     C_R   0.498823 0.740131 0.488341 0.923982
C2    C     C_R   0.632411 0.924373 0.444666 -0.034889
C3    C     C_R   0.640992 0.054965 0.451897 -0.068696
C4    C     C_R   0.476527 0.502723 0.685249 0.954541
C5    C     C_R   0.520456 0.128026 0.449030 -0.120817
C6    C     C_R   0.858231 0.429398 0.670570 0.379299
C7    C     C_R   0.906293 0.452968 0.761952 0.209119
C8    C     C_R   0.015524 0.531384 0.767991 -0.272339
C9    C     C_R   0.091815 0.564533 0.679265 0.406977
C10   C     C_R   0.054804 0.518721 0.587260 0.050711
C11   C     C_R   0.917906 0.487832 0.586156 -0.049986
C12   C     C_1   0.462473 0.526031 0.787604 -0.012419
C13   C     C_R   0.944550 0.497721 0.413983 0.024811
C14   C     C_R   0.087074 0.491168 0.414762 -0.020068
C15   C     C_R   0.505734 0.260370 0.484845 0.917235
C16   C     C_R   0.523230 0.504339 0.315008 0.898452
C17   C     C_1   0.535836 0.498041 0.211803 -0.026985
C18   C     C_2   0.510221 0.472534 0.025389 0.412554
C19   C     C_2   0.471744 0.571686 0.974936 -0.158727
C20   C     C_1   0.461424 0.549236 0.873394 0.090508
C21   C     C_1   0.530520 0.486928 0.125649 0.077658
C22   C     C_2   0.447436 0.704431 0.014834 0.469216
C23   C     C_R   0.264591 0.898801 0.403480 0.388694
C24   C     C_2   0.047908 0.575449 0.867157 0.627195
C25   C     C_2   0.755685 0.846933 0.403628 0.464055
C26   C     C_2   0.082591 0.894181 0.289578 0.560240
C27   C     C_2   0.413358 0.230527 0.274284 0.488143
C28   C     C_2   0.775404 0.112651 0.446858 0.479332
C29   C     C_2   0.896960 0.484581 0.316831 0.511229
C30   C     C_R   0.197379 0.955880 0.329741 -0.108902
C31   C     C_R   0.240245 0.071087 0.293273 0.233893
C32   C     C_R   0.348967 0.129023 0.330971 -0.076605
C33   C     C_R   0.414554 0.071200 0.405926 -0.003851
C34   C     C_R   0.389220 0.945618 0.428478 -0.017146
C35   C     C_R   0.501781 0.872094 0.458284 -0.120877
Cl1   Cl    Cl    0.770332 0.290290 0.657870 -0.427164
Cl2   Cl    Cl    0.832369 0.380146 0.868079 -0.460967
Cl3   Cl    Cl    0.189045 0.699475 0.684975 -0.444435
Cl4   Cl    Cl    0.522381 0.315798 0.975056 -0.412469
Cl5   Cl    Cl    0.155359 0.821109 0.488822 -0.487861
Cl6   Cl    Cl    0.161441 0.140378 0.196764 -0.541528
H1    H     H_    0.152876 0.480673 0.345830 0.152735
H2    H     H_    0.424371 0.777901 0.965194 0.130123
H3    H     H_    0.971407 0.575944 0.930584 0.105172
H4    H     H_    0.849867 0.853427 0.435717 0.147865
H5    H     H_    0.005544 0.949713 0.258080 0.123190
H6    H     H_    0.351718 0.302736 0.244058 0.104851
H7    H     H_    0.796049 0.192629 0.401227 0.149739
H8    H     H_    0.887246 0.566460 0.272606 0.137897
N1    N     N_R   0.857120 0.501200 0.500900 -0.113915
N2    N     N_R   0.142720 0.501280 0.500940 -0.087590
O1    O     O_R   0.385310 0.683220 0.500000 -0.527999
O2    O     O_2   0.160211 0.609575 0.880211 -0.547074
O3    O     O_2   0.751948 0.775760 0.331737 -0.573943
O4    O     O_2   0.074801 0.779590 0.288960 -0.562024
O5    O     O_2   0.536418 0.229000 0.255178 -0.557721
O6    O     O_2   0.863579 0.072089 0.494163 -0.526765
O7    O     O_2   0.874764 0.380350 0.283115 -0.525128
O8    O     O_R   0.614640 0.683250 0.500010 -0.622972
O9    O     O_R   0.368830 0.499960 0.640340 -0.579358
O10   O     O_R   0.598160 0.499980 0.640350 -0.603214
O11   O     O_R   0.385360 0.316750 0.499990 -0.616993
O12   O     O_R   0.614690 0.316780 0.500000 -0.587641
O13   O     O_R   0.401840 0.500020 0.359650 -0.662538
O14   O     O_R   0.631170 0.500040 0.359660 -0.593568
O15   O     O_2   0.451111 0.733794 0.101809 -0.548413
Zn1   Zn    Zn3+2 0.346870 0.499980 0.499990 1.045695
Zn2   Zn    Zn3+2 0.653130 0.500020 0.500010 1.038476

loop_
_geom_bond_atom_site_label_1
_geom_bond_atom_site_label_2
_ccdc_geom_bond_type
C2    C35   A    
C8    C9    A    
C28   O6    D    
C18   Cl4   S    
O13   Zn1   S    
C6    C7    A    
O8    Zn2   S    
C4    C12   S    
C18   C21   S    
C16   O13   A    
C9    C10   A    
C22   H2    S    
C14   H1    S    
C23   C34   A    
C32   C33   A    
O14   Zn2   S    
C33   C34   A    
C7    Cl2   S    
C7    C8    A    
C11   N1    A    
N2    Zn1   S    
C13   C14   A    
C26   O4    D    
O10   Zn2   S    
C12   C20   T    
O1    Zn1   S    
O11   Zn1   S    
C34   C35   A    
C10   N2    A    
C29   O7    D    
C13   C29   S    
C9    Cl3   S    
C8    C24   S    
C15   O11   A    
C6    Cl1   S    
C26   C30   S    
C2    C25   S    
C2    C3    A    
C1    O8    A    
C14   N2    A    
C30   C31   A    
C24   H3    S    
C1    O1    A    
C17   C21   T    
C5    C15   S    
C3    C28   S    
C10   C11   A    
C26   H5    S    
C13   N1    A    
C23   C30   A    
C25   H4    S    
C19   C22   S    
C27   C32   S    
C25   O3    D    
C1    C35   S    
C18   C19   D    
C27   H6    S    
C6    C11   A    
C23   Cl5   S    
C15   O12   A    
C27   O5    D    
C22   O15   D    
C29   H8    S    
C16   O14   A    
C31   Cl6   S    
C3    C5    A    
C24   O2    D    
O12   Zn2   S    
N1    Zn2   S    
C4    O10   A    
C31   C32   A    
C28   H7    S    
C19   C20   S    
O9    Zn1   S    
C16   C17   S    
C4    O9    A    
C5    C33   A    
