data_mof_unit_67635.cif
_audit_creation_date              2012-12-10T18:20:40-0500
_audit_creation_method            fapswitch 2.2
_symmetry_space_group_name_H-M    P1
_symmetry_Int_Tables_number       1
_space_group_crystal_system       triclinic
_cell_length_a                    15.902922
_cell_length_b                    10.897541
_cell_length_c                    9.719057
_cell_angle_alpha                 89.801766
_cell_angle_beta                  90.565016
_cell_angle_gamma                 90.668271
_cell_volume                      1684.13337112

loop_
_atom_site_label
_atom_site_type_symbol
_atom_type_description
_atom_site_fract_x
_atom_site_fract_y
_atom_site_fract_z
_atom_type_partial_charge
C1    C     C_R   0.501437 0.259940 0.500937 0.844464
C2    C     C_R   0.494893 0.739633 0.498606 0.869626
C3    C     C_3   0.559183 0.952032 0.568113 0.102771
C4    C     C_3   0.431878 0.047807 0.428398 0.113536
C5    C     C_3   0.490352 0.877531 0.493568 -0.217936
C6    C     C_3   0.500963 0.121837 0.503824 -0.225631
C7    C     C_3   0.422095 0.960456 0.553367 0.105044
C8    C     C_3   0.568541 0.038576 0.442844 0.115928
C9    C     C_3   0.542178 0.591048 0.049693 0.428793
C10   C     C_3   0.457620 0.409404 0.951190 0.408361
C11   C     C_3   0.465804 0.599638 0.949883 -0.029846
C12   C     C_3   0.533248 0.401043 0.050911 0.088156
C13   C     C_3   0.574777 0.492148 0.951457 0.335496
C14   C     C_3   0.424363 0.505983 0.050507 0.351255
C15   C     C_R   0.341079 0.502605 0.499513 0.796462
C16   C     C_R   0.659642 0.502848 0.501278 0.802897
C17   C     C_3   0.976407 0.424148 0.575112 0.389860
C18   C     C_3   0.028346 0.627310 0.447994 0.310256
C19   C     C_3   0.026586 0.427602 0.440914 0.322483
C20   C     C_3   0.979528 0.623778 0.584285 0.332610
C21   C     C_1   0.252246 0.512583 0.498840 -0.151387
C22   C     C_1   0.749958 0.512152 0.507624 -0.120424
C23   C     C_3   0.036902 0.520647 0.638660 0.066373
C24   C     C_3   0.967911 0.529220 0.384821 -0.025164
C25   C     C_3   0.086232 0.524952 0.502722 -0.160602
C26   C     C_3   0.918077 0.526396 0.522606 -0.153574
C27   C     C_1   0.177320 0.520818 0.499298 0.048247
C28   C     C_1   0.825621 0.520201 0.517489 0.086127
C29   C     C_3   0.491302 0.035800 0.629072 0.162340
C30   C     C_3   0.499366 0.963017 0.367770 0.174661
Cu1   Cu    Cu3+1 0.500020 0.499990 0.643150 1.034596
Cu2   Cu    Cu3+1 0.499980 0.500010 0.356850 1.084792
N1    N     N_3   0.500060 0.499970 0.858290 -0.267393
N2    N     N_3   0.499940 0.500030 0.141710 -0.236607
O1    O     O_R   0.500040 0.316850 0.620870 -0.559384
O2    O     O_R   0.499960 0.683150 0.379130 -0.543378
O3    O     O_R   0.500000 0.316860 0.379090 -0.517533
O4    O     O_R   0.500000 0.683140 0.620910 -0.523267
O5    O     O_R   0.379090 0.499980 0.620870 -0.580011
O6    O     O_R   0.620910 0.500020 0.379130 -0.532963
O7    O     O_R   0.379060 0.499990 0.379090 -0.528816
O8    O     O_R   0.620940 0.500010 0.620910 -0.554478
O9    O     O_3   0.047945 0.319019 0.370919 -0.585540
C31   C     C_3   0.105421 0.344784 0.264409 0.126179
H1    H     H_    0.170323 0.345564 0.307424 0.148840
H2    H     H_    0.093983 0.434573 0.212578 0.166302
C32   C     C_3   0.100439 0.243051 0.156742 -0.339174
H3    H     H_    0.151475 0.257287 0.080953 0.185985
H4    H     H_    0.109943 0.152578 0.207437 0.235938
C33   C     C_3   0.015942 0.242306 0.081217 -0.738953
H5    H     H_    0.963983 0.230740 0.155454 0.278118
H6    H     H_    0.013473 0.166354 0.005672 0.229536
H7    H     H_    0.006663 0.329534 0.024957 0.299749
O10   O     O_3   0.957525 0.724398 0.667456 -0.592851
C34   C     C_3   0.029835 0.797740 0.698063 0.111266
H8    H     H_    0.031069 0.877835 0.629351 0.152558
H9    H     H_    0.090923 0.750103 0.685432 0.181893
C35   C     C_3   0.026050 0.846724 0.844506 -0.335333
H10   H     H_    0.962841 0.884900 0.864026 0.232896
H11   H     H_    0.037355 0.770280 0.917516 0.247711
C36   C     C_3   0.092719 0.947130 0.867074 -0.933975
H12   H     H_    0.155875 0.913440 0.839628 0.294388
H13   H     H_    0.094147 0.976185 0.975993 0.261518
H14   H     H_    0.078475 0.028440 0.802478 0.261623
O11   O     O_3   0.956389 0.321438 0.656615 -0.590530
C37   C     C_3   0.905357 0.236532 0.584852 0.109370
H15   H     H_    0.911091 0.241237 0.470783 0.181898
H16   H     H_    0.838674 0.254026 0.611058 0.155776
C38   C     C_3   0.930682 0.108553 0.633315 -0.381560
H17   H     H_    0.991692 0.084653 0.586261 0.224295
H18   H     H_    0.938962 0.107982 0.746963 0.236370
C39   C     C_3   0.864569 0.012664 0.595987 -0.856300
H19   H     H_    0.803014 0.041324 0.636502 0.297613
H20   H     H_    0.879870 0.923708 0.644183 0.295251
H21   H     H_    0.861390 0.000490 0.482854 0.278123
O12   O     O_3   0.058905 0.731854 0.377072 -0.589929
C40   C     C_3   0.993574 0.817153 0.354987 0.111320
H22   H     H_    0.004946 0.897988 0.420775 0.152437
H23   H     H_    0.929126 0.780516 0.376516 0.169366
C41   C     C_3   0.995882 0.864846 0.208180 -0.338154
H24   H     H_    0.058140 0.908217 0.189355 0.225887
H25   H     H_    0.986096 0.787699 0.135913 0.252511
C42   C     C_3   0.927373 0.959352 0.185379 -0.941660
H26   H     H_    0.865443 0.918339 0.211127 0.280665
H27   H     H_    0.926451 0.989831 0.076437 0.263034
H28   H     H_    0.938654 0.039800 0.253007 0.272087
I1    I     I_    0.911201 0.537542 0.185336 -0.442120
I2    I     I_    0.090496 0.508367 0.840851 -0.481569
I3    I     I_    0.662804 0.861490 0.668467 -0.389685
I4    I     I_    0.330100 0.136858 0.318695 -0.316109
I5    I     I_    0.504426 0.069658 0.837195 -0.236564
I6    I     I_    0.476823 0.916015 0.164476 -0.228498
I7    I     I_    0.294575 0.906754 0.597828 -0.385704
I8    I     I_    0.693782 0.094763 0.390456 -0.449065
I9    I     I_    0.405591 0.755922 0.868390 -0.284395
I10   I     I_    0.581647 0.234602 0.124613 -0.223304
O13   O     O_3   0.592579 0.680721 0.116235 -0.564111
C43   C     C_3   0.636628 0.755400 0.022216 0.124491
H29   H     H_    0.591712 0.809572 0.959322 0.211889
H30   H     H_    0.676961 0.702501 0.952885 0.210697
C44   C     C_3   0.695034 0.840501 0.104441 -0.297013
H31   H     H_    0.660608 0.880227 0.191910 0.277676
H32   H     H_    0.747952 0.786574 0.147975 0.227324
C45   C     C_3   0.729499 0.944591 0.016053 -0.862232
H33   H     H_    0.774763 0.909016 0.940032 0.272552
H34   H     H_    0.761860 0.012641 0.082831 0.277317
H35   H     H_    0.677614 0.992413 0.961983 0.304157
O14   O     O_3   0.417965 0.303586 0.896969 -0.544229
C46   C     C_3   0.331235 0.319760 0.873131 0.130428
H36   H     H_    0.317351 0.411306 0.828640 0.155179
H37   H     H_    0.296903 0.307666 0.971322 0.177112
C47   C     C_3   0.300383 0.220446 0.773132 -0.310753
H38   H     H_    0.337341 0.225966 0.676816 0.243821
H39   H     H_    0.310277 0.128808 0.820664 0.269291
C48   C     C_3   0.207411 0.232954 0.737124 -0.853661
H40   H     H_    0.168730 0.227718 0.831404 0.268400
H41   H     H_    0.187598 0.157676 0.666880 0.283206
H42   H     H_    0.196366 0.321279 0.683797 0.282220
O15   O     O_3   0.656868 0.500051 0.896717 -0.601118
C49   C     C_3   0.691521 0.384634 0.867387 0.125108
H43   H     H_    0.719702 0.388689 0.763698 0.170419
H44   H     H_    0.644718 0.308209 0.863207 0.163690
C50   C     C_3   0.763802 0.360575 0.967858 -0.301425
H45   H     H_    0.810697 0.436056 0.957105 0.266188
H46   H     H_    0.740885 0.361587 0.075225 0.258812
C51   C     C_3   0.806867 0.239401 0.938669 -0.906375
H47   H     H_    0.762013 0.170676 0.895617 0.269940
H48   H     H_    0.834727 0.202604 0.035025 0.270183
H49   H     H_    0.858013 0.254884 0.864233 0.290015
O16   O     O_3   0.345864 0.485374 0.115000 -0.584904
C52   C     C_3   0.282110 0.564517 0.069721 0.008896
H50   H     H_    0.221583 0.514142 0.081490 0.170939
H51   H     H_    0.285949 0.586696 0.958754 0.170704
C53   C     C_3   0.278873 0.678195 0.161469 -0.258283
H52   H     H_    0.262427 0.650405 0.267558 0.230477
H53   H     H_    0.341371 0.723758 0.165430 0.255941
C54   C     C_3   0.213403 0.768629 0.109984 -0.814359
H54   H     H_    0.229488 0.800653 0.005107 0.278577
H55   H     H_    0.212189 0.849212 0.179517 0.276430
H56   H     H_    0.150139 0.724398 0.107958 0.270109

loop_
_geom_bond_atom_site_label_1
_geom_bond_atom_site_label_2
_ccdc_geom_bond_type
C37   H16   S    
C34   H8    S    
C44   H31   S    
C7    C29   S    
Cu1   O8    S    
C36   H14   S    
C10   O14   S    
C52   C53   S    
C53   C54   S    
C47   H39   S    
O13   C43   S    
C50   H45   S    
C32   H4    S    
C40   H22   S    
C31   H1    S    
C54   H55   S    
C17   C23   S    
C18   C24   S    
C17   C26   S    
Cu2   O2    S    
C24   C26   S    
C41   C42   S    
C11   C14   S    
C50   H46   S    
C37   C38   S    
C35   H11   S    
C48   H40   S    
O14   C46   S    
C36   H13   S    
C38   H18   S    
C9    C13   S    
C45   H33   S    
Cu1   Cu2   S    
C49   H44   S    
C48   H41   S    
C33   H6    S    
Cu2   O7    S    
Cu1   N1    S    
C31   C32   S    
C1    O3    A    
C3    C5    S    
C35   C36   S    
C23   C25   S    
C37   H15   S    
C21   C27   T    
C44   H32   S    
C22   C28   T    
C38   H17   S    
C18   C25   S    
C39   H21   S    
C45   H34   S    
C47   H38   S    
C13   O15   S    
C19   O9    S    
C32   C33   S    
C4    I4    S    
C40   H23   S    
C7    I7    S    
C54   H56   S    
C33   H7    S    
C1    C6    S    
C32   H3    S    
C11   N1    S    
C8    I8    S    
O12   C40   S    
C15   O7    A    
C39   H20   S    
C3    C8    S    
C10   C14   S    
C46   C47   S    
C5    C7    S    
C39   H19   S    
C50   C51   S    
C53   H53   S    
C31   H2    S    
C51   H49   S    
C4    C7    S    
C35   H10   S    
C16   C22   S    
Cu2   N2    S    
C38   C39   S    
O9    C31   S    
C13   N1    S    
C2    O4    A    
C42   H26   S    
C20   C23   S    
C48   H42   S    
C6    C29   S    
C33   H5    S    
Cu2   O3    S    
C45   H35   S    
C9    C11   S    
C15   O5    A    
C10   C12   S    
C16   O6    A    
C9    O13   S    
C20   O10   S    
C42   H27   S    
O11   C37   S    
C44   C45   S    
C43   H30   S    
C23   I2    S    
C34   H9    S    
C9    N2    S    
Cu1   O1    S    
C4    C6    S    
C12   N2    S    
C52   H50   S    
C16   O8    A    
C29   I5    S    
C49   H43   S    
C1    O1    A    
C5    C30   S    
C14   O16   S    
C40   C41   S    
C2    O2    A    
O10   C34   S    
C51   H48   S    
C26   C28   S    
C41   H24   S    
C52   H51   S    
C14   N2    S    
C6    C8    S    
O15   C49   S    
C49   C50   S    
C53   H52   S    
C25   C27   S    
C43   C44   S    
C54   H54   S    
C17   O11   S    
Cu1   O4    S    
C3    I3    S    
C8    C30   S    
C46   H37   S    
O16   C52   S    
C46   H36   S    
C3    C29   S    
C20   C26   S    
C51   H47   S    
C17   C19   S    
C41   H25   S    
Cu1   O5    S    
C19   C24   S    
C10   N1    S    
C18   C20   S    
Cu2   O6    S    
C36   H12   S    
C19   C25   S    
C24   I1    S    
C2    C5    S    
C15   C21   S    
C42   H28   S    
C11   I9    S    
C12   C13   S    
C43   H29   S    
C34   C35   S    
C12   I10   S    
C47   C48   S    
C4    C30   S    
C18   O12   S    
C30   I6    S    
