data_mof_unit_39898.cif
_audit_creation_date              2013-03-05T16:15:17-0500
_audit_creation_method            fapswitch 2.2
_symmetry_space_group_name_H-M    P1
_symmetry_Int_Tables_number       1
_space_group_crystal_system       triclinic
_cell_length_a                    27.731445
_cell_length_b                    10.615128
_cell_length_c                    9.489659
_cell_angle_alpha                 89.494945
_cell_angle_beta                  88.643823
_cell_angle_gamma                 90.007286
_cell_volume                      2792.60669556

loop_
_atom_site_label
_atom_site_type_symbol
_atom_site_description
_atom_site_fract_x
_atom_site_fract_y
_atom_site_fract_z
_atom_type_partial_charge
O1    O     O_R   0.500020 0.316850 0.620870 -0.556274
O2    O     O_R   0.499980 0.683150 0.379130 -0.553566
O3    O     O_R   0.500000 0.316860 0.379090 -0.580661
O4    O     O_R   0.500000 0.683140 0.620910 -0.590056
C1    C     C_R   0.499671 0.259631 0.500580 0.805359
C2    C     C_R   0.500037 0.740369 0.499500 0.806497
O5    O     O_R   0.430270 0.500020 0.620880 -0.562196
O6    O     O_R   0.569730 0.499980 0.379120 -0.542298
O7    O     O_R   0.430250 0.500030 0.379090 -0.537546
O8    O     O_R   0.569750 0.499970 0.620910 -0.555701
C3    C     C_R   0.407671 0.499439 0.501506 0.835796
C4    C     C_R   0.592179 0.503336 0.499016 0.837568
Cu1   Cu    Cu3+1 0.500010 0.499990 0.643150 1.000533
Cu2   Cu    Cu3+1 0.499990 0.500010 0.356850 1.020639
C5    C     C_R   0.176588 0.412674 0.551713 0.569833
C6    C     C_R   0.821908 0.620640 0.547690 0.569098
O9    O     O_2   0.201274 0.310469 0.593954 -0.483360
O10   O     O_2   0.796281 0.713182 0.610113 -0.487988
N1    N     N_R   0.201575 0.519735 0.516830 -0.465449
N2    N     N_R   0.798141 0.517095 0.500022 -0.461922
C7    C     C_R   0.178953 0.627431 0.474217 0.515185
C8    C     C_R   0.822500 0.417509 0.441816 0.520074
C9    C     C_R   0.280500 0.584975 0.614262 0.200816
C10   C     C_R   0.720214 0.419202 0.581519 0.199916
C11   C     C_R   0.331047 0.580042 0.604684 -0.227746
C12   C     C_R   0.669914 0.414143 0.570431 -0.234980
C13   C     C_R   0.327417 0.429100 0.414505 0.143374
C14   C     C_R   0.670262 0.611804 0.440689 0.135370
C15   C     C_R   0.277361 0.438816 0.418121 -0.142810
C16   C     C_R   0.720501 0.610590 0.437845 -0.127362
C17   C     C_R   0.253493 0.515920 0.516473 0.282492
C18   C     C_R   0.746071 0.514687 0.506373 0.273659
C19   C     C_R   0.101718 0.521502 0.504149 -0.111106
C20   C     C_R   0.898247 0.520419 0.490424 -0.109173
C21   C     C_R   0.126060 0.408832 0.541629 -0.067085
C22   C     C_R   0.872463 0.629520 0.533145 -0.063547
C23   C     C_R   0.098731 0.297334 0.567269 0.211231
C24   C     C_R   0.898459 0.741442 0.561915 0.211951
C25   C     C_R   0.127920 0.633760 0.472244 -0.032990
C26   C     C_R   0.873376 0.410589 0.447936 -0.036973
C27   C     C_R   0.354735 0.502665 0.505828 -0.100813
C28   C     C_R   0.644866 0.508573 0.498840 -0.097147
H1    H     H_    0.256507 0.383281 0.346222 0.175936
H2    H     H_    0.739905 0.687469 0.386593 0.186474
C29   C     C_R   0.974965 0.407469 0.478504 0.031667
C30   C     C_R   0.025421 0.636058 0.488392 0.031974
C31   C     C_R   0.974518 0.635468 0.506121 0.022566
C32   C     C_R   0.025034 0.406874 0.504148 0.023060
C33   C     C_R   0.949239 0.521187 0.491152 0.074217
C34   C     C_R   0.050751 0.521539 0.498655 0.074499
C35   C     C_R   0.950333 0.298786 0.437979 -0.221323
C36   C     C_R   0.051339 0.746488 0.456626 -0.221901
C37   C     C_R   0.900558 0.299664 0.415182 0.154662
C38   C     C_R   0.101740 0.746174 0.439838 0.156003
O11   O     O_2   0.796914 0.326023 0.380660 -0.547652
O12   O     O_2   0.206393 0.727146 0.435854 -0.546111
C39   C     C_R   0.049544 0.296309 0.540979 -0.245611
C40   C     C_R   0.948434 0.744307 0.542118 -0.243778
H3    H     H_    0.649985 0.337931 0.621352 0.178108
H4    H     H_    0.352104 0.636336 0.675506 0.174035
H5    H     H_    0.970366 0.213733 0.414682 0.141965
H6    H     H_    0.032086 0.832605 0.433851 0.140786
H7    H     H_    0.030059 0.209317 0.559836 0.161953
H8    H     H_    0.966857 0.831372 0.564383 0.162554
C41   C     C_3   0.541410 0.043257 0.443433 -0.144567
C42   C     C_3   0.458037 0.956690 0.557067 -0.164334
C43   C     C_3   0.504588 0.960827 0.366357 -0.100889
C44   C     C_3   0.494856 0.039163 0.634133 -0.117382
H9    H     H_    0.508698 0.926305 0.256621 0.178665
H10   H     H_    0.490690 0.073575 0.743883 0.178548
H11   H     H_    0.575528 0.081836 0.397154 0.168677
H12   H     H_    0.423921 0.918075 0.603332 0.155329
C45   C     C_3   0.500001 0.877478 0.498751 0.000842
C46   C     C_3   0.499459 0.122515 0.501661 -0.010271
C47   C     C_3   0.536833 0.957661 0.575816 -0.138501
C48   C     C_3   0.462614 0.042300 0.424735 -0.147997
H13   H     H_    0.567163 0.920072 0.637858 0.172158
H14   H     H_    0.432260 0.079101 0.362553 0.182262
C49   C     C_3   0.542299 0.525073 0.045298 0.239929
C50   C     C_3   0.457636 0.474414 0.953883 0.236178
C51   C     C_3   0.512723 0.608627 0.946657 -0.168505
C52   C     C_3   0.487204 0.391512 0.053135 -0.143871
H15   H     H_    0.523671 0.700457 0.899015 0.170471
H16   H     H_    0.476368 0.299633 0.100931 0.180811
N3    N     N_3   0.500040 0.499970 0.858290 -0.210132
N4    N     N_3   0.499960 0.500030 0.141710 -0.209437
C53   C     C_3   0.529250 0.416772 0.948547 0.217578
C54   C     C_3   0.470346 0.582798 0.051348 0.217280
I1    I     I_    0.358092 0.290235 0.280549 -0.316111
I2    I     I_    0.635784 0.781425 0.379059 -0.338786
I3    I     I_    0.616417 0.559512 0.086247 -0.268998
I4    I     I_    0.387781 0.407940 0.899005 -0.293640
I5    I     I_    0.575184 0.269005 0.872232 -0.370483
I6    I     I_    0.421062 0.722666 0.128124 -0.325403
I7    I     I_    0.124868 0.123786 0.651350 -0.340709
I8    I     I_    0.868312 0.915970 0.631118 -0.346436
C55   C     C_3   0.744453 0.324860 0.677629 -0.382687
C56   C     C_3   0.729665 0.345941 0.831751 -0.744625
H17   H     H_    0.739018 0.443274 0.863494 0.270350
H18   H     H_    0.690357 0.330879 0.848678 0.276896
H19   H     H_    0.749148 0.278375 0.899921 0.254439
H20   H     H_    0.734440 0.227786 0.646531 0.233361
H21   H     H_    0.784267 0.331409 0.671075 0.216198
C57   C     C_3   0.256817 0.663385 0.729324 -0.383363
C58   C     C_3   0.267458 0.611060 0.875765 -0.751641
H22   H     H_    0.256850 0.510258 0.883687 0.276449
H23   H     H_    0.306348 0.620663 0.898421 0.274389
H24   H     H_    0.246590 0.664685 0.956552 0.247335
H25   H     H_    0.270165 0.761921 0.720451 0.226913
H26   H     H_    0.217098 0.666699 0.720221 0.220244
C59   C     C_3   0.879190 0.178725 0.359195 -0.330489
C60   C     C_3   0.871640 0.187851 0.200404 -0.714130
H27   H     H_    0.849017 0.270130 0.172615 0.278657
H28   H     H_    0.907042 0.197318 0.144030 0.232973
H29   H     H_    0.853721 0.100883 0.163900 0.251003
H30   H     H_    0.903957 0.098050 0.376928 0.193088
H31   H     H_    0.845674 0.151602 0.417596 0.259703
C61   C     C_3   0.124587 0.867515 0.384206 -0.323382
C62   C     C_3   0.139667 0.856108 0.228831 -0.719599
H32   H     H_    0.164585 0.775819 0.210985 0.273301
H33   H     H_    0.107282 0.841943 0.164095 0.234175
H34   H     H_    0.157992 0.944127 0.193007 0.253965
H35   H     H_    0.098531 0.946948 0.391225 0.191243
H36   H     H_    0.154901 0.897909 0.449681 0.268228

loop_
_geom_bond_atom_site_label_1
_geom_bond_atom_site_label_2
_geom_bond_distance
_ccdc_geom_bond_type
C42   C44   1.546030 S    
C13   C15   1.391611 A    
C59   C60   1.528481 S    
C35   H5    1.081890 S    
N1    C17   1.440249 S    
C60   H28   1.110993 S    
C55   C56   1.527989 S    
C32   C39   1.402086 A    
C31   C33   1.410950 A    
C44   C47   1.545325 S    
C5    N1    1.365142 A    
C58   H23   1.109542 S    
C19   C25   1.422192 A    
C46   C48   1.532323 S    
O1    C1    1.297995 A    
N1    C7    1.366773 A    
C10   C12   1.402404 A    
C57   H25   1.111318 S    
C49   N4    1.493670 S    
N4    C54   1.483882 S    
C29   C32   1.415325 A    
C25   C38   1.431759 A    
C29   C35   1.401969 A    
C44   C46   1.533703 S    
C52   C53   1.535232 S    
C30   C36   1.401744 A    
C1    C46   1.455462 S    
C50   C54   1.528878 S    
C23   I7    2.134872 S    
C5    C21   1.407354 A    
O4    Cu1   1.953733 S    
C61   C62   1.528898 S    
C57   C58   1.527303 S    
C4    C28   1.462114 S    
C24   C40   1.394420 A    
C42   H12   1.110373 S    
C41   C43   1.545871 S    
C13   I1    2.120053 S    
C59   H30   1.111984 S    
C43   C45   1.533056 S    
C11   H4    1.084124 S    
C16   C18   1.404435 A    
C12   H3    1.083414 S    
C49   I3    2.132966 S    
C55   H20   1.111384 S    
O6    C4    1.310564 A    
C37   C59   1.519282 S    
N3    C53   1.479671 S    
C42   C48   1.546371 S    
Cu1   Cu2   2.716900 S    
C15   H1    1.083131 S    
C45   C47   1.532539 S    
C16   H2    1.082850 S    
O2    C2    1.298471 A    
C49   C53   1.526364 S    
C60   H27   1.108989 S    
C51   H15   1.110161 S    
C36   C38   1.403010 A    
C39   H7    1.081257 S    
C62   H33   1.110991 S    
C40   H8    1.080865 S    
C58   H24   1.110604 S    
C54   I6    2.139065 S    
C10   C55   1.516458 S    
Cu2   N4    2.041624 S    
O4    C2    1.297721 A    
C11   C27   1.403841 A    
C49   C51   1.535400 S    
C19   C34   1.415580 A    
C41   H11   1.110332 S    
C42   C45   1.531501 S    
C41   C46   1.531193 S    
C43   H9    1.110322 S    
C9    C17   1.415668 A    
C50   I4    2.139081 S    
O5    C3    1.307588 A    
O7    Cu2   1.940501 S    
C10   C18   1.418771 A    
C50   N3    1.491439 S    
O7    C3    1.306545 A    
C13   C27   1.406272 A    
C9    C57   1.516105 S    
C7    C25   1.417360 A    
C29   C33   1.406863 A    
C6    N2    1.367407 A    
C8    C26   1.415336 A    
C6    O10   1.345913 S    
C61   H36   1.106796 S    
C47   H13   1.110254 S    
C55   H21   1.106525 S    
O3    Cu2   1.953732 S    
O8    C4    1.300533 A    
C50   C52   1.534934 S    
N2    C8    1.368099 A    
C26   C37   1.430693 A    
C56   H18   1.109418 S    
C38   C61   1.520263 S    
C20   C26   1.420813 A    
O1    Cu1   1.957370 S    
C24   I8    2.135025 S    
C12   C28   1.399760 A    
C2    C45   1.455380 S    
N2    C18   1.444030 S    
C62   H34   1.110352 S    
C5    O9    1.346059 S    
C30   C31   1.417652 A    
C20   C33   1.414285 A    
O6    Cu2   1.950469 S    
C14   C28   1.404295 A    
C21   C23   1.421391 A    
C48   H14   1.108552 S    
O3    C1    1.298256 A    
O8    Cu1   1.940501 S    
C7    O12   1.346068 S    
C14   I2    2.122867 S    
C62   H32   1.108924 S    
C8    O11   1.346328 S    
C56   H19   1.110523 S    
C58   H22   1.111128 S    
C30   C34   1.407852 A    
C52   H16   1.110370 S    
C41   C47   1.546675 S    
C59   H31   1.107543 S    
C22   C24   1.421460 A    
C14   C16   1.392881 A    
C15   C17   1.401232 A    
C52   N4    1.479740 S    
C6    C22   1.408570 A    
C31   C40   1.403645 A    
C57   H26   1.107412 S    
C53   I5    2.141105 S    
C32   C34   1.410596 A    
C19   C21   1.420096 A    
C3    C27   1.468003 S    
C20   C22   1.418311 A    
C61   H35   1.111927 S    
C9    C11   1.403569 A    
O2    Cu2   1.957369 S    
C51   N3    1.479244 S    
C51   C54   1.543710 S    
O5    Cu1   1.950469 S    
C44   H10   1.110191 S    
C56   H17   1.111140 S    
Cu1   N3    2.041624 S    
C36   H6    1.081441 S    
C43   C48   1.545301 S    
C35   C37   1.402249 A    
C60   H29   1.110335 S    
C23   C39   1.392507 A    
