data_mof_unit_40658.cif
_audit_creation_date              2012-12-11T16:35:14-0500
_audit_creation_method            fapswitch 2.2
_symmetry_space_group_name_H-M    P1
_symmetry_Int_Tables_number       1
_space_group_crystal_system       triclinic
_cell_length_a                    6.9341
_cell_length_b                    17.622453
_cell_length_c                    19.592436
_cell_angle_alpha                 108.815025
_cell_angle_beta                  90.776611
_cell_angle_gamma                 90.79218
_cell_volume                      2265.55720881

loop_
_atom_site_label
_atom_site_type_symbol
_atom_type_description
_atom_site_fract_x
_atom_site_fract_y
_atom_site_fract_z
_atom_type_partial_charge
O1    O     O_R   0.505700 0.440210 0.561730 -0.523608
O2    O     O_R   0.169350 0.406300 0.412660 -0.544089
O3    O     O_R   0.005650 0.559790 0.438270 -0.546626
C1    C     C_R   0.337659 0.382828 0.385309 0.665839
O4    O     O_R   0.175560 0.430650 0.559600 -0.522005
O5    O     O_R   0.011900 0.584320 0.586250 -0.520353
C2    C     C_R   0.345176 0.413461 0.579497 0.740812
O6    O     O_R   0.499450 0.415680 0.413750 -0.542546
O7    O     O_3   0.341370 0.550390 0.508570 -0.374564
V1    V     V_3+5 0.063940 0.490650 0.498410 1.486949
O8    O     O_R   0.682570 0.593700 0.587340 -0.531581
C3    C     C_R   0.853821 0.615913 0.615304 0.810393
O9    O     O_R   0.676370 0.569350 0.440400 -0.549700
C4    C     C_R   0.844958 0.583734 0.418391 0.686151
V2    V     V_3+5 0.564750 0.509350 0.501590 1.474766
O10   O     O_3   0.837190 0.449610 0.491430 -0.357996
C5    C     C_R   0.024237 0.662177 0.270927 0.405664
C6    C     C_R   0.010604 0.619196 0.319742 -0.190525
C7    C     C_R   0.856604 0.630592 0.367694 -0.115874
C8    C     C_R   0.714789 0.685946 0.365874 -0.153065
H1    H     H_    0.594077 0.695803 0.402022 0.132531
C9    C     C_R   0.729854 0.730702 0.318590 -0.165891
C10   C     C_R   0.884996 0.720238 0.270844 0.007418
C11   C     C_R   0.731833 0.782490 0.184773 -0.125520
C12   C     C_R   0.741458 0.830186 0.139875 -0.038674
H2    H     H_    0.610822 0.838483 0.112455 0.189519
C13   C     C_R   0.917416 0.865605 0.129720 -0.037413
C14   C     C_R   0.082575 0.852936 0.166699 -0.165373
H3    H     H_    0.220085 0.879141 0.160374 0.179216
C15   C     C_R   0.071796 0.807278 0.213330 -0.074164
H4    H     H_    0.200375 0.801745 0.243191 0.138515
C16   C     C_R   0.897163 0.769953 0.221843 0.115220
H5    H     H_    0.787943 0.625742 0.934458 0.206524
C17   C     C_R   0.904963 0.907376 0.742685 0.309692
C18   C     C_R   0.930715 0.917784 0.675684 -0.127333
C19   C     C_R   0.940704 0.852553 0.613619 -0.180236
C20   C     C_R   0.920011 0.775668 0.617151 -0.146925
C21   C     C_R   0.896878 0.761702 0.683929 0.024206
C22   C     C_R   0.899015 0.828370 0.749205 0.006463
C23   C     C_R   0.872697 0.682120 0.685110 -0.138627
C24   C     C_R   0.864317 0.666734 0.752141 -0.035347
C25   C     C_R   0.856125 0.733224 0.817797 -0.045843
C26   C     C_R   0.890218 0.813546 0.816870 -0.142358
C27   C     C_R   0.861972 0.587005 0.757013 0.339949
C28   C     C_R   0.848166 0.574761 0.823348 -0.137830
C29   C     C_R   0.817966 0.638045 0.884861 -0.138788
C30   C     C_R   0.810412 0.715707 0.882230 0.317814
H6    H     H_    0.937518 0.977489 0.671260 0.143833
H7    H     H_    0.958899 0.861656 0.561987 0.130060
H8    H     H_    0.923816 0.727249 0.566447 0.092433
H9    H     H_    0.848991 0.514619 0.826852 0.218169
C31   C     C_R   0.259333 0.217820 0.374390 -0.155226
C32   C     C_R   0.245946 0.139675 0.375503 -0.183444
C33   C     C_R   0.307256 0.077107 0.317191 -0.114537
C34   C     C_R   0.376283 0.091112 0.255588 0.328020
C35   C     C_R   0.375280 0.170188 0.249780 0.002057
C36   C     C_R   0.325990 0.234935 0.312970 0.035921
C37   C     C_R   0.419586 0.186760 0.184414 -0.146713
C38   C     C_R   0.427217 0.268968 0.185944 -0.063488
C39   C     C_R   0.415325 0.332012 0.253308 0.044222
C40   C     C_R   0.351965 0.315586 0.315549 -0.112431
C41   C     C_R   0.442843 0.292281 0.122835 0.258115
C42   C     C_R   0.495657 0.371331 0.128268 0.462218
C43   C     C_R   0.508855 0.430028 0.195225 -0.185990
C44   C     C_R   0.459488 0.411812 0.256495 -0.235457
H10   H     H_    0.217209 0.264693 0.422567 0.107730
H11   H     H_    0.305864 0.017018 0.320775 0.144509
H12   H     H_    0.455993 0.461562 0.306207 0.147668
C45   C     C_R   0.554018 0.288183 0.688033 -0.081330
C46   C     C_R   0.538842 0.334433 0.642038 -0.127077
C47   C     C_R   0.358299 0.360574 0.625567 -0.065002
C48   C     C_R   0.192526 0.335346 0.653559 -0.136375
C49   C     C_R   0.207935 0.290243 0.700654 -0.111945
H13   H     H_    0.077771 0.273713 0.722826 0.144273
C50   C     C_R   0.389360 0.267525 0.719689 0.124008
C51   C     C_R   0.284525 0.152306 0.759786 -0.180668
C52   C     C_R   0.293537 0.107086 0.806751 -0.116308
C53   C     C_R   0.422000 0.128434 0.865876 -0.068824
C54   C     C_R   0.546530 0.194886 0.875992 -0.053882
C55   C     C_R   0.537181 0.241355 0.829762 0.421526
C56   C     C_R   0.405129 0.220168 0.770492 -0.016719
O11   O     O_R   0.273230 0.084330 0.086440 -0.526072
O12   O     O_R   0.596660 0.069390 0.940470 -0.521381
O13   O     O_R   0.760270 0.915710 0.913690 -0.497743
C57   C     C_R   0.428574 0.080695 0.916029 0.808718
O14   O     O_R   0.603330 0.093680 0.087390 -0.530082
O15   O     O_R   0.766990 0.940160 0.061660 -0.503870
C58   C     C_R   0.434666 0.118610 0.114514 0.864622
O16   O     O_R   0.266510 0.059870 0.938470 -0.517941
O17   O     O_3   0.431050 0.949630 0.991510 -0.349717
V3    V     V_3+5 0.708490 0.009340 0.001580 1.669469
O18   O     O_R   0.096270 0.930570 0.059390 -0.544608
C59   C     C_R   0.927902 0.915976 0.081536 0.770077
O19   O     O_R   0.089600 0.906290 0.912460 -0.548651
C60   C     C_R   0.916677 0.881274 0.886106 0.846473
V4    V     V_3+5 0.207670 0.990600 0.998190 1.626933
O20   O     O_3   0.935250 0.050360 0.008480 -0.356967
Cl1   Cl    Cl    0.210887 0.636499 0.207781 -0.641552
Cl2   Cl    Cl    0.855478 0.997317 0.811630 -0.730249
Cl3   Cl    Cl    0.878655 0.496932 0.685091 -0.697286
Cl4   Cl    Cl    0.690698 0.780371 0.955626 -0.686358
H14   H     H_    0.545224 0.491391 0.199475 0.204958
H15   H     H_    0.194375 0.127852 0.423075 0.129802
H16   H     H_    0.118724 0.575067 0.318852 0.152722
Cl5   Cl    Cl    0.484326 0.007396 0.194089 -0.756149
Cl6   Cl    Cl    0.343240 0.234033 0.039563 -0.635411
Cl7   Cl    Cl    0.533350 0.400233 0.051270 -0.440076
H17   H     H_    0.694943 0.268291 0.698663 0.130516
H18   H     H_    0.669171 0.349146 0.618915 0.162662
H19   H     H_    0.050570 0.350490 0.639359 0.173201
H20   H     H_    0.184352 0.133538 0.714279 0.127676
H21   H     H_    0.204369 0.053827 0.795646 0.171326
H22   H     H_    0.647577 0.212192 0.921284 0.192812
Cl8   Cl    Cl    0.684817 0.328384 0.851302 -0.554416
H23   H     H_    0.620524 0.774448 0.319963 0.132768
H24   H     H_    0.594743 0.754976 0.190193 0.159663

loop_
_geom_bond_atom_site_label_1
_geom_bond_atom_site_label_2
_ccdc_geom_bond_type
C21   C23   A    
C34   C35   A    
C23   C24   A    
C30   Cl4   S    
O15   V3    S    
C49   H13   S    
C7    C8    A    
C1    O6    A    
C52   C53   A    
C31   C32   A    
C43   H14   S    
C41   C42   A    
C34   Cl5   S    
C14   H3    S    
C6    C7    A    
O14   V3    S    
O5    C3    A    
C15   H4    S    
C55   C56   A    
O14   C58   A    
C28   H9    S    
V2    O10   S    
O18   V4    S    
C35   C36   A    
C17   C18   A    
C24   C25   A    
C29   C30   A    
O8    V2    S    
C18   C19   A    
C32   C33   A    
C26   C60   S    
C46   C47   A    
O1    V2    S    
O13   V3    S    
C5    Cl1   S    
O19   V4    S    
C38   C39   A    
O9    C4    A    
H5    C29   S    
C49   C50   A    
C45   C46   A    
C18   H6    S    
C45   H17   S    
C5    C6    A    
C48   H19   S    
O11   V4    S    
C17   C22   A    
C11   C12   A    
O4    C2    A    
C57   O16   A    
C53   C54   A    
C50   C56   S    
C22   C26   A    
C33   H11   S    
C12   H2    S    
C28   C29   A    
C1    C40   S    
V3    O20   S    
C54   C55   A    
C39   C40   A    
O13   C60   A    
C3    C23   S    
C52   H21   S    
O2    C1    A    
C11   C16   A    
C20   C21   A    
C46   H18   S    
C5    C10   A    
C44   H12   S    
V4    O20   S    
C17   Cl2   S    
C6    H16   S    
C51   C52   A    
O17   V4    S    
O3    C4    A    
C53   C57   S    
C9    H23   S    
O12   C57   A    
C8    C9    A    
C39   C44   A    
C11   H24   S    
O6    V2    S    
C2    C47   S    
C54   H22   S    
C24   C27   A    
C13   C59   S    
C25   C26   A    
C42   Cl7   S    
O2    V1    S    
C31   H10   S    
C27   C28   A    
O7    V1    S    
C33   C34   A    
C19   C20   A    
C38   C41   A    
O1    C2    A    
C4    C7    S    
C55   Cl8   S    
C48   C49   A    
C37   C58   S    
C51   C56   A    
O5    V1    S    
O8    C3    A    
C36   C40   A    
C41   Cl6   S    
C12   C13   A    
O12   V3    S    
C43   C44   A    
O16   V4    S    
O9    V2    S    
O7    V2    S    
C47   C48   A    
O3    V1    S    
V1    O10   S    
C10   C16   S    
C15   C16   A    
C20   H8    S    
C27   Cl3   S    
O17   V3    S    
C21   C22   A    
C32   H15   S    
C51   H20   S    
O11   C58   A    
O15   C59   A    
C14   C15   A    
O18   C59   A    
C35   C37   A    
C45   C50   A    
C25   C30   A    
O19   C60   A    
C37   C38   A    
C31   C36   A    
C42   C43   A    
O4    V1    S    
C8    H1    S    
C13   C14   A    
C9    C10   A    
C19   H7    S    
