data_mof_unit_23641.cif
_audit_creation_date              2012-12-10T16:44:39-0500
_audit_creation_method            fapswitch 2.2
_symmetry_space_group_name_H-M    P1
_symmetry_Int_Tables_number       1
_space_group_crystal_system       triclinic
_cell_length_a                    15.039974
_cell_length_b                    8.711238
_cell_length_c                    7.425641
_cell_angle_alpha                 102.31539
_cell_angle_beta                  94.415524
_cell_angle_gamma                 92.425341
_cell_volume                      945.9502831

loop_
_atom_site_label
_atom_site_type_symbol
_atom_type_description
_atom_site_fract_x
_atom_site_fract_y
_atom_site_fract_z
_atom_type_partial_charge
C1    C     C_R   0.495952 0.200273 0.455070 0.866532
C2    C     C_R   0.504048 0.799727 0.544930 0.866532
C3    C     C_R   0.032399 0.366269 0.175937 -0.180854
C4    C     C_R   0.967601 0.633735 0.824059 -0.180855
C5    C     C_2   0.480524 0.035207 0.436335 -0.080710
C6    C     C_2   0.519476 0.964793 0.563665 -0.080711
C7    C     C_R   0.328732 0.498747 0.501887 0.818914
C8    C     C_R   0.671267 0.501253 0.498112 0.818914
C9    C     C_R   0.821758 0.568798 0.658331 -0.137096
C10   C     C_R   0.178242 0.431206 0.341665 -0.137092
C11   C     C_R   0.767942 0.503521 0.495552 -0.078718
C12   C     C_R   0.232058 0.496479 0.504447 -0.078718
C13   C     C_R   0.806400 0.438457 0.332943 -0.185159
C14   C     C_R   0.193599 0.561540 0.667058 -0.185160
C15   C     C_R   0.899284 0.435212 0.332200 0.052766
C16   C     C_R   0.100716 0.564787 0.667799 0.052767
C17   C     C_R   0.953359 0.500976 0.498104 0.032367
C18   C     C_R   0.046641 0.499026 0.501894 0.032366
C19   C     C_R   0.914165 0.568391 0.660727 0.086754
C20   C     C_R   0.085835 0.431613 0.339270 0.086755
C21   C     C_R   0.939662 0.367114 0.171150 0.243363
C22   C     C_R   0.060337 0.632886 0.828849 0.243361
Cu1   Cu    Cu3+1 0.510010 0.517380 0.684380 1.016630
Cu2   Cu    Cu3+1 0.489990 0.482620 0.315620 1.016630
H1    H     H_    0.791659 0.620286 0.783718 0.166058
H2    H     H_    0.208341 0.379721 0.216276 0.166058
H3    H     H_    0.763287 0.388280 0.209062 0.207752
H4    H     H_    0.236713 0.611714 0.790942 0.207752
H5    H     H_    0.062827 0.314436 0.051210 0.183786
H6    H     H_    0.937173 0.685571 0.948785 0.183787
H7    H     H_    0.430523 0.377896 0.948294 0.236186
H8    H     H_    0.569477 0.622104 0.051706 0.236187
N1    N     N_2   0.474890 0.456420 0.038520 -0.194821
N2    N     N_2   0.525110 0.543580 0.961480 -0.194821
O1    O     O_R   0.506510 0.286130 0.619770 -0.575349
O2    O     O_R   0.493490 0.713870 0.380230 -0.575349
O3    O     O_R   0.489600 0.256770 0.308360 -0.559047
O4    O     O_R   0.510400 0.743230 0.691640 -0.559047
O5    O     O_R   0.378710 0.514640 0.655720 -0.596477
O6    O     O_R   0.621290 0.485360 0.344280 -0.596477
O7    O     O_R   0.361800 0.485290 0.344300 -0.570632
O8    O     O_R   0.638200 0.514710 0.655700 -0.570631
Br1   Br    Br    0.872543 0.271151 0.940930 -0.508163
Br2   Br    Br    0.127457 0.728846 0.059070 -0.508166
I1    I     I_    0.379083 0.928813 0.220493 -0.244081
I2    I     I_    0.620916 0.071187 0.779509 -0.244081

loop_
_geom_bond_atom_site_label_1
_geom_bond_atom_site_label_2
_ccdc_geom_bond_type
C15   C21   A    
Cu1   Cu2   S    
H7    N1    S    
C15   C17   A    
Cu1   O4    S    
C4    C22   A    
C2    O4    A    
Cu1   O1    S    
Cu2   N1    S    
C1    O3    A    
C8    O8    A    
Cu1   N2    S    
C14   H4    S    
C10   H2    S    
C13   C15   A    
Cu2   O3    S    
C9    H1    S    
C3    C20   A    
C2    C6    S    
Cu2   O7    S    
C9    C11   A    
Cu2   O2    S    
Cu1   O8    S    
C10   C12   A    
C8    C11   S    
Cu1   O5    S    
C4    H6    S    
C16   C18   A    
Cu2   O6    S    
C12   C14   A    
N1    N2    D    
C18   C20   A    
C7    O7    A    
C6    I2    S    
C5    C6    D    
C14   C16   A    
C7    C12   S    
C3    C21   A    
C11   C13   A    
C1    C5    S    
C1    O1    A    
C17   C18   A    
C2    O2    A    
C3    H5    S    
C7    O5    A    
C13   H3    S    
C16   C22   A    
C8    O6    A    
C17   C19   A    
C21   Br1   S    
C4    C19   A    
C5    I1    S    
C9    C19   A    
C22   Br2   S    
C10   C20   A    
H8    N2    S    
