data_mof_unit_34420.cif
_audit_creation_date              2012-12-11T14:49:43-0500
_audit_creation_method            fapswitch 2.2
_symmetry_space_group_name_H-M    P1
_symmetry_Int_Tables_number       1
_space_group_crystal_system       triclinic
_cell_length_a                    10.937652
_cell_length_b                    10.931118
_cell_length_c                    18.870839
_cell_angle_alpha                 90.147695
_cell_angle_beta                  89.896709
_cell_angle_gamma                 120.049153
_cell_volume                      1952.96152625

loop_
_atom_site_label
_atom_site_type_symbol
_atom_type_description
_atom_site_fract_x
_atom_site_fract_y
_atom_site_fract_z
_atom_type_partial_charge
C1    C     C_R   0.528727 0.468168 0.646665 0.547846
C2    C     C_R   0.462417 0.531405 0.355831 0.549030
C3    C     C_R   0.468924 0.931565 0.144314 0.551401
C4    C     C_R   0.068723 0.537526 0.355774 0.547354
C5    C     C_R   0.401204 0.030637 0.535344 -0.138670
C6    C     C_R   0.624426 0.608634 0.963194 -0.141115
C7    C     C_R   0.968378 0.370057 0.534894 -0.139026
C8    C     C_R   0.400200 0.029538 0.964899 -0.130279
C9    C     C_R   0.629830 0.598493 0.535101 -0.138641
C10   C     C_R   0.993661 0.382097 0.963877 -0.136096
C11   C     C_R   0.009700 0.388072 0.037207 -0.134266
C12   C     C_R   0.933622 0.469746 0.855249 0.548774
C13   C     C_R   0.616422 0.604644 0.462163 -0.150218
C14   C     C_R   0.394004 0.010188 0.037881 -0.136314
C15   C     C_R   0.987580 0.383459 0.461928 -0.149733
C16   C     C_R   0.613635 0.613857 0.036484 -0.149107
C17   C     C_R   0.395232 0.011376 0.462377 -0.150331
C18   C     C_R   0.478532 0.962708 0.430745 0.033994
C19   C     C_R   0.487136 0.518096 0.069991 0.037434
C20   C     C_R   0.036653 0.515687 0.430626 0.034434
C21   C     C_R   0.479609 0.964515 0.069543 0.036605
C22   C     C_R   0.484292 0.521414 0.430702 0.033814
C23   C     C_R   0.531759 0.060319 0.646718 0.547700
C24   C     C_R   0.001367 0.493542 0.075961 0.033250
C25   C     C_R   0.971570 0.482995 0.929565 0.037022
C26   C     C_R   0.510583 0.509938 0.576411 0.028049
C27   C     C_R   0.490527 0.001024 0.923732 0.030556
C28   C     C_R   0.999628 0.489420 0.576371 0.027630
C29   C     C_R   0.508287 0.508288 0.923707 0.032996
C30   C     C_R   0.489774 0.000012 0.576473 0.028166
C31   C     C_R   0.558855 0.923082 0.472761 -0.126705
C32   C     C_R   0.369999 0.423271 0.029504 -0.128365
C33   C     C_R   0.076615 0.635721 0.472958 -0.126744
C34   C     C_R   0.528215 0.468393 0.853197 0.547298
C35   C     C_R   0.562743 0.928177 0.027495 -0.123832
C36   C     C_R   0.364363 0.440916 0.472909 -0.126627
C37   C     C_R   0.967868 0.586176 0.041687 -0.130515
C38   C     C_R   0.958166 0.584197 0.969330 -0.125789
C39   C     C_R   0.377141 0.436705 0.545252 -0.136921
C40   C     C_R   0.566209 0.943890 0.955143 -0.132627
C41   C     C_R   0.060096 0.622970 0.545331 -0.136815
C42   C     C_R   0.379245 0.421287 0.957111 -0.136448
C43   C     C_R   0.562933 0.939824 0.545134 -0.137141
C44   C     C_R   0.939613 0.471308 0.646680 0.549120
C45   C     C_R   0.531862 0.060639 0.853364 0.548548
C46   C     C_R   0.463585 0.530480 0.144575 0.550253
C47   C     C_R   0.468627 0.931073 0.355833 0.548859
C48   C     C_R   0.060087 0.531846 0.146724 0.550862
Cr1   Cr    Cr6+3 0.776430 0.541680 0.750000 1.011440
Cr2   Cr    Cr6+3 0.765250 0.223570 0.750000 1.014501
Cr3   Cr    Cr6+3 0.458320 0.234750 0.750000 1.012512
Cr4   Cr    Cr6+3 0.541680 0.776430 0.250000 1.013785
Cr5   Cr    Cr6+3 0.223570 0.765250 0.250000 1.016152
Cr6   Cr    Cr6+3 0.234750 0.458320 0.250000 1.013270
H1    H     H_    0.618666 0.878338 0.449794 0.140808
H2    H     H_    0.086773 0.716548 0.576445 0.129782
H3    H     H_    0.287328 0.344374 0.927888 0.125674
H4    H     H_    0.630119 0.913581 0.575987 0.129522
H5    H     H_    0.343587 0.077368 0.558750 0.136995
H6    H     H_    0.724705 0.677966 0.938000 0.118118
H7    H     H_    0.921317 0.265565 0.558045 0.136646
H8    H     H_    0.340930 0.074229 0.941483 0.133582
H9    H     H_    0.734253 0.656070 0.558340 0.136751
H10   H     H_    0.999218 0.300065 0.934201 0.118363
H11   H     H_    0.033854 0.314443 0.063069 0.118695
H12   H     H_    0.269278 0.351028 0.053473 0.129723
H13   H     H_    0.708757 0.671268 0.430380 0.120759
H14   H     H_    0.325535 0.033669 0.069533 0.120757
H15   H     H_    0.961517 0.291050 0.430008 0.121094
H16   H     H_    0.703440 0.691041 0.066789 0.111841
H17   H     H_    0.328701 0.037143 0.430715 0.120929
H18   H     H_    0.121606 0.740412 0.450242 0.140546
H19   H     H_    0.624939 0.886313 0.050377 0.138302
H20   H     H_    0.259717 0.381117 0.450115 0.140718
H21   H     H_    0.958501 0.667339 0.070160 0.130204
H22   H     H_    0.936905 0.661121 0.944922 0.130116
H23   H     H_    0.283651 0.369460 0.576221 0.129577
H24   H     H_    0.634987 0.919367 0.924357 0.129347
O1    O     O_R   0.916700 0.566820 0.669930 -0.523593
O2    O     O_R   0.566820 0.916700 0.330070 -0.524415
O3    O     O_R   0.083300 0.650120 0.169930 -0.522715
O4    O     O_R   0.349880 0.433180 0.330070 -0.524278
O5    O     O_R   0.649840 0.534790 0.674920 -0.508391
O6    O     O_R   0.884950 0.350160 0.825080 -0.504452
O7    O     O_R   0.465210 0.115050 0.674920 -0.508104
O8    O     O_R   0.649840 0.534790 0.825080 -0.510163
O9    O     O_R   0.884950 0.350160 0.674920 -0.507821
O10   O     O_R   0.465210 0.115050 0.825080 -0.508095
O11   O     O_R   0.534790 0.649840 0.174920 -0.508328
O12   O     O_R   0.650120 0.083300 0.830070 -0.523074
O13   O     O_R   0.350160 0.884950 0.325080 -0.509109
O14   O     O_R   0.115050 0.465210 0.174920 -0.508360
O15   O     O_R   0.534790 0.649840 0.325080 -0.509185
O16   O     O_R   0.350160 0.884950 0.174920 -0.501857
O17   O     O_R   0.115050 0.465210 0.325080 -0.509704
O18   O     O_3   0.666667 0.333333 0.750000 -0.242423
O19   O     O_3   0.333333 0.666667 0.250000 -0.252236
O20   O     O_R   0.433180 0.349880 0.669930 -0.524909
O21   O     O_R   0.916700 0.566820 0.830070 -0.528861
O22   O     O_R   0.650120 0.083300 0.669930 -0.525317
O23   O     O_R   0.433180 0.349880 0.830070 -0.526940
O24   O     O_R   0.566820 0.916700 0.169930 -0.525032
O25   O     O_R   0.083300 0.650120 0.330070 -0.525964
O26   O     O_R   0.349880 0.433180 0.169930 -0.525854

loop_
_geom_bond_atom_site_label_1
_geom_bond_atom_site_label_2
_ccdc_geom_bond_type
C29   C42   A    
Cr4   O19   S    
C18   C47   S    
Cr3   O7    S    
C19   C46   S    
Cr2   O6    S    
C46   O11   A    
C38   H22   S    
Cr4   O24   S    
C31   C43   A    
C39   H23   S    
C14   C21   A    
Cr6   O26   S    
C26   C39   A    
C5    C17   A    
C4    O25   A    
C11   C24   A    
C48   O3    A    
C12   O6    A    
Cr5   O3    S    
C34   O8    A    
C9    C13   A    
C7    H7    S    
C12   O21   A    
C33   H18   S    
Cr2   O12   S    
Cr5   O13   S    
Cr6   O19   S    
C44   O9    A    
C43   H4    S    
Cr3   O18   S    
C27   C45   S    
Cr3   O20   S    
C7    C15   A    
C23   O22   A    
C37   H21   S    
Cr4   O11   S    
C47   O2    A    
C19   C32   A    
C42   H3    S    
C9    C26   A    
C24   C37   A    
C36   C39   A    
C32   C42   A    
C15   C20   A    
C15   H15   S    
C34   O23   A    
C5    H5    S    
C24   C48   S    
C23   C30   S    
C6    H6    S    
C45   O10   A    
C16   H16   S    
Cr5   O19   S    
C46   O26   A    
C29   C34   S    
C28   C44   S    
C7    C28   A    
Cr1   O1    S    
C1    O20   A    
C41   H2    S    
Cr6   O14   S    
C37   C38   A    
C25   C38   A    
Cr1   O21   S    
C4    O17   A    
C27   C40   A    
C17   C18   A    
Cr4   O15   S    
C45   O12   A    
Cr6   O17   S    
C36   H20   S    
Cr2   O9    S    
C20   C33   A    
C3    O24   A    
C17   H17   S    
C48   O14   A    
C1    C26   S    
C40   H24   S    
C30   C43   A    
C2    O4    A    
Cr3   O23   S    
Cr6   O4    S    
C10   C25   A    
C32   H12   S    
C5    C30   A    
C13   H13   S    
C35   H19   S    
C8    C14   A    
Cr5   O16   S    
C9    H9    S    
C47   O13   A    
Cr1   O8    S    
C44   O1    A    
C10   H10   S    
Cr3   O10   S    
C21   C35   A    
C1    O5    A    
C22   C36   A    
Cr2   O22   S    
C12   C25   S    
C33   C41   A    
Cr1   O5    S    
C2    O15   A    
C35   C40   A    
C2    C22   S    
Cr2   O18   S    
Cr5   O25   S    
C16   C19   A    
C13   C22   A    
C3    O16   A    
Cr1   O18   S    
C3    C21   S    
C10   C11   A    
C6    C16   A    
C4    C20   S    
C6    C29   A    
C23   O7    A    
C8    C27   A    
C14   H14   S    
C18   C31   A    
C31   H1    S    
Cr4   O2    S    
C28   C41   A    
C11   H11   S    
C8    H8    S    
