data_mof_unit_34037.cif
_audit_creation_date              2012-12-11T14:23:04-0500
_audit_creation_method            fapswitch 2.2
_symmetry_space_group_name_H-M    P1
_symmetry_Int_Tables_number       1
_space_group_crystal_system       triclinic
_cell_length_a                    10.896991
_cell_length_b                    10.968637
_cell_length_c                    18.814768
_cell_angle_alpha                 89.931735
_cell_angle_beta                  89.664298
_cell_angle_gamma                 60.556624
_cell_volume                      1958.34489296

loop_
_atom_site_label
_atom_site_type_symbol
_atom_type_description
_atom_site_fract_x
_atom_site_fract_y
_atom_site_fract_z
_atom_type_partial_charge
C1    C     C_R   0.237671 0.643923 0.610403 0.531170
C2    C     C_3   0.724378 0.516044 0.800297 -0.243932
C3    C     C_3   0.694777 0.666479 0.815218 0.053832
C4    C     C_3   0.665443 0.639288 0.679644 0.048903
C5    C     C_3   0.784018 0.675079 0.690293 -0.249965
C6    C     C_3   0.702260 0.501573 0.720806 -0.214924
C7    C     C_R   0.721578 0.085925 0.811960 -0.009794
C8    C     C_R   0.820972 0.111448 0.774314 0.027103
C9    C     C_R   0.810703 0.123960 0.698886 0.024225
C10   C     C_R   0.601091 0.100880 0.701485 -0.163404
C11   C     C_R   0.616953 0.076513 0.773183 -0.159564
C12   C     C_R   0.650164 0.616486 0.603527 0.544041
C13   C     C_R   0.927842 0.128255 0.807517 -0.125823
C14   C     C_R   0.028130 0.141858 0.767066 -0.176811
C15   C     C_R   0.027034 0.136495 0.693553 -0.148666
C16   C     C_R   0.920776 0.125161 0.659573 -0.093729
C17   C     C_R   0.689238 0.137185 0.664896 -0.009113
C18   C     C_R   0.185969 0.669543 0.835533 -0.008888
C19   C     C_R   0.217053 0.542749 0.802343 -0.025704
C20   C     C_R   0.211192 0.536289 0.727208 0.007196
C21   C     C_R   0.178832 0.772740 0.721796 -0.163944
C22   C     C_R   0.177399 0.779352 0.794686 -0.157066
C23   C     C_R   0.632769 0.220247 0.599888 0.536645
C24   C     C_R   0.253756 0.422827 0.843452 -0.068753
C25   C     C_R   0.266271 0.301055 0.813293 0.267658
C26   C     C_R   0.250670 0.297036 0.739970 -0.117518
C27   C     C_R   0.221138 0.413015 0.697474 -0.139945
C28   C     C_R   0.196394 0.653302 0.686140 -0.000704
C29   C     C_R   0.668887 0.652134 0.169499 -0.000439
C30   C     C_R   0.786028 0.553002 0.211004 0.039553
C31   C     C_R   0.787146 0.577825 0.283868 0.021030
C32   C     C_R   0.533175 0.727944 0.277362 -0.139286
C33   C     C_R   0.541241 0.735978 0.203689 -0.150587
C34   C     C_R   0.219164 0.649608 0.402766 0.536914
C35   C     C_R   0.902833 0.431023 0.182713 -0.092748
C36   C     C_R   0.026183 0.357115 0.221248 -0.157259
C37   C     C_R   0.032685 0.394449 0.290817 -0.128483
C38   C     C_R   0.915949 0.507803 0.321284 -0.078462
C39   C     C_R   0.656548 0.656889 0.318454 -0.008743
C40   C     C_R   0.628830 0.167417 0.174710 0.007348
C41   C     C_R   0.548114 0.126717 0.219527 0.038366
C42   C     C_R   0.573910 0.117272 0.292722 0.022619
C43   C     C_R   0.681673 0.264280 0.275611 -0.139651
C44   C     C_R   0.686326 0.244601 0.202916 -0.172865
C45   C     C_R   0.642595 0.623419 0.392305 0.530836
C46   C     C_R   0.439657 0.100323 0.195616 -0.092207
C47   C     C_R   0.367808 0.059017 0.242755 -0.151447
C48   C     C_R   0.407884 0.033511 0.313320 -0.121334
C49   C     C_R   0.517745 0.051990 0.336958 -0.083756
C50   C     C_R   0.639259 0.189556 0.320881 0.015339
C51   C     C_R   0.064391 0.725330 0.195120 0.009946
C52   C     C_R   0.034107 0.839891 0.241894 0.021576
C53   C     C_R   0.054827 0.813907 0.315346 0.023448
C54   C     C_R   0.182087 0.564419 0.290416 -0.154566
C55   C     C_R   0.138507 0.588588 0.220657 -0.134917
C56   C     C_R   0.616257 0.231189 0.394507 0.531336
C57   C     C_R   0.996725 0.976723 0.219037 -0.107724
C58   C     C_R   0.984163 0.077944 0.267336 -0.148767
C59   C     C_R   0.983035 0.056337 0.339626 -0.112341
C60   C     C_R   0.008844 0.926898 0.363629 -0.091341
C61   C     C_R   0.139442 0.675950 0.338010 -0.006268
C62   C     C_R   0.726196 0.049992 0.888271 0.554236
C63   C     C_R   0.719741 0.684737 0.890297 0.538126
C64   C     C_R   0.120664 0.705776 0.906411 0.540692
C65   C     C_R   0.671531 0.108163 0.103761 0.547513
C66   C     C_R   0.696345 0.686022 0.097092 0.540402
C67   C     C_3   0.540777 0.768317 0.792501 -0.241939
C68   C     C_R   0.030415 0.745653 0.119511 0.564893
C69   C     C_3   0.526600 0.759248 0.711762 -0.232601
C70   C     C_3   0.799743 0.693451 0.770041 -0.214995
Cr1   Cr    Cr6+3 0.392940 0.397950 0.502230 0.993696
Cr2   Cr    Cr6+3 0.398400 0.708500 0.501260 0.991806
Cr3   Cr    Cr6+3 0.708640 0.393530 0.496460 0.984600
Cr4   Cr    Cr6+3 0.937880 0.938320 0.007620 0.976446
Cr5   Cr    Cr6+3 0.625560 0.937220 0.994510 0.993331
Cr6   Cr    Cr6+3 0.938080 0.625010 0.001190 0.966629
H1    H     H_    0.506908 0.877693 0.807296 0.153512
H2    H     H_    0.800429 0.412728 0.699106 0.164921
H3    H     H_    0.910287 0.619354 0.785728 0.144623
H4    H     H_    0.885292 0.589877 0.668579 0.127945
H5    H     H_    0.512911 0.100309 0.675586 0.134646
H6    H     H_    0.936929 0.133334 0.864059 0.146848
H7    H     H_    0.542869 0.052947 0.798806 0.187389
H8    H     H_    0.110595 0.151167 0.792752 0.149537
H9    H     H_    0.109298 0.139561 0.662535 0.102509
H10   H     H_    0.927698 0.114342 0.602381 0.129754
H11   H     H_    0.172785 0.860736 0.693156 0.155964
H12   H     H_    0.467826 0.740251 0.820477 0.121839
H13   H     H_    0.274956 0.423583 0.899229 0.125049
H14   H     H_    0.163182 0.874399 0.819237 0.153258
H15   H     H_    0.262377 0.202831 0.715513 0.100057
H16   H     H_    0.201663 0.404359 0.642178 0.147742
H17   H     H_    0.898975 0.388464 0.131499 0.130488
H18   H     H_    0.448168 0.803751 0.173348 0.129327
H19   H     H_    0.114575 0.267349 0.197678 0.102930
H20   H     H_    0.127771 0.334928 0.321350 0.121955
H21   H     H_    0.438041 0.739344 0.701075 0.149843
H22   H     H_    0.925133 0.536340 0.375267 0.129177
H23   H     H_    0.718506 0.332437 0.296663 0.153767
H24   H     H_    0.399920 0.120256 0.142384 0.144121
H25   H     H_    0.737400 0.286384 0.169027 0.110644
H26   H     H_    0.283819 0.041843 0.223991 0.107141
H27   H     H_    0.354665 0.998156 0.349719 0.120257
H28   H     H_    0.550075 0.025755 0.391713 0.124643
H29   H     H_    0.255017 0.457924 0.306257 0.147765
H30   H     H_    0.982668 0.009925 0.164858 0.170628
H31   H     H_    0.172880 0.499515 0.185443 0.146436
H32   H     H_    0.500992 0.860983 0.686712 0.116839
H33   H     H_    0.961411 0.139929 0.376745 0.132449
H34   H     H_    0.005880 0.912219 0.420425 0.118980
H35   H     H_    0.782458 0.800265 0.780170 0.120830
H36   H     H_    0.759362 0.773125 0.661465 0.115502
H37   H     H_    0.834638 0.438592 0.814752 0.142524
H38   H     H_    0.653099 0.492040 0.832686 0.118848
H39   H     H_    0.616408 0.475259 0.714236 0.130157
O1    O     O_R   0.507340 0.255690 0.581430 -0.524205
O2    O     O_R   0.524510 0.695820 0.424050 -0.505406
O3    O     O_R   0.736370 0.504260 0.414810 -0.530300
O4    O     O_R   0.691220 0.277270 0.422180 -0.517358
O5    O     O_3   0.499990 0.499990 0.499980 -0.236690
O6    O     O_R   0.089570 0.825450 0.930590 -0.528779
O7    O     O_R   0.818700 0.054260 0.929860 -0.518153
O8    O     O_R   0.606310 0.077010 0.915520 -0.499117
O9    O     O_R   0.646730 0.806540 0.917560 -0.515178
O10   O     O_R   0.837290 0.593240 0.915240 -0.540983
O11   O     O_R   0.065320 0.635310 0.931580 -0.511175
O12   O     O_R   0.280360 0.527380 0.578910 -0.512303
O13   O     O_R   0.068470 0.828620 0.091850 -0.538975
O14   O     O_R   0.799150 0.057200 0.079350 -0.527692
O15   O     O_R   0.585220 0.080180 0.076770 -0.543821
O16   O     O_R   0.627170 0.809480 0.067050 -0.499504
O17   O     O_R   0.816200 0.596410 0.076500 -0.544393
O18   O     O_R   0.045770 0.638240 0.081070 -0.505450
O19   O     O_3   0.833840 0.833520 0.001110 -0.266532
O20   O     O_R   0.260600 0.739610 0.584580 -0.535934
O21   O     O_R   0.532370 0.695050 0.573830 -0.510061
O22   O     O_R   0.744850 0.503430 0.576380 -0.530831
O23   O     O_R   0.699080 0.276500 0.571950 -0.516666
O24   O     O_R   0.498860 0.256520 0.419860 -0.529537
O25   O     O_R   0.272490 0.528150 0.429140 -0.509642
O26   O     O_R   0.252110 0.740440 0.423010 -0.524942
O27   O     O_3   0.300939 0.182503 0.853870 -0.593892
C71   C     C_3   0.203845 0.212918 0.910766 -0.016592
H40   H     H_    0.172617 0.130581 0.911746 0.126881
H41   H     H_    0.103576 0.314075 0.904113 0.131142
C72   C     C_3   0.272776 0.207199 0.982415 -0.241068
H42   H     H_    0.346066 0.096328 0.996688 0.176313
H43   H     H_    0.335907 0.261173 0.979614 0.184406
C73   C     C_3   0.161527 0.275431 0.040728 -0.483936
H44   H     H_    0.076163 0.379356 0.023545 0.194397
H45   H     H_    0.209757 0.292594 0.088538 0.131001
H46   H     H_    0.115600 0.207635 0.054434 0.117274
H47   H     H_    0.429973 0.776847 0.302081 0.150709
H48   H     H_    0.960030 0.178812 0.248325 0.125661

loop_
_geom_bond_atom_site_label_1
_geom_bond_atom_site_label_2
_ccdc_geom_bond_type
C45   O3    A    
C71   C72   S    
C21   H11   S    
C34   O26   A    
C8    C13   A    
Cr3   O4    S    
Cr6   O11   S    
C41   C42   A    
C23   O23   A    
C35   C36   A    
C67   H1    S    
C14   H8    S    
C38   H22   S    
C24   H13   S    
C49   H28   S    
C65   O15   A    
Cr5   O19   S    
C7    C8    A    
C7    C11   A    
C26   C27   A    
C37   C38   A    
Cr1   O5    S    
Cr5   O8    S    
C36   C37   A    
C9    C16   A    
C43   H23   S    
C66   O16   A    
C73   H45   S    
C30   C31   A    
C2    H37   S    
C71   H40   S    
Cr2   O21   S    
Cr3   O23   S    
C10   C17   A    
C64   O6    A    
C29   C33   A    
C6    H2    S    
C18   C19   A    
C32   C39   A    
C62   O8    A    
C58   H48   S    
C23   O1    A    
C54   C55   A    
C53   C61   A    
C69   H32   S    
Cr4   O13   S    
C25   O27   S    
C8    C9    A    
Cr2   O2    S    
C1    C28   S    
C41   C46   A    
C32   H47   S    
C4    C12   S    
C68   O13   A    
C72   H43   S    
Cr5   O15   S    
C39   C45   S    
C68   O18   A    
C57   H30   S    
C59   C60   A    
Cr3   O5    S    
C13   C14   A    
C33   H18   S    
C16   H10   S    
Cr6   O10   S    
Cr1   O12   S    
C2    C6    S    
C4    C69   S    
C53   C60   A    
Cr5   O16   S    
C63   O9    A    
C66   O17   A    
C35   H17   S    
Cr2   O26   S    
O27   C71   S    
C54   C61   A    
Cr5   O9    S    
C3    C70   S    
C24   C25   A    
C4    C6    S    
C52   C57   A    
C73   H46   S    
C56   O24   A    
Cr6   O19   S    
Cr2   O20   S    
Cr1   O24   S    
C20   C28   A    
C11   H7    S    
C25   C26   A    
C48   H27   S    
C13   H6    S    
C34   C61   S    
C50   C56   S    
C51   C52   A    
C37   H20   S    
C55   H31   S    
C67   C69   S    
C43   C44   A    
C7    C62   S    
C29   C30   A    
C72   C73   S    
C47   C48   A    
C14   C15   A    
Cr6   O18   S    
Cr2   O5    S    
C22   H14   S    
C27   H16   S    
C17   C23   S    
C5    H4    S    
C63   O10   A    
C42   C50   A    
C30   C35   A    
C9    C17   A    
C40   C41   A    
Cr4   O7    S    
C21   C28   A    
C64   O11   A    
C40   C65   S    
C56   O4    A    
C58   C59   A    
C62   O7    A    
C52   C53   A    
C72   H42   S    
C45   O2    A    
C71   H41   S    
C46   H24   S    
C46   C47   A    
C48   C49   A    
Cr3   O3    S    
C54   H29   S    
C70   H3    S    
C18   C22   A    
C3    C67   S    
C1    O12   A    
C4    C5    S    
C5    C70   S    
C65   O14   A    
C44   H25   S    
C43   C50   A    
C67   H12   S    
Cr1   O25   S    
C20   C27   A    
C3    C63   S    
C5    H36   S    
C10   H5    S    
C70   H35   S    
C31   C38   A    
C15   H9    S    
C32   C33   A    
C19   C20   A    
C19   C24   A    
C26   H15   S    
C1    O20   A    
C73   H44   S    
Cr6   O17   S    
C2    H38   S    
C36   H19   S    
C18   C64   S    
C57   C58   A    
Cr3   O22   S    
Cr4   O19   S    
C34   O25   A    
C59   H33   S    
C31   C39   A    
Cr1   O1    S    
C2    C3    S    
C51   C55   A    
C51   C68   S    
C6    H39   S    
C60   H34   S    
C10   C11   A    
C42   C49   A    
C29   C66   S    
C40   C44   A    
Cr4   O6    S    
C12   O21   A    
Cr4   O14   S    
C47   H26   S    
C12   O22   A    
C21   C22   A    
C15   C16   A    
C69   H21   S    
