data_mof_unit_35718.cif
_audit_creation_date              2012-10-26T19:04:18-0400
_audit_creation_method            fapswitch 2.2
_symmetry_space_group_name_H-M    P1
_symmetry_Int_Tables_number       1
_space_group_crystal_system       triclinic
_cell_length_a                    13.9986
_cell_length_b                    17.108598
_cell_length_c                    9.711321
_cell_angle_alpha                 89.999102
_cell_angle_beta                  89.044771
_cell_angle_gamma                 89.999264
_cell_volume                      2325.5033856

loop_
_atom_site_label
_atom_site_type_symbol
_atom_type_description
_atom_site_fract_x
_atom_site_fract_y
_atom_site_fract_z
_atom_type_partial_charge
C1    C     C_R   0.374819 0.885975 0.499576 0.537276
C2    C     C_R   0.688741 0.238153 0.381104 0.248985
C3    C     C_R   0.188721 0.261821 0.381103 0.249101
C4    C     C_R   0.188730 0.738155 0.381129 0.248998
C5    C     C_R   0.676737 0.807324 0.502882 0.018079
C6    C     C_R   0.676756 0.192652 0.502883 0.018071
C7    C     C_R   0.176742 0.307326 0.502878 0.018069
C8    C     C_R   0.176767 0.692642 0.502897 0.018084
C9    C     C_R   0.670656 0.999966 0.150189 0.009504
C10   C     C_R   0.170657 0.499967 0.150190 0.009514
C11   C     C_R   0.759108 0.999895 0.088251 -0.069465
C12   C     C_R   0.374803 0.114012 0.499575 0.537269
C13   C     C_R   0.259110 0.499898 0.088253 -0.069477
C14   C     C_R   0.766701 0.999891 0.947897 -0.020645
C15   C     C_R   0.266703 0.499899 0.947900 -0.020660
C16   C     C_R   0.686087 0.999954 0.864329 0.183640
C17   C     C_R   0.186088 0.499963 0.864330 0.183636
C18   C     C_R   0.588829 0.999984 0.924580 0.121555
C19   C     C_R   0.088829 0.499987 0.924581 0.121539
C20   C     C_R   0.585817 0.999988 0.074996 0.152019
C21   C     C_R   0.085817 0.499989 0.074997 0.152027
C22   C     C_R   0.419546 0.000010 0.078635 0.071747
C23   C     C_R   0.874809 0.385983 0.499578 0.537287
C24   C     C_R   0.919546 0.500009 0.078633 0.071753
C25   C     C_R   0.616630 0.120513 0.500352 0.606408
C26   C     C_R   0.616617 0.879475 0.500351 0.606435
C27   C     C_R   0.116632 0.620511 0.500355 0.606440
C28   C     C_R   0.116620 0.379476 0.500351 0.606426
C29   C     C_R   0.419583 0.000009 0.934258 0.326644
C30   C     C_R   0.919583 0.500007 0.934256 0.326665
C31   C     C_R   0.252250 0.154776 0.736113 -0.084713
C32   C     C_R   0.252417 0.845148 0.736185 -0.084828
C33   C     C_R   0.752257 0.654779 0.736123 -0.084743
C34   C     C_R   0.874802 0.614011 0.499576 0.537278
C35   C     C_R   0.752381 0.345152 0.736191 -0.084822
C36   C     C_R   0.248908 0.187314 0.866831 -0.019000
C37   C     C_R   0.249174 0.812576 0.866864 -0.019134
C38   C     C_R   0.748915 0.687321 0.866837 -0.019013
C39   C     C_R   0.749131 0.312566 0.866862 -0.019112
C40   C     C_R   0.737397 0.767301 0.877068 0.259264
C41   C     C_R   0.737624 0.232556 0.877045 0.259305
C42   C     C_R   0.237401 0.267299 0.877063 0.259262
C43   C     C_R   0.237660 0.732548 0.877063 0.259292
C44   C     C_R   0.708745 0.809109 0.761196 -0.041463
C45   C     C_R   0.257196 0.201744 0.375653 -0.066168
C46   C     C_R   0.708890 0.190782 0.761173 -0.041412
C47   C     C_R   0.208759 0.309113 0.761189 -0.041463
C48   C     C_R   0.208903 0.690761 0.761201 -0.041353
C49   C     C_R   0.714359 0.775591 0.627529 -0.032239
C50   C     C_R   0.714432 0.224352 0.627527 -0.032241
C51   C     C_R   0.214367 0.275594 0.627523 -0.032251
C52   C     C_R   0.214469 0.724325 0.627541 -0.032198
C53   C     C_R   0.257305 0.201837 0.620760 -0.022221
C54   C     C_R   0.257414 0.798097 0.620795 -0.022245
C55   C     C_R   0.757303 0.701836 0.620765 -0.022217
C56   C     C_R   0.257200 0.798235 0.375682 -0.066190
C57   C     C_R   0.757363 0.298125 0.620786 -0.022237
C58   C     C_R   0.296343 0.173445 0.497773 -0.042580
C59   C     C_R   0.296387 0.826520 0.497793 -0.042520
C60   C     C_R   0.796340 0.673443 0.497778 -0.042570
C61   C     C_R   0.796359 0.326542 0.497793 -0.042521
C62   C     C_R   0.757193 0.701742 0.375660 -0.066160
C63   C     C_R   0.757201 0.298241 0.375673 -0.066204
C64   C     C_R   0.688718 0.761819 0.381108 0.249095
Cl1   Cl    Cl    0.732299 0.999951 0.692927 -0.646154
Cl2   Cl    Cl    0.605731 0.234400 0.246510 -0.492425
Cl3   Cl    Cl    0.105596 0.265457 0.246706 -0.492299
Cl4   Cl    Cl    0.105662 0.734444 0.246610 -0.492368
Cl5   Cl    Cl    0.232296 0.499969 0.692926 -0.646157
Cl6   Cl    Cl    0.307478 0.000019 0.874393 -0.761604
Cl7   Cl    Cl    0.807484 0.500009 0.874379 -0.761608
Cl8   Cl    Cl    0.761869 0.814574 0.031491 -0.571381
Cl9   Cl    Cl    0.762175 0.185201 0.031451 -0.571138
Cl10  Cl    Cl    0.261868 0.314577 0.031495 -0.571395
Cl11  Cl    Cl    0.262086 0.685203 0.031526 -0.571195
Cl12  Cl    Cl    0.605599 0.765460 0.246704 -0.492341
Cu1   Cu    Cu3+1 0.499990 0.000000 0.640660 1.060800
Cu2   Cu    Cu3+1 0.999990 0.500000 0.640660 1.060806
Cu3   Cu    Cu3+1 0.500010 1.000000 0.359340 1.048406
Cu4   Cu    Cu3+1 0.000010 0.500000 0.359340 1.048414
H1    H     H_    0.273314 0.173090 0.278546 0.184122
H2    H     H_    0.748264 0.406158 0.717058 0.203357
H3    H     H_    0.257049 0.151747 0.957962 0.192907
H4    H     H_    0.257387 0.848134 0.957994 0.192788
H5    H     H_    0.757063 0.651756 0.957968 0.192895
H6    H     H_    0.757351 0.348107 0.958001 0.192789
H7    H     H_    0.683784 0.865510 0.781875 0.204790
H8    H     H_    0.683793 0.134424 0.781855 0.204783
H9    H     H_    0.183807 0.365522 0.781864 0.204795
H10   H     H_    0.183690 0.634433 0.781935 0.204756
H11   H     H_    0.352948 0.000019 0.137192 0.145726
H12   H     H_    0.273312 0.826883 0.278574 0.184073
H13   H     H_    0.852947 0.500016 0.137189 0.145715
H14   H     H_    0.671894 0.999993 0.259426 0.187441
H15   H     H_    0.171894 0.499991 0.259428 0.187434
H16   H     H_    0.822831 0.999854 0.150029 0.169142
H17   H     H_    0.322833 0.499856 0.150032 0.169122
H18   H     H_    0.773312 0.673089 0.278554 0.184121
H19   H     H_    0.773338 0.326875 0.278558 0.184081
H20   H     H_    0.838552 0.999842 0.904125 0.198939
H21   H     H_    0.338555 0.499854 0.904128 0.198915
H22   H     H_    0.248129 0.093774 0.716907 0.203255
H23   H     H_    0.248307 0.906151 0.717020 0.203360
H24   H     H_    0.748144 0.593777 0.716928 0.203264
N1    N     N_R   0.501200 1.000000 0.147910 -0.274134
N2    N     N_R   0.001200 0.500000 0.147910 -0.274134
N3    N     N_R   0.501270 1.000000 0.852040 -0.218539
N4    N     N_R   0.001270 0.500000 0.852040 -0.218540
O1    O     O_R   0.409820 0.909830 0.618810 -0.474035
O2    O     O_R   0.590170 0.909830 0.618760 -0.482148
O3    O     O_R   0.090170 0.590170 0.618760 -0.482233
O4    O     O_R   0.090170 0.409830 0.618760 -0.482143
O5    O     O_R   0.590190 0.090180 0.381190 -0.468036
O6    O     O_R   0.590190 0.909820 0.381190 -0.468114
O7    O     O_R   0.090190 0.590180 0.381190 -0.468035
O8    O     O_R   0.090190 0.409820 0.381190 -0.468118
O9    O     O_R   0.409820 0.090170 0.618810 -0.473905
O10   O     O_R   0.909820 0.409830 0.618810 -0.473989
O11   O     O_R   0.909820 0.590170 0.618810 -0.473916
O12   O     O_R   0.409840 0.909830 0.381240 -0.501316
O13   O     O_R   0.409840 0.090170 0.381240 -0.501335
O14   O     O_R   0.909840 0.409830 0.381240 -0.501318
O15   O     O_R   0.909840 0.590170 0.381240 -0.501325
O16   O     O_R   0.590170 0.090170 0.618760 -0.482216

loop_
_geom_bond_atom_site_label_1
_geom_bond_atom_site_label_2
_ccdc_geom_bond_type
C44   C49   A    
C33   C55   A    
C17   Cl5   S    
C34   O15   A    
C22   C29   A    
C33   H24   S    
C36   C42   A    
C4    C8    A    
C23   O10   A    
C30   Cl7   S    
C39   C41   A    
Cu4   O14   S    
C28   O4    A    
Cu3   O13   S    
C60   C62   A    
Cu2   O10   S    
C29   Cl6   S    
C3    C7    A    
C1    C59   S    
C11   C14   A    
Cu2   Cu4   S    
C31   C53   A    
C6    C25   S    
C36   H3    S    
Cu4   N2    S    
Cu3   N1    S    
Cu2   N4    S    
C57   C61   A    
C61   C63   A    
C11   H16   S    
C18   N3    A    
C62   C64   A    
C28   O8    A    
C1    O1    A    
C62   H18   S    
C12   O13   A    
Cu4   O8    S    
C63   H19   S    
C41   C46   A    
C37   H4    S    
Cu2   O3    S    
C44   H7    S    
C43   C48   A    
C8    C52   A    
C40   C44   A    
C21   N2    A    
C12   C58   S    
C19   N4    A    
C27   O3    A    
C48   H10   S    
C55   C60   A    
C4    C56   A    
C34   C60   S    
C47   H9    S    
C5    C49   A    
C2    C6    A    
C32   C54   A    
C35   H2    S    
C52   C54   A    
C23   O14   A    
C46   H8    S    
C54   C59   A    
Cu1   Cu3   S    
C10   C21   A    
C43   Cl11  S    
C3    Cl3   S    
C45   C58   A    
C42   Cl10  S    
C38   H5    S    
C31   H22   S    
Cu1   N3    S    
C4    Cl4   S    
C47   C51   A    
C49   C55   A    
C3    C45   A    
C15   H21   S    
C7    C28   S    
C5    C26   S    
C5    C64   A    
C51   C53   A    
C1    O12   A    
C37   C43   A    
C35   C39   A    
C26   O6    A    
C25   O5    A    
C9    C20   A    
Cu4   O7    S    
C23   C61   S    
C22   H11   S    
Cu3   O12   S    
C64   Cl12  S    
C32   H23   S    
C32   C37   A    
C6    C50   A    
Cu1   O1    S    
C9    C11   A    
C13   C15   A    
C14   C16   A    
C24   N2    A    
C2    C63   A    
C20   N1    A    
C34   O11   A    
C15   C17   A    
C26   O2    A    
C40   Cl8   S    
C19   C21   A    
C50   C57   A    
C45   H1    S    
C2    Cl2   S    
C10   C13   A    
C53   C58   A    
C14   H20   S    
C22   N1    A    
C46   C50   A    
Cu1   O9    S    
C33   C38   A    
C56   C59   A    
C35   C57   A    
Cu3   O5    S    
Cu2   O11   S    
C7    C51   A    
Cu1   O16   S    
C24   H13   S    
C38   C40   A    
C10   H15   S    
C17   C19   A    
C18   C20   A    
C42   C47   A    
C13   H17   S    
Cu1   O2    S    
C25   O16   A    
C24   C30   A    
C41   Cl9   S    
C12   O9    A    
C48   C52   A    
C16   C18   A    
Cu3   O6    S    
C8    C27   S    
C31   C36   A    
C29   N3    A    
Cu2   O4    S    
C16   Cl1   S    
C39   H6    S    
C56   H12   S    
C30   N4    A    
C9    H14   S    
Cu4   O15   S    
C27   O7    A    
