data_mof_unit_7039.cif
_audit_creation_date              2012-12-11T14:56:45-0500
_audit_creation_method            fapswitch 2.2
_symmetry_space_group_name_H-M    P1
_symmetry_Int_Tables_number       1
_space_group_crystal_system       triclinic
_cell_length_a                    10.52812
_cell_length_b                    10.689373
_cell_length_c                    17.105808
_cell_angle_alpha                 80.394565
_cell_angle_beta                  89.817394
_cell_angle_gamma                 119.378502
_cell_volume                      1645.86149223

loop_
_atom_site_label
_atom_site_type_symbol
_atom_type_description
_atom_site_fract_x
_atom_site_fract_y
_atom_site_fract_z
_atom_type_partial_charge
C1    C     C_R   0.222162 0.854039 0.128605 0.554476
C2    C     C_1   0.683390 0.399507 0.709929 -0.067109
C3    C     C_R   0.610194 0.691334 0.813342 -0.177266
C4    C     C_R   0.636510 0.280396 0.086158 0.552250
C5    C     C_R   0.610546 0.668085 0.736626 -0.172694
C6    C     C_R   0.708373 0.781499 0.677320 -0.016583
C7    C     C_R   0.815918 0.914080 0.697091 -0.117958
C8    C     C_R   0.808522 0.944169 0.773308 0.259163
C9    C     C_R   0.698416 0.832478 0.830472 0.052609
C10   C     C_R   0.247630 0.966357 0.759245 -0.169855
C11   C     C_R   0.233912 0.953660 0.680777 -0.154982
C12   C     C_R   0.798922 0.420318 0.263479 -0.128890
C13   C     C_R   0.158819 0.815111 0.661804 -0.008032
C14   C     C_R   0.110095 0.688783 0.721143 -0.128346
C15   C     C_R   0.130344 0.701080 0.800419 0.238056
C16   C     C_R   0.640997 0.858354 0.125272 0.551791
C17   C     C_R   0.191346 0.840642 0.819518 0.054948
C18   C     C_R   0.686339 0.810088 0.357241 0.564191
C19   C     C_R   0.689431 0.396651 0.394384 0.560660
C20   C     C_R   0.103940 0.810369 0.359216 0.554618
C21   C     C_R   0.705409 0.759026 0.595731 0.555308
C22   C     C_R   0.716607 0.444788 0.626221 0.542261
C23   C     C_R   0.789235 0.407413 0.184880 -0.135122
C24   C     C_R   0.100144 0.801968 0.585836 0.541601
C25   C     C_R   0.223792 0.863371 0.899262 0.584137
C26   C     C_R   0.640086 0.290005 0.861764 0.564682
C27   C     C_R   0.648654 0.864052 0.900707 0.564874
C28   C     C_R   0.525497 0.306020 0.204905 -0.126892
C29   C     C_R   0.535627 0.320949 0.283921 -0.134444
C30   C     C_R   0.671577 0.371555 0.314083 0.031947
C31   C     C_3   0.168796 0.516710 0.859548 0.007945
C32   C     C_3   0.113452 0.384999 0.928213 -0.244651
C33   C     C_3   0.220817 0.327622 0.939051 -0.447624
C34   C     C_R   0.651804 0.342397 0.156557 0.028003
C35   C     C_3   0.957448 0.200180 0.734103 0.013825
C36   C     C_3   0.114806 0.252830 0.700883 -0.289234
C37   C     C_3   0.168509 0.381339 0.630847 -0.456586
C38   C     C_1   0.669292 0.848820 0.205365 -0.026529
C39   C     C_1   0.680354 0.839261 0.274832 -0.030880
C40   C     C_1   0.180154 0.825521 0.211145 -0.045800
C41   C     C_1   0.151147 0.819716 0.279757 -0.045168
C42   C     C_1   0.661111 0.355877 0.780354 -0.046422
Cr1   Cr    Cr6+3 0.402240 0.783890 0.019450 1.016271
Cr2   Cr    Cr6+3 0.382360 0.097900 0.991800 0.998770
Cr3   Cr    Cr6+3 0.715380 0.118170 0.988700 1.037323
Cr4   Cr    Cr6+3 0.936650 0.882420 0.465510 1.015767
Cr5   Cr    Cr6+3 0.605770 0.565620 0.493360 1.006381
Cr6   Cr    Cr6+3 0.921340 0.550490 0.496380 1.000640
H1    H     H_    0.417984 0.256396 0.183590 0.143299
H2    H     H_    0.303743 0.075482 0.772595 0.146329
H3    H     H_    0.282898 0.598749 0.867515 0.171083
H4    H     H_    0.169996 0.480007 0.802617 0.105894
H5    H     H_    0.097460 0.416997 0.984459 0.172830
H6    H     H_    0.006185 0.296048 0.916267 0.206241
H7    H     H_    0.242401 0.298257 0.883226 0.152753
H8    H     H_    0.173737 0.228395 0.986928 0.160984
H9    H     H_    0.325722 0.411553 0.956490 0.138588
H10   H     H_    0.957578 0.288029 0.760761 0.167925
H11   H     H_    0.882937 0.184419 0.685965 0.139510
H12   H     H_    0.273288 0.051893 0.635432 0.144456
H13   H     H_    0.189006 0.286641 0.748545 0.155276
H14   H     H_    0.121738 0.162704 0.680957 0.167241
H15   H     H_    0.095900 0.350054 0.582226 0.154474
H16   H     H_    0.281211 0.413926 0.607542 0.167178
H17   H     H_    0.171039 0.476498 0.650085 0.149224
H18   H     H_    0.047294 0.580637 0.707287 0.128539
H19   H     H_    0.437859 0.289240 0.321779 0.132108
H20   H     H_    0.906714 0.468376 0.284581 0.143990
H21   H     H_    0.887933 0.438808 0.147906 0.136780
H22   H     H_    0.529970 0.601213 0.857737 0.133455
H23   H     H_    0.532584 0.562561 0.723452 0.129290
H24   H     H_    0.901376 0.995664 0.652162 0.138092
O1    O     O_R   0.521780 0.757110 0.108900 -0.509289
O2    O     O_R   0.805020 0.410040 0.421340 -0.515478
O3    O     O_R   0.049240 0.685450 0.403290 -0.499350
O4    O     O_R   0.275160 0.783810 0.101120 -0.495200
O5    O     O_R   0.077520 0.903010 0.551800 -0.529822
O6    O     O_R   0.802980 0.872780 0.546830 -0.504259
O7    O     O_R   0.578090 0.681300 0.569920 -0.516645
O8    O     O_R   0.608530 0.436370 0.586530 -0.514331
O9    O     O_R   0.798770 0.401880 0.597100 -0.513113
O10   O     O_R   0.043450 0.677890 0.566230 -0.525664
O11   O     O_3   0.821250 0.666180 0.485090 -0.291707
O12   O     O_R   0.513330 0.228330 0.898660 -0.516677
O13   O     O_R   0.237900 0.972600 0.090980 -0.514614
O14   O     O_R   0.511190 0.220540 0.061620 -0.511929
O15   O     O_R   0.736920 0.257720 0.063840 -0.518303
O16   O     O_R   0.710450 0.984050 0.081720 -0.502121
O17   O     O_R   0.524090 0.765520 0.933110 -0.557755
O18   O     O_R   0.277300 0.791600 0.938160 -0.485716
O19   O     O_R   0.240210 0.981010 0.915190 -0.526435
O20   O     O_3   0.075677 0.577088 0.859725 -0.558241
O21   O     O_3   0.908479 0.075220 0.795655 -0.559455
O22   O     O_R   0.739230 0.266130 0.888050 -0.491629
O23   O     O_R   0.712580 0.991850 0.918770 -0.455954
O24   O     O_3   0.499990 0.999980 0.999980 -0.257334
O25   O     O_R   0.083770 0.911170 0.376030 -0.506037
O26   O     O_R   0.808770 0.880340 0.383890 -0.488031
O27   O     O_R   0.584340 0.689460 0.394160 -0.504836
O28   O     O_R   0.614320 0.443940 0.423590 -0.497048

loop_
_geom_bond_atom_site_label_1
_geom_bond_atom_site_label_2
_ccdc_geom_bond_type
Cr1   O1    S    
C33   H7    S    
C23   H21   S    
C27   O23   A    
C35   C36   S    
Cr5   O7    S    
C31   H4    S    
C20   C41   S    
C7    C8    A    
C4    O15   A    
C12   H20   S    
C12   C23   A    
C9    C27   S    
C25   O18   A    
Cr1   O17   S    
C35   H10   S    
C3    C9    A    
C36   C37   S    
Cr3   O15   S    
C38   C39   T    
C36   H14   S    
C4    O14   A    
C10   C17   A    
Cr5   O27   S    
Cr6   O9    S    
C35   H11   S    
C24   O10   A    
C1    C40   S    
C15   O20   S    
C29   H19   S    
C20   O25   A    
C8    C9    A    
C37   H17   S    
C21   O6    A    
C2    C22   S    
C26   O12   A    
Cr5   O11   S    
C33   H8    S    
Cr4   O26   S    
C28   C34   A    
C13   C14   A    
Cr6   O3    S    
Cr5   O8    S    
Cr2   O14   S    
Cr3   O22   S    
C32   H6    S    
C37   H15   S    
C35   O21   S    
C1    O13   A    
C4    C34   S    
C25   O19   A    
Cr1   O18   S    
C16   O1    A    
C22   O9    A    
Cr6   O2    S    
C3    H22   S    
C7    H24   S    
Cr4   O6    S    
Cr2   O12   S    
C6    C21   S    
Cr5   O28   S    
C13   C24   S    
C18   C39   S    
C29   C30   A    
Cr2   O24   S    
C28   H1    S    
C31   C32   S    
C23   C34   A    
C21   O7    A    
Cr1   O24   S    
C14   H18   S    
C19   C30   S    
Cr2   O19   S    
Cr3   O16   S    
C40   C41   T    
Cr4   O25   S    
C26   O22   A    
C18   O27   A    
C11   H12   S    
Cr3   O23   S    
C32   H5    S    
C37   H16   S    
C26   C42   S    
Cr1   O4    S    
C15   C17   A    
C28   C29   A    
C33   H9    S    
C12   C30   A    
C1    O4    A    
C19   O2    A    
C8    O21   S    
C31   H3    S    
C3    C5    A    
Cr4   O5    S    
C19   O28   A    
C6    C7    A    
Cr6   O11   S    
C17   C25   S    
C32   C33   S    
C22   O8    A    
C5    H23   S    
C11   C13   A    
C5    C6    A    
C2    C42   T    
Cr6   O10   S    
C27   O17   A    
C36   H13   S    
C10   C11   A    
Cr4   O11   S    
C24   O5    A    
C20   O3    A    
C31   O20   S    
C16   O16   A    
C14   C15   A    
C18   O26   A    
Cr3   O24   S    
Cr2   O13   S    
C16   C38   S    
C10   H2    S    
