data_mof_unit_31432.cif
_audit_creation_date              2013-03-05T15:50:16-0500
_audit_creation_method            fapswitch 2.2
_symmetry_space_group_name_H-M    P1
_symmetry_Int_Tables_number       1
_space_group_crystal_system       triclinic
_cell_length_a                    18.42562
_cell_length_b                    25.868194
_cell_length_c                    18.303632
_cell_angle_alpha                 89.032222
_cell_angle_beta                  90.059722
_cell_angle_gamma                 89.79304
_cell_volume                      8722.89092293

loop_
_atom_site_label
_atom_site_type_symbol
_atom_site_description
_atom_site_fract_x
_atom_site_fract_y
_atom_site_fract_z
_atom_type_partial_charge
Zn1   Zn    Zn3+2 0.249990 0.293780 0.913250 1.065136
Zn2   Zn    Zn3+2 0.249990 0.706220 0.086750 1.046270
Zn3   Zn    Zn3+2 0.249990 0.706220 0.913250 1.094071
Zn4   Zn    Zn3+2 0.249990 0.293780 0.086750 1.057111
Zn5   Zn    Zn3+2 0.749990 0.793780 0.413250 1.071868
Zn6   Zn    Zn3+2 0.749990 0.206220 0.586750 1.049519
Zn7   Zn    Zn3+2 0.749990 0.206220 0.413250 1.066421
Zn8   Zn    Zn3+2 0.749990 0.793780 0.586750 1.038599
Zn9   Zn    Zn3+2 0.336760 0.206240 0.000000 1.045145
Zn10  Zn    Zn3+2 0.336760 0.793760 0.000000 1.026907
Zn11  Zn    Zn3+2 0.836760 0.706240 0.500000 1.074130
Zn12  Zn    Zn3+2 0.836760 0.293760 0.500000 1.020248
Zn13  Zn    Zn3+2 0.163250 0.206230 0.000000 1.106184
Zn14  Zn    Zn3+2 0.163250 0.793770 0.000000 1.117352
Zn15  Zn    Zn3+2 0.663250 0.706230 0.500000 1.119166
Zn16  Zn    Zn3+2 0.663250 0.293770 0.500000 1.123795
O1    O     O_3   0.249990 0.250010 0.000000 -0.527255
O2    O     O_3   0.249990 0.749990 0.000000 -0.527136
O3    O     O_3   0.749990 0.750010 0.500000 -0.521975
O4    O     O_3   0.749990 0.249990 0.500000 -0.529541
O5    O     O_R   0.335430 0.280650 0.146160 -0.647630
O6    O     O_R   0.335430 0.719350 0.853840 -0.596383
O7    O     O_R   0.335430 0.719350 0.146160 -0.640477
O8    O     O_R   0.335430 0.280650 0.853840 -0.653909
O9    O     O_R   0.835430 0.780650 0.646160 -0.652549
O10   O     O_R   0.835430 0.219350 0.353840 -0.645723
O11   O     O_R   0.835430 0.219350 0.646160 -0.651304
O12   O     O_R   0.835430 0.780650 0.353840 -0.643472
O13   O     O_R   0.164550 0.280640 0.853840 -0.618182
O14   O     O_R   0.164550 0.719360 0.146160 -0.601714
O15   O     O_R   0.164550 0.719360 0.853840 -0.575732
O16   O     O_R   0.164550 0.280640 0.146160 -0.579773
O17   O     O_R   0.664550 0.780640 0.353840 -0.592161
O18   O     O_R   0.664550 0.219360 0.646160 -0.624495
O19   O     O_R   0.664550 0.219360 0.353840 -0.578313
O20   O     O_R   0.664550 0.780640 0.646160 -0.611802
O21   O     O_R   0.396160 0.219380 0.914560 -0.614547
O22   O     O_R   0.396160 0.780620 0.085440 -0.632417
O23   O     O_R   0.396160 0.780620 0.914560 -0.632084
O24   O     O_R   0.396160 0.219380 0.085440 -0.627525
O25   O     O_R   0.896160 0.719380 0.414560 -0.630574
O26   O     O_R   0.896160 0.280620 0.585440 -0.630623
O27   O     O_R   0.896160 0.280620 0.414560 -0.620689
O28   O     O_R   0.896160 0.719380 0.585440 -0.584241
O29   O     O_R   0.103840 0.219370 0.085450 -0.613618
O30   O     O_R   0.103840 0.780630 0.914550 -0.578835
O31   O     O_R   0.103840 0.780630 0.085450 -0.608841
O32   O     O_R   0.103840 0.219370 0.914550 -0.578586
O33   O     O_R   0.603840 0.719370 0.585450 -0.571306
O34   O     O_R   0.603840 0.280630 0.414550 -0.613000
O35   O     O_R   0.603840 0.280630 0.585450 -0.563533
O36   O     O_R   0.603840 0.719370 0.414550 -0.581443
O37   O     O_R   0.310730 0.133160 0.000000 -0.605158
O38   O     O_R   0.310730 0.866840 0.000000 -0.615519
O39   O     O_R   0.810730 0.633160 0.500000 -0.594590
O40   O     O_R   0.810730 0.366840 0.500000 -0.629637
O41   O     O_R   0.249970 0.366860 0.060720 -0.609864
O42   O     O_R   0.249970 0.633140 0.939280 -0.635356
O43   O     O_R   0.249970 0.633140 0.060720 -0.605954
O44   O     O_R   0.249970 0.366860 0.939280 -0.617204
O45   O     O_R   0.749970 0.866860 0.560720 -0.638853
O46   O     O_R   0.749970 0.133140 0.439280 -0.599093
O47   O     O_R   0.749970 0.133140 0.560720 -0.621470
O48   O     O_R   0.749970 0.866860 0.439280 -0.603065
O49   O     O_R   0.189290 0.133150 0.000000 -0.600953
O50   O     O_R   0.189290 0.866850 0.000000 -0.601863
O51   O     O_R   0.689290 0.633150 0.500000 -0.591422
O52   O     O_R   0.689290 0.366850 0.500000 -0.567026
C1    C     C_R   0.388999 0.249565 0.140868 0.763944
C2    C     C_R   0.390240 0.750184 0.860747 0.812613
C3    C     C_R   0.389257 0.749964 0.140412 0.759277
C4    C     C_R   0.390203 0.250003 0.858984 0.817964
C5    C     C_R   0.889406 0.749529 0.640072 0.804477
C6    C     C_R   0.888976 0.250352 0.359171 0.766255
C7    C     C_R   0.890151 0.249895 0.640918 0.794791
C8    C     C_R   0.890252 0.750364 0.359615 0.785474
C9    C     C_R   0.107868 0.253837 0.861879 0.937555
C10   C     C_R   0.109373 0.747607 0.140005 0.858672
C11   C     C_R   0.111165 0.752871 0.858285 0.953947
C12   C     C_R   0.112498 0.247016 0.142552 0.873395
C13   C     C_R   0.610417 0.749965 0.359497 0.929499
C14   C     C_R   0.607534 0.246087 0.637794 0.928358
C15   C     C_R   0.612665 0.253299 0.357207 0.872061
C16   C     C_R   0.609383 0.749680 0.639421 0.906540
C17   C     C_R   0.250278 0.109537 0.999612 0.852868
C18   C     C_R   0.249915 0.890781 0.999450 0.862510
C19   C     C_R   0.751216 0.609182 0.502143 0.844888
C20   C     C_R   0.749413 0.390562 0.502058 0.824959
C21   C     C_R   0.247375 0.391235 0.999641 0.888523
C22   C     C_R   0.246935 0.608851 0.000672 0.874558
C23   C     C_R   0.748497 0.891234 0.499238 0.874365
C24   C     C_R   0.749385 0.108772 0.500211 0.883009
C25   C     C_3   0.217233 0.468564 0.077072 0.059300
C26   C     C_3   0.190146 0.531755 0.939614 0.055157
C27   C     C_3   0.219612 0.528780 0.079775 0.072259
C28   C     C_3   0.191088 0.471131 0.936615 0.073784
C29   C     C_3   0.681516 0.969360 0.546312 0.071349
C30   C     C_3   0.740451 0.031329 0.418496 0.070269
C31   C     C_3   0.682393 0.029843 0.549485 0.072561
C32   C     C_3   0.746514 0.971785 0.416906 0.078453
H1    H     H_    0.259893 0.454940 0.116352 0.137863
H2    H     H_    0.215575 0.544966 0.887239 0.141400
H3    H     H_    0.265296 0.538610 0.117057 0.123231
H4    H     H_    0.218570 0.461138 0.884451 0.140617
H5    H     H_    0.695080 0.956182 0.603145 0.135635
H6    H     H_    0.790084 0.046039 0.390085 0.125809
H7    H     H_    0.698483 0.039416 0.606389 0.144848
H8    H     H_    0.801938 0.962809 0.395880 0.110862
H9    H     H_    0.357039 0.455734 0.028262 0.207686
H10   H     H_    0.337655 0.544703 0.931118 0.217831
H11   H     H_    0.358247 0.543818 0.026461 0.203294
H12   H     H_    0.339798 0.456695 0.932172 0.220009
H13   H     H_    0.820808 0.955276 0.591447 0.225969
H14   H     H_    0.864450 0.042734 0.498414 0.206399
H15   H     H_    0.826408 0.043483 0.588105 0.227948
H16   H     H_    0.865273 0.954195 0.505165 0.209825
C33   C     C_3   0.318753 0.470376 0.985507 -0.523358
C34   C     C_3   0.318529 0.530031 0.985293 -0.529737
C35   C     C_3   0.816433 0.969240 0.533730 -0.519255
C36   C     C_3   0.817528 0.029171 0.531784 -0.526909
C37   C     C_3   0.241208 0.448876 0.999757 -0.128501
C38   C     C_3   0.241282 0.551327 0.002091 -0.117218
C39   C     C_3   0.745478 0.948810 0.497506 -0.124022
C40   C     C_3   0.745182 0.051243 0.499368 -0.135971
C41   C     C_R   0.118107 0.321589 0.722419 0.275503
C42   C     C_R   0.135471 0.702732 0.293294 0.263334
C43   C     C_R   0.141980 0.791913 0.699965 0.282414
C44   C     C_R   0.144849 0.260763 0.303538 0.193965
C45   C     C_R   0.476475 0.811314 0.375767 0.253004
C46   C     C_R   0.614404 0.174526 0.773332 0.279946
C47   C     C_R   0.645470 0.241152 0.195547 0.185627
C48   C     C_R   0.463475 0.792599 0.618109 0.238912
C49   C     C_R   0.138279 0.330219 0.650132 -0.230323
C50   C     C_R   0.156747 0.706010 0.365865 -0.184759
C51   C     C_R   0.146963 0.819635 0.633882 -0.109131
C52   C     C_R   0.164597 0.236934 0.369908 -0.178055
C53   C     C_R   0.406815 0.830383 0.389537 -0.088152
C54   C     C_R   0.635901 0.164681 0.845109 -0.225851
C55   C     C_R   0.664107 0.264297 0.128505 -0.170867
C56   C     C_R   0.415739 0.834766 0.615221 -0.125887
C57   C     C_R   0.349506 0.819504 0.343495 0.314107
C58   C     C_R   0.601828 0.189637 0.902087 0.309881
C59   C     C_R   0.610110 0.283821 0.082167 0.346417
C60   C     C_R   0.387420 0.854479 0.679597 0.330153
C61   C     C_R   0.101387 0.306407 0.594315 0.310833
C62   C     C_R   0.111156 0.727629 0.416804 0.339516
C63   C     C_R   0.086870 0.826177 0.589044 0.302434
C64   C     C_R   0.111439 0.215858 0.415695 0.347236
C65   C     C_R   0.362327 0.792984 0.279684 -0.207972
C66   C     C_R   0.542333 0.221947 0.887696 -0.139769
C67   C     C_R   0.537532 0.275505 0.100143 -0.194924
C68   C     C_R   0.399651 0.827693 0.745322 -0.157763
C69   C     C_R   0.041893 0.274963 0.610441 -0.140715
C70   C     C_R   0.043172 0.746418 0.395416 -0.142584
C71   C     C_R   0.022575 0.801212 0.606688 -0.204512
C72   C     C_R   0.038478 0.223952 0.398451 -0.192181
C73   C     C_R   0.432087 0.773053 0.263604 0.008178
C74   C     C_R   0.515612 0.228660 0.815305 -0.008512
C75   C     C_R   0.519298 0.257265 0.170881 0.033955
C76   C     C_R   0.446369 0.784454 0.747668 -0.017076
C77   C     C_R   0.016181 0.269510 0.683376 -0.011361
C78   C     C_R   0.019448 0.742468 0.321786 -0.013007
C79   C     C_R   0.014779 0.774430 0.674194 0.012857
C80   C     C_R   0.019307 0.243204 0.328455 0.034927
C81   C     C_R   0.061997 0.285601 0.740131 0.004734
C82   C     C_R   0.070184 0.727571 0.268453 -0.006037
C83   C     C_R   0.073193 0.773487 0.725295 0.019513
C84   C     C_R   0.074543 0.252180 0.276658 0.049966
C85   C     C_R   0.489310 0.778323 0.314646 -0.002536
C86   C     C_R   0.560424 0.212630 0.757793 0.004271
C87   C     C_R   0.575071 0.249147 0.222589 0.050072
C88   C     C_R   0.489086 0.774105 0.686609 -0.002274
C89   C     C_R   0.445205 0.748591 0.196917 -0.047253
C90   C     C_R   0.443808 0.246142 0.798590 -0.090425
C91   C     C_R   0.447012 0.254208 0.194905 -0.069555
C92   C     C_R   0.449495 0.750192 0.807633 -0.064183
C93   C     C_R   0.944150 0.253424 0.700936 -0.092789
C94   C     C_R   0.945451 0.748413 0.301336 -0.073931
C95   C     C_R   0.947484 0.752295 0.694067 -0.041832
C96   C     C_R   0.946800 0.245994 0.304832 -0.071885
C97   C     C_R   0.510460 0.721662 0.184400 0.065381
C98   C     C_R   0.420604 0.247270 0.723462 0.068776
C99   C     C_R   0.432283 0.267433 0.268394 0.039164
C100  C     C_R   0.507799 0.714802 0.815008 0.060742
C101  C     C_R   0.921238 0.253578 0.775979 0.061312
C102  C     C_R   0.924077 0.739355 0.227560 0.049018
C103  C     C_R   0.930458 0.745829 0.768442 0.028399
C104  C     C_R   0.931998 0.233283 0.231197 0.038217
C105  C     C_R   0.973381 0.261757 0.832382 -0.032583
C106  C     C_R   0.977799 0.730958 0.172993 -0.021048
C107  C     C_R   0.980969 0.762476 0.820326 -0.056252
C108  C     C_R   0.990615 0.218249 0.187290 -0.040760
C109  C     C_R   0.564543 0.718432 0.239761 -0.027182
C110  C     C_R   0.472547 0.239310 0.666736 -0.025750
C111  C     C_R   0.490879 0.282641 0.312104 -0.042245
C112  C     C_R   0.562721 0.712683 0.760103 -0.019084
C113  C     C_R   0.046818 0.267458 0.812011 -0.114172
C114  C     C_R   0.051475 0.735784 0.193546 -0.087316
C115  C     C_R   0.055987 0.761461 0.800091 -0.088162
C116  C     C_R   0.059544 0.239987 0.202702 -0.125229
C117  C     C_R   0.555042 0.749859 0.303037 -0.100766
C118  C     C_R   0.545882 0.232499 0.686863 -0.113555
C119  C     C_R   0.559942 0.260894 0.296716 -0.125894
C120  C     C_R   0.553353 0.744605 0.695971 -0.092767
C121  C     C_R   0.520357 0.695419 0.118124 -0.209882
C122  C     C_R   0.346466 0.251535 0.703340 -0.174529
C123  C     C_R   0.361959 0.271192 0.297993 -0.122032
C124  C     C_R   0.512837 0.682486 0.877599 -0.222739
C125  C     C_R   0.847119 0.250131 0.796163 -0.190018
C126  C     C_R   0.850223 0.734403 0.208051 -0.165991
C127  C     C_R   0.860679 0.730869 0.791836 -0.107031
C128  C     C_R   0.861699 0.230011 0.201453 -0.119750
C129  C     C_R   0.579146 0.663340 0.107863 -0.207536
C130  C     C_R   0.323942 0.244743 0.631858 -0.183957
C131  C     C_R   0.350650 0.299029 0.361921 -0.152851
C132  C     C_R   0.571446 0.649656 0.887931 -0.205782
C133  C     C_R   0.824769 0.257661 0.867480 -0.181910
C134  C     C_R   0.830013 0.715378 0.140828 -0.131213
C135  C     C_R   0.836590 0.743502 0.861142 -0.140941
C136  C     C_R   0.850525 0.202848 0.136899 -0.145435
C137  C     C_R   0.874383 0.270952 0.920746 0.332777
C138  C     C_R   0.882107 0.700483 0.090845 0.345352
C139  C     C_R   0.879763 0.773999 0.905513 0.270913
C140  C     C_R   0.907167 0.175918 0.104911 0.297041
C141  C     C_R   0.629656 0.655742 0.162766 0.324738
C142  C     C_R   0.373383 0.231384 0.578407 0.335950
C143  C     C_R   0.407285 0.325860 0.393756 0.295110
C144  C     C_R   0.626332 0.647398 0.836463 0.331468
C145  C     C_R   0.948877 0.272422 0.904785 0.219286
C146  C     C_R   0.955973 0.710391 0.104022 0.218653
C147  C     C_R   0.951790 0.785238 0.884766 0.264195
C148  C     C_R   0.977313 0.180837 0.132956 0.269320
C149  C     C_R   0.624485 0.683104 0.228653 0.150364
C150  C     C_R   0.447874 0.229261 0.594303 0.221377
C151  C     C_R   0.477515 0.320348 0.366095 0.269001
C152  C     C_R   0.621914 0.677013 0.771234 0.157318
H17   H     H_    0.179356 0.358708 0.636827 0.217479
H18   H     H_    0.205426 0.686204 0.384568 0.210061
H19   H     H_    0.198397 0.835843 0.616590 0.215408
H20   H     H_    0.219704 0.238412 0.388913 0.200538
H21   H     H_    0.397146 0.854631 0.436079 0.197450
H22   H     H_    0.676189 0.135125 0.857000 0.214719
H23   H     H_    0.719206 0.263407 0.109431 0.199325
H24   H     H_    0.396425 0.849699 0.563253 0.190010
H25   H     H_    0.316671 0.787995 0.243348 0.158096
H26   H     H_    0.516434 0.239783 0.933799 0.180209
H27   H     H_    0.496173 0.287707 0.061448 0.141840
H28   H     H_    0.372490 0.840358 0.793977 0.224893
H29   H     H_    0.014773 0.257227 0.565025 0.180930
H30   H     H_    0.008462 0.761622 0.437543 0.166855
H31   H     H_    0.977923 0.805260 0.568553 0.133568
H32   H     H_    0.997626 0.210899 0.436942 0.141239
H33   H     H_    0.481398 0.697825 0.073917 0.138356
H34   H     H_    0.303083 0.256282 0.741760 0.202115
H35   H     H_    0.315844 0.253628 0.271784 0.177329
H36   H     H_    0.472031 0.682829 0.920092 0.126380
H37   H     H_    0.803653 0.245284 0.757826 0.202237
H38   H     H_    0.806460 0.741797 0.245273 0.205456
H39   H     H_    0.822750 0.713026 0.755088 0.208217
H40   H     H_    0.815612 0.247549 0.227955 0.177081
H41   H     H_    0.767334 0.256958 0.880114 0.208275
H42   H     H_    0.773077 0.709564 0.129157 0.200026
H43   H     H_    0.781363 0.734506 0.876900 0.203981
H44   H     H_    0.797213 0.199373 0.113573 0.215467
H45   H     H_    0.583878 0.642358 0.057615 0.177383
H46   H     H_    0.266482 0.245891 0.619239 0.205025
H47   H     H_    0.297220 0.302943 0.384875 0.216046
H48   H     H_    0.573987 0.625258 0.936354 0.177078
H49   H     H_    0.153862 0.053499 0.762476 0.212122
H50   H     H_    0.141087 0.960625 0.765537 0.210991
H51   H     H_    0.787398 0.536666 0.753447 0.248182
H52   H     H_    0.722409 0.454670 0.754473 0.219283
C153  C     C_R   0.305041 0.052524 0.120222 -0.253629
C154  C     C_R   0.310163 0.945496 0.118260 -0.260276
C155  C     C_R   0.794520 0.553744 0.373294 -0.220674
C156  C     C_R   0.779458 0.446834 0.370537 -0.243245
C157  C     C_R   0.336156 0.025521 0.178690 0.303207
C158  C     C_R   0.339866 0.971743 0.177152 0.309020
C159  C     C_R   0.815077 0.526881 0.311107 0.332013
C160  C     C_R   0.805260 0.473338 0.308853 0.286477
C161  C     C_R   0.280230 0.972556 0.056890 0.034615
C162  C     C_R   0.279122 0.026676 0.057507 0.041406
C163  C     C_R   0.765029 0.473050 0.436335 0.042582
C164  C     C_R   0.769979 0.527252 0.436748 0.034593
C165  C     C_R   0.250699 0.946685 0.996001 -0.079934
C166  C     C_R   0.252177 0.054165 0.996042 -0.061768
C167  C     C_R   0.747268 0.446250 0.501970 -0.050133
C168  C     C_R   0.757339 0.553194 0.502634 -0.056575
C169  C     C_R   0.224207 0.974290 0.932767 -0.078079
C170  C     C_R   0.228106 0.029181 0.931982 -0.074307
C171  C     C_R   0.740136 0.472551 0.569188 -0.074621
C172  C     C_R   0.758875 0.525264 0.569622 -0.077014
C173  C     C_R   0.194522 0.949703 0.869521 0.360176
C174  C     C_R   0.207259 0.057348 0.866862 0.340942
C175  C     C_R   0.722066 0.447898 0.637224 0.306873
C176  C     C_R   0.784112 0.546755 0.636119 0.305002
C177  C     C_R   0.164613 0.979266 0.812507 -0.186002
C178  C     C_R   0.171548 0.032207 0.810804 -0.199968
C179  C     C_R   0.735307 0.473278 0.702664 -0.200521
C180  C     C_R   0.769168 0.521047 0.702190 -0.147369
H53   H     H_    0.302557 0.094108 0.124636 0.159570
H54   H     H_    0.311885 0.903777 0.121462 0.166889
H55   H     H_    0.803320 0.595006 0.373115 0.194885
H56   H     H_    0.773429 0.405355 0.366986 0.156203
Br1   Br    Br    0.010599 0.301738 0.978791 -0.328987
Br2   Br    Br    0.023065 0.685565 0.031241 -0.330061
Br3   Br    Br    0.989586 0.849663 0.921024 -0.307395
Br4   Br    Br    0.042945 0.123007 0.120858 -0.385617
Br5   Br    Br    0.698110 0.665079 0.300150 -0.535316
Br6   Br    Br    0.509402 0.199323 0.520527 -0.328368
Br7   Br    Br    0.543606 0.377549 0.378623 -0.373256
Br8   Br    Br    0.694073 0.661169 0.698884 -0.494211
Br9   Br    Br    0.373490 0.063892 0.259198 -0.280387
Br10  Br    Br    0.386741 0.933025 0.253718 -0.339833
Br11  Br    Br    0.862945 0.564065 0.233610 -0.246462
Br12  Br    Br    0.829394 0.434546 0.223849 -0.284219
N1    N     N_R   0.148415 0.445840 0.103044 0.267424
O53   O     O_R   0.085879 0.462073 0.078863 -0.200579
O54   O     O_R   0.149360 0.413433 0.158145 -0.259861
N2    N     N_R   0.117437 0.555667 0.940447 0.262805
O55   O     O_R   0.066140 0.538731 0.983166 -0.186606
O56   O     O_R   0.101857 0.591996 0.892866 -0.307922
N3    N     N_R   0.154595 0.551099 0.114362 0.284690
O57   O     O_R   0.121884 0.591794 0.087623 -0.273930
O58   O     O_R   0.137734 0.535923 0.180346 -0.247032
N4    N     N_R   0.118230 0.448075 0.931230 0.285388
O59   O     O_R   0.103329 0.404206 0.963407 -0.299518
O60   O     O_R   0.075150 0.463901 0.878970 -0.244911
N5    N     N_R   0.610411 0.946104 0.531032 0.262202
O61   O     O_R   0.567433 0.964528 0.480577 -0.189653
O62   O     O_R   0.584868 0.911555 0.576604 -0.352260
N6    N     N_R   0.678044 0.051708 0.376459 0.275110
O63   O     O_R   0.612722 0.034393 0.386868 -0.200325
O64   O     O_R   0.690057 0.080598 0.319015 -0.253715
N7    N     N_R   0.610488 0.054207 0.539690 0.281903
O65   O     O_R   0.601710 0.095562 0.499235 -0.295707
O66   O     O_R   0.558881 0.041810 0.585167 -0.245126
N8    N     N_R   0.697488 0.949251 0.362504 0.271183
O67   O     O_R   0.642574 0.920662 0.380604 -0.250959
O68   O     O_R   0.710943 0.956943 0.293384 -0.290694
N9    N     N_R   0.198621 0.895341 0.857866 0.205701
O69   O     O_R   0.262040 0.873947 0.850831 -0.419011
O70   O     O_R   0.142007 0.871491 0.832968 -0.386324
N10   N     N_R   0.228596 0.109823 0.852249 0.182235
O71   O     O_R   0.181670 0.142509 0.824844 -0.417404
O72   O     O_R   0.297346 0.120822 0.847878 -0.376340
N11   N     N_R   0.685132 0.399412 0.641499 0.190711
O73   O     O_R   0.617506 0.397282 0.621284 -0.315051
O74   O     O_R   0.711964 0.361949 0.681565 -0.432762
N12   N     N_R   0.839575 0.585771 0.636078 0.218117
O75   O     O_R   0.894378 0.580970 0.591858 -0.311050
O76   O     O_R   0.847524 0.615124 0.692528 -0.350498
Br13  Br    Br    0.835954 0.295065 0.011258 -0.384701
Br14  Br    Br    0.849033 0.661678 0.008673 -0.286695
Br15  Br    Br    0.834047 0.805808 0.987776 -0.403205
Br16  Br    Br    0.886054 0.131894 0.024432 -0.340910
Br17  Br    Br    0.702601 0.604496 0.144302 -0.334434
Br18  Br    Br    0.334817 0.207695 0.487836 -0.388932
Br19  Br    Br    0.386069 0.370479 0.473619 -0.330453
Br20  Br    Br    0.706272 0.601925 0.858780 -0.371600
Br21  Br    Br    0.147382 0.376246 0.785596 -0.359936
Br22  Br    Br    0.176771 0.642381 0.248954 -0.297231
Br23  Br    Br    0.233533 0.781717 0.746212 -0.409376
Br24  Br    Br    0.189975 0.326046 0.282513 -0.331097
Br25  Br    Br    0.548102 0.837505 0.441832 -0.351192
Br26  Br    Br    0.638318 0.120649 0.706217 -0.386133
Br27  Br    Br    0.691583 0.176170 0.216127 -0.314758
Br28  Br    Br    0.457245 0.745839 0.538141 -0.420003
Br29  Br    Br    0.254159 0.844233 0.364966 -0.392726
Br30  Br    Br    0.628073 0.170576 0.999791 -0.394910
Br31  Br    Br    0.635118 0.317019 0.991598 -0.444748
Br32  Br    Br    0.322928 0.912498 0.676231 -0.354710
Br33  Br    Br    0.122865 0.327498 0.496373 -0.398522
Br34  Br    Br    0.135911 0.718010 0.517229 -0.408924
Br35  Br    Br    0.094139 0.866055 0.500530 -0.419016
Br36  Br    Br    0.137772 0.181408 0.505111 -0.442451

loop_
_geom_bond_atom_site_label_1
_geom_bond_atom_site_label_2
_geom_bond_distance
_ccdc_geom_bond_type
C127  H39   1.079691 S    
C25   N1    1.475332 S    
C22   C38   1.491868 S    
C171  C172  1.408001 A    
H10   C34   1.113769 S    
C47   C87   1.404716 A    
O26   C7    1.284030 A    
H11   C34   1.113728 S    
C173  N9    1.427625 S    
C25   C37   1.575163 S    
C174  C178  1.390307 A    
O5    C1    1.275661 A    
O30   C11   1.272405 A    
C42   Br22  1.926283 S    
C111  C119  1.419870 A    
C109  C117  1.436711 A    
Zn12  O26   1.932582 S    
C73   C85   1.416471 A    
C74   C90   1.427825 A    
C156  C160  1.395741 A    
C143  Br19  1.917477 S    
N4    O59   1.300024 A    
C98   C110  1.429805 A    
C112  C120  1.433683 A    
C63   C71   1.387113 A    
C26   C28   1.570175 S    
C29   H5    1.116979 S    
C122  C130  1.386407 A    
C59   C67   1.394086 A    
C142  Br18  1.914079 S    
C28   N4    1.474818 S    
C50   H18   1.083653 S    
C110  C150  1.429394 A    
O11   C7    1.285899 A    
C154  H54   1.080152 S    
O34   C15   1.285499 A    
C139  Br15  1.921775 S    
C133  C137  1.384264 A    
C50   C62   1.379696 A    
N3    O57   1.299379 A    
C80   C84   1.408856 A    
Zn1   O44   1.957348 S    
C25   H1    1.116796 S    
N7    O66   1.301830 A    
C71   H31   1.082034 S    
Zn2   O43   1.957351 S    
C130  H46   1.083595 S    
C175  C179  1.397271 A    
C128  C136  1.400275 A    
C169  C173  1.438707 A    
Zn5   O48   1.957348 S    
C69   C77   1.421944 A    
C56   H24   1.080068 S    
Zn6   O47   1.957351 S    
C102  C106  1.425620 A    
C171  C175  1.429655 A    
C82   C114  1.425635 A    
Zn7   O46   1.941744 S    
C157  Br9   1.918895 S    
O16   C12   1.299456 A    
C62   Br34  1.905450 S    
C125  H37   1.073341 S    
C62   C70   1.395271 A    
Zn16  O4    1.955470 S    
C10   C114  1.478666 S    
Zn12  O4    1.962450 S    
Zn1   O13   1.946579 S    
C76   C88   1.396658 A    
Zn3   O15   1.938161 S    
H52   C179  1.083197 S    
Zn4   O16   1.941993 S    
C75   C87   1.409103 A    
C26   C38   1.572437 S    
C27   C38   1.579950 S    
C103  C127  1.409004 A    
C28   H4    1.115012 S    
C101  C125  1.417871 A    
C49   C61   1.381336 A    
C77   C93   1.427693 A    
C46   C54   1.390919 A    
C31   H7    1.114728 S    
C91   C99   1.419746 A    
C105  C113  1.411509 A    
C92   C100  1.413781 A    
C58   Br30  1.908364 S    
C43   C51   1.398974 A    
C44   Br24  1.918392 S    
C35   C39   1.563070 S    
C30   H6    1.117313 S    
Zn10  O22   1.932582 S    
C125  C133  1.385860 A    
C24   C40   1.490807 S    
C131  H47   1.075888 S    
O25   C8    1.279696 A    
Zn13  O29   1.943940 S    
C104  C128  1.407924 A    
Zn10  O2    1.962450 S    
C146  Br2   1.934403 S    
C30   N6    1.473851 S    
O29   C12   1.286468 A    
Zn15  O33   1.943940 S    
N12   O75   1.301688 A    
C7    C93   1.485551 S    
C59   Br31  1.911620 S    
C86   C118  1.413231 A    
N7    O65   1.300236 A    
C94   C102  1.429600 A    
C177  C178  1.375712 A    
C95   C103  1.404713 A    
C42   C50   1.388617 A    
C107  C147  1.431583 A    
C174  N10   1.435459 S    
O37   C17   1.272479 A    
C1    C91   1.462204 S    
O48   C23   1.275145 A    
N3    O58   1.301894 A    
C159  Br11  1.917784 S    
C2    C92   1.462663 S    
C77   C81   1.407260 A    
C29   N5    1.472158 S    
C99   C123  1.408662 A    
C97   C121  1.411759 A    
Zn16  O35   1.936068 S    
C90   C98   1.439421 A    
C30   C40   1.577941 S    
C132  C144  1.384570 A    
Zn7   O10   1.941951 S    
C28   C37   1.578433 S    
C153  C162  1.421254 A    
C140  Br16  1.917513 S    
O33   C16   1.275773 A    
C32   N8    1.472693 S    
H51   C180  1.081399 S    
O40   C20   1.284636 A    
C165  C169  1.433942 A    
C88   C120  1.415117 A    
C34   C38   1.557189 S    
C132  H48   1.080222 S    
C55   C59   1.394444 A    
C66   C74   1.420740 A    
Zn5   O17   1.946579 S    
C55   H23   1.074214 S    
C108  C116  1.420770 A    
C25   C27   1.560090 S    
C23   C39   1.490036 S    
C157  C158  1.393331 A    
C87   C119  1.423055 A    
N5    O62   1.301805 A    
C49   H17   1.083336 S    
C175  N11   1.430157 S    
H49   C178  1.083375 S    
C45   C53   1.398058 A    
C27   H3    1.115826 S    
C147  Br3   1.935873 S    
N9    O70   1.299857 A    
C32   H8    1.116726 S    
Zn8   O3    1.965694 S    
C133  H41   1.083640 S    
C17   C166  1.435277 S    
C138  Br14  1.922163 S    
C172  C176  1.424877 A    
N6    O63   1.298865 A    
O38   C18   1.278294 A    
C74   C86   1.405673 A    
C70   H30   1.080610 S    
C71   C79   1.414039 A    
C85   C117  1.433020 A    
C47   Br27  1.912343 S    
C98   C122  1.417875 A    
N2    O56   1.301502 A    
O32   C9    1.304412 A    
C41   C81   1.427606 A    
C43   Br23  1.902131 S    
C160  Br12  1.917397 S    
Zn15  O51   1.948704 S    
C169  C170  1.421835 A    
C63   Br35  1.911004 S    
Zn11  O28   1.943234 S    
Zn12  O40   1.948663 S    
C26   H2    1.116407 S    
C52   C64   1.396105 A    
C51   C63   1.385732 A    
C79   C95   1.413042 A    
C121  H33   1.081972 S    
O8    C4    1.283523 A    
C66   H26   1.079405 S    
C170  C174  1.437639 A    
C70   C78   1.421816 A    
O50   C18   1.279050 A    
H15   C36   1.113337 S    
C101  C105  1.428426 A    
C127  C135  1.388218 A    
Zn1   O1    1.934553 S    
C142  C150  1.403432 A    
Zn13  O1    1.962145 S    
Zn2   O14   1.946427 S    
C53   H21   1.080954 S    
C29   C39   1.575849 S    
C33   C34   1.543078 S    
C16   C120  1.467325 S    
C65   C73   1.416248 A    
O52   C20   1.269049 A    
C131  C143  1.388480 A    
O39   C19   1.262122 A    
O36   C13   1.276899 A    
C78   C94   1.420642 A    
C129  C141  1.380111 A    
C89   C97   1.408317 A    
C137  Br13  1.915533 S    
O13   C9    1.263026 A    
N10   O71   1.301400 A    
C138  C146  1.407189 A    
Zn1   O8    1.946382 S    
C151  Br7   1.936192 S    
Zn2   O7    1.946533 S    
C83   C115  1.434852 A    
C46   Br26  1.923574 S    
Zn3   O6    1.941951 S    
N4    O60   1.302106 A    
O18   C14   1.263312 A    
O31   C10   1.306736 A    
C149  Br5   1.934274 S    
O6    C2    1.296559 A    
C31   C40   1.573573 S    
C136  C140  1.388201 A    
H9    C33   1.113761 S    
Zn14  O30   1.943488 S    
Zn15  O3    1.962145 S    
Zn11  O3    1.955774 S    
O41   C21   1.274982 A    
C168  C172  1.412802 A    
Zn16  O34   1.943488 S    
C8    C94   1.475990 S    
C44   C52   1.400103 A    
C67   H27   1.082396 S    
H12   C33   1.113607 S    
C41   Br21  1.920054 S    
O15   C11   1.312268 A    
C110  C118  1.409849 A    
C93   C101  1.437459 A    
Zn8   O20   1.941993 S    
N1    O54   1.300603 A    
C96   C104  1.419110 A    
C78   C82   1.409739 A    
C48   C56   1.399020 A    
C31   N7    1.474580 S    
C99   C111  1.404433 A    
C159  C160  1.398772 A    
C4    C90   1.487541 S    
C97   C109  1.421701 A    
C80   C96   1.405023 A    
C121  C129  1.377108 A    
Zn8   O9    1.938121 S    
C111  C151  1.421265 A    
C154  C161  1.423136 A    
Zn7   O19   1.938161 S    
C109  C149  1.447702 A    
C139  C147  1.410725 A    
C161  C165  1.418664 A    
C11   C115  1.485158 S    
C166  C170  1.419793 A    
C163  C167  1.416083 A    
O7    C3    1.274746 A    
C164  C168  1.409145 A    
C135  H43   1.083008 S    
C19   C168  1.452171 S    
C15   C119  1.482323 S    
C54   C58   1.385539 A    
C20   C167  1.440944 S    
N11   O73   1.301082 A    
O19   C15   1.297853 A    
C13   C117  1.451534 S    
C112  C152  1.438184 A    
C45   Br25  1.921939 S    
C100  C112  1.428511 A    
C128  H40   1.080627 S    
Zn9   O24   1.943234 S    
C153  C157  1.390128 A    
Zn6   O18   1.946427 S    
Zn10  O23   1.943689 S    
C155  C159  1.395587 A    
C179  C180  1.386167 A    
C158  Br10  1.912313 S    
C81   C113  1.417873 A    
C61   Br33  1.907352 S    
C107  C115  1.431654 A    
C123  C131  1.399643 A    
C48   Br28  1.918121 S    
Zn15  O36   1.932835 S    
N12   O76   1.300989 A    
O42   C22   1.279503 A    
H50   C177  1.083670 S    
Zn4   O1    1.965694 S    
C60   Br32  1.911085 S    
C30   C32   1.544708 S    
C102  C126  1.413318 A    
C18   C165  1.446575 S    
Zn9   O37   1.952021 S    
O12   C8    1.279284 A    
Zn11  O39   1.952021 S    
C106  C114  1.414834 A    
C14   C118  1.488286 S    
C108  C148  1.421067 A    
C53   C57   1.383019 A    
C65   H25   1.081301 S    
C84   C116  1.422157 A    
C56   C60   1.392985 A    
C176  N12   1.438891 S    
C42   C82   1.431809 A    
C35   C36   1.550332 S    
C72   H32   1.082527 S    
Zn5   O3    1.934553 S    
C126  H38   1.074885 S    
Zn6   O4    1.934552 S    
C100  C124  1.409546 A    
C104  C108  1.404620 A    
C32   C39   1.581312 S    
C141  C149  1.411751 A    
C58   C66   1.398204 A    
C21   C37   1.495036 S    
C46   C86   1.422885 A    
C67   C75   1.411860 A    
C173  C177  1.395117 A    
O28   C5    1.284353 A    
C68   H28   1.077254 S    
C135  C139  1.392697 A    
Zn3   O42   1.941744 S    
C176  C180  1.398365 A    
C60   C68   1.395816 A    
Zn7   O4    1.965696 S    
O21   C4    1.283060 A    
C137  C145  1.404151 A    
C64   C72   1.394846 A    
C106  C146  1.435848 A    
C9    C113  1.485525 S    
H14   C36   1.113416 S    
C73   C89   1.405113 A    
C68   C76   1.408978 A    
C129  H45   1.079250 S    
Zn2   O2    1.934552 S    
N5    O61   1.299218 A    
Zn14  O2    1.955470 S    
C105  C145  1.431411 A    
C57   C65   1.384577 A    
Zn13  O49   1.948704 S    
N9    O69   1.298602 A    
N8    O68   1.301601 A    
C45   C85   1.437774 A    
C153  H53   1.080887 S    
Zn12  O27   1.943689 S    
C140  C148  1.397231 A    
C155  H55   1.080168 S    
C12   C116  1.481213 S    
Zn3   O2    1.965696 S    
C33   C37   1.555787 S    
C150  Br6   1.934087 S    
C123  H35   1.080671 S    
C141  Br17  1.918647 S    
O46   C24   1.271845 A    
O47   C24   1.283614 A    
Zn16  O52   1.952064 S    
O9    C5    1.283403 A    
C54   H22   1.083015 S    
Zn8   O45   1.941741 S    
C61   C69   1.396228 A    
O27   C6    1.298348 A    
C124  C132  1.382290 A    
C75   C91   1.405138 A    
C76   C92   1.400061 A    
C136  H44   1.075353 S    
C130  C142  1.384739 A    
C144  Br20  1.920972 S    
C29   C31   1.566779 S    
C134  C138  1.384855 A    
C57   Br29  1.911004 S    
O24   C1    1.297191 A    
C47   C55   1.399908 A    
C27   N3    1.475877 S    
C161  C162  1.400314 A    
C69   H29   1.079307 S    
C3    C89   1.459418 S    
O43   C22   1.276454 A    
O14   C10   1.253733 A    
Zn4   O41   1.941741 S    
C79   C83   1.425078 A    
N11   O74   1.301216 A    
Zn5   O12   1.946382 S    
Zn6   O11   1.946533 S    
C64   Br36  1.911572 S    
Zn9   O21   1.935817 S    
Zn14  O50   1.952064 S    
H13   C35   1.113439 S    
C155  C164  1.414044 A    
O35   C14   1.300593 A    
C156  H56   1.082157 S    
Zn9   O1    1.955774 S    
N10   O72   1.301572 A    
C162  C166  1.409630 A    
C134  H42   1.081950 S    
C167  C171  1.421909 A    
C122  H34   1.073287 S    
C163  C164  1.405549 A    
C41   C49   1.389339 A    
O44   C21   1.282148 A    
O22   C3    1.277303 A    
C154  C158  1.395950 A    
C103  C107  1.402988 A    
Zn13  O32   1.932835 S    
O49   C17   1.277177 A    
Zn14  O31   1.936068 S    
C156  C163  1.417026 A    
C143  C151  1.397741 A    
O51   C19   1.296862 A    
C126  C134  1.384068 A    
H16   C35   1.113546 S    
N2    O55   1.299866 A    
C52   H20   1.073987 S    
Zn4   O5    1.938121 S    
C148  Br4   1.935968 S    
O20   C16   1.303390 A    
O10   C6    1.278379 A    
O23   C2    1.276136 A    
C51   H19   1.083088 S    
Zn11  O25   1.935817 S    
C26   N2    1.473795 S    
N1    O53   1.299641 A    
Zn10  O38   1.948663 S    
C144  C152  1.409760 A    
C145  Br1   1.934193 S    
C152  Br8   1.925486 S    
C48   C88   1.414375 A    
C5    C95   1.458672 S    
C36   C40   1.560896 S    
N6    O64   1.299308 A    
C6    C96   1.463632 S    
C72   C80   1.410825 A    
C43   C83   1.430619 A    
N8    O67   1.295487 A    
C44   C84   1.404970 A    
C124  H36   1.082464 S    
O17   C13   1.279998 A    
O45   C23   1.280815 A    
