data_mof_unit_26283.cif
_audit_creation_date              2012-12-10T17:36:20-0500
_audit_creation_method            fapswitch 2.2
_symmetry_space_group_name_H-M    P1
_symmetry_Int_Tables_number       1
_space_group_crystal_system       triclinic
_cell_length_a                    12.370293
_cell_length_b                    13.155086
_cell_length_c                    15.893592
_cell_angle_alpha                 77.237828
_cell_angle_beta                  100.411924
_cell_angle_gamma                 117.364271
_cell_volume                      2230.86010619

loop_
_atom_site_label
_atom_site_type_symbol
_atom_type_description
_atom_site_fract_x
_atom_site_fract_y
_atom_site_fract_z
_atom_type_partial_charge
C1    C     C_R   0.854798 0.286110 0.511421 0.812084
C2    C     C_3   0.047021 0.409981 0.072684 -0.480417
C3    C     C_3   0.014671 0.506470 0.084639 0.150549
C4    C     C_3   0.111482 0.624987 0.041765 0.285184
C5    C     C_3   0.109029 0.624614 0.943278 -0.542674
C6    C     C_1   0.012309 0.505390 0.176583 0.008830
C7    C     C_1   0.007477 0.505367 0.825385 0.016410
C8    C     C_1   0.002525 0.503677 0.749313 -0.113405
C9    C     C_R   0.306102 0.003179 0.340420 0.217842
C10   C     C_R   0.230478 0.835343 0.453433 -0.136825
C11   C     C_R   0.798586 0.094507 0.600980 -0.229656
C12   C     C_R   0.000136 0.500829 0.659480 0.830848
C13   C     C_R   0.716065 0.980413 0.625485 0.202766
C14   C     C_R   0.600158 0.932817 0.578806 0.129498
C15   C     C_R   0.565969 0.004841 0.507943 0.034353
C16   C     C_R   0.658840 0.114754 0.477506 0.021721
C17   C     C_R   0.445611 0.973110 0.464503 0.020684
C18   C     C_R   0.426366 0.038110 0.383084 0.008901
C19   C     C_R   0.527775 0.134596 0.346626 0.437825
C20   C     C_R   0.640270 0.174468 0.395866 -0.257698
C21   C     C_R   0.342491 0.882724 0.502121 -0.199790
C22   C     C_R   0.212480 0.895217 0.371006 0.090252
C23   C     C_R   0.145728 0.713913 0.482831 0.836488
C24   C     C_R   0.771704 0.161882 0.527333 -0.094543
C25   C     C_R   0.382719 0.412737 0.668176 -0.208788
C26   C     C_R   0.747557 0.619125 0.369785 0.026392
C27   C     C_R   0.654349 0.652496 0.338797 0.086927
C28   C     C_R   0.560365 0.622446 0.390644 0.138841
C29   C     C_R   0.556168 0.548450 0.471470 -0.112211
C30   C     C_R   0.660043 0.524271 0.503222 0.159746
C31   C     C_R   0.455837 0.498809 0.524473 -0.018963
C32   C     C_R   0.478074 0.463971 0.614142 0.091409
C33   C     C_R   0.594460 0.475361 0.647152 0.110026
C34   C     C_R   0.001558 0.500842 0.340727 0.816892
C35   C     C_R   0.666698 0.471932 0.591266 0.161428
C36   C     C_R   0.334587 0.480806 0.493488 0.103546
C37   C     C_R   0.267059 0.399324 0.634106 0.091362
C38   C     C_3   0.045980 0.409407 0.974467 0.265960
C39   C     C_3   0.886556 0.486048 0.940420 -0.310616
C40   C     C_3   0.886034 0.481434 0.038061 -0.394665
C41   C     C_1   0.006912 0.503487 0.251539 -0.118091
C42   C     C_3   0.012349 0.505914 0.918546 0.197145
Cu1   Cu    Cu3+1 0.098280 0.475420 0.519630 0.982811
Cu2   Cu    Cu3+1 0.901720 0.524580 0.480370 0.991289
H1    H     H_    0.980804 0.324165 0.103840 0.223457
H2    H     H_    0.139264 0.427732 0.960966 0.102667
H3    H     H_    0.139082 0.424430 0.105818 0.156572
H4    H     H_    0.347840 0.845722 0.569364 0.180116
H5    H     H_    0.884629 0.131138 0.640176 0.178578
H6    H     H_    0.715983 0.250558 0.367611 0.135096
H7    H     H_    0.195012 0.363063 0.676773 0.140273
H8    H     H_    0.395464 0.381294 0.736253 0.181069
H9    H     H_    0.308943 0.499736 0.425670 0.148868
H10   H     H_    0.817121 0.642758 0.328017 0.187587
H11   H     H_    0.865599 0.558434 0.904251 0.195549
H12   H     H_    0.814204 0.403292 0.920850 0.246999
H13   H     H_    0.818620 0.393963 0.065794 0.201833
H14   H     H_    0.854709 0.544318 0.048226 0.192573
H15   H     H_    0.200992 0.641394 0.928648 0.173380
H16   H     H_    0.088464 0.695518 0.903079 0.216715
H17   H     H_    0.203547 0.636049 0.072955 0.163037
N1    N     N_R   0.246300 0.438200 0.549400 -0.195309
N2    N     N_R   0.754300 0.561180 0.451130 -0.206737
O1    O     O_R   0.972520 0.318130 0.524690 -0.581955
O2    O     O_R   0.806530 0.359650 0.491530 -0.552320
O3    O     O_R   0.083030 0.479240 0.637150 -0.591445
O4    O     O_R   0.917040 0.520750 0.603990 -0.552942
O5    O     O_R   0.193470 0.640350 0.508470 -0.541438
O6    O     O_R   0.027480 0.681870 0.475310 -0.559905
O7    O     O_R   0.082960 0.479250 0.396010 -0.577384
O8    O     O_R   0.916970 0.520760 0.362850 -0.591470
O9    O     O_3   0.095794 0.719300 0.055714 -0.666220
H18   H     H_    0.020682 0.718612 0.020521 0.347623
I1    I     I_    0.053617 0.818409 0.285495 -0.240643
O10   O     O_3   0.518038 0.186728 0.261912 -0.682491
H19   H     H_    0.597751 0.252113 0.246868 0.326877
I2    I     I_    0.255050 0.114397 0.237045 -0.196137
I3    I     I_    0.502154 0.747820 0.605790 -0.300409
I4    I     I_    0.776528 0.888003 0.736029 -0.255357
O11   O     O_3   0.961946 0.300437 0.952505 -0.692295
H20   H     H_    0.999218 0.246350 0.977228 0.345785
I5    I     I_    0.648758 0.466660 0.781989 -0.347595
I6    I     I_    0.454717 0.720024 0.354317 -0.284219
I7    I     I_    0.665870 0.750855 0.212208 -0.234698
I8    I     I_    0.651402 0.300620 0.627275 -0.303351

loop_
_geom_bond_atom_site_label_1
_geom_bond_atom_site_label_2
_ccdc_geom_bond_type
C5    C42   S    
C13   I4    S    
C35   I8    S    
C23   O6    A    
C19   C20   A    
C26   N2    A    
C3    C6    S    
C37   N1    A    
C7    C8    T    
C10   C22   A    
C26   C27   A    
C30   C35   A    
C28   C29   A    
C38   C42   S    
C37   H7    S    
C9    C22   A    
C15   C16   A    
C11   C24   A    
Cu2   O8    S    
C18   C19   A    
C7    C42   S    
C20   H6    S    
C36   H9    S    
C25   C37   A    
C39   H11   S    
C31   C32   A    
Cu1   O5    S    
C6    C41   T    
C1    O2    A    
C33   I5    S    
C34   O7    A    
C16   C20   A    
C21   H4    S    
C25   C32   A    
Cu2   N2    S    
C13   C14   A    
C28   I6    S    
Cu2   O2    S    
C34   C41   S    
C36   N1    A    
C26   H10   S    
Cu1   O1    S    
C39   C42   S    
C10   C21   A    
C12   O4    A    
C40   H14   S    
C5    H15   S    
C39   C40   S    
O9    H18   S    
C12   O3    A    
C4    H17   S    
C17   C21   A    
C23   O5    A    
O10   H19   S    
C29   C30   A    
C11   H5    S    
C2    C38   S    
C39   H12   S    
C8    C12   S    
C17   C18   A    
Cu2   O6    S    
C9    I2    S    
C3    C40   S    
Cu1   O7    S    
Cu1   Cu2   S    
C2    H3    S    
C22   I1    S    
C3    C4    S    
C1    O1    A    
C4    O9    S    
C15   C17   A    
C27   I7    S    
C40   H13   S    
C5    H16   S    
C31   C36   A    
O11   H20   S    
C10   C23   S    
C32   C33   A    
C19   O10   S    
C2    C3    S    
C25   H8    S    
C29   C31   A    
C11   C13   A    
C38   O11   S    
Cu1   O3    S    
C33   C35   A    
C14   I3    S    
C38   H2    S    
C2    H1    S    
C9    C18   A    
C4    C5    S    
C1    C24   S    
C16   C24   A    
C27   C28   A    
C14   C15   A    
Cu2   O4    S    
C30   N2    A    
C34   O8    A    
Cu1   N1    S    
