data_mof_unit_5162.cif
_audit_creation_date              2012-12-11T15:34:38-0500
_audit_creation_method            fapswitch 2.2
_symmetry_space_group_name_H-M    P1
_symmetry_Int_Tables_number       1
_space_group_crystal_system       triclinic
_cell_length_a                    15.033002
_cell_length_b                    15.041644
_cell_length_c                    34.816261
_cell_angle_alpha                 90.769987
_cell_angle_beta                  90.068601
_cell_angle_gamma                 60.163233
_cell_volume                      6828.38292164

loop_
_atom_site_label
_atom_site_type_symbol
_atom_type_description
_atom_site_fract_x
_atom_site_fract_y
_atom_site_fract_z
_atom_type_partial_charge
C1    C     C_R   0.300706 0.608985 0.555455 0.542358
C2    C     C_R   0.178955 0.730542 0.396995 0.241843
C3    C     C_R   0.748725 0.145321 0.264953 -0.105863
C4    C     C_R   0.755332 0.144344 0.225048 0.264695
C5    C     C_R   0.670958 0.215475 0.203510 0.046554
C6    C     C_R   0.726962 0.218455 0.348475 -0.112881
C7    C     C_R   0.712773 0.238237 0.388202 0.238632
C8    C     C_R   0.561673 0.217289 0.384966 0.268185
C9    C     C_R   0.747019 0.587530 0.645941 -0.139343
C10   C     C_R   0.575658 0.199680 0.344820 0.045747
C11   C     C_R   0.654552 0.208688 0.326456 -0.046635
C12   C     C_R   0.624240 0.246666 0.405964 0.014717
C13   C     C_R   0.144037 0.746378 0.358694 -0.001119
C14   C     C_R   0.087974 0.708169 0.093343 -0.045697
C15   C     C_R   0.094060 0.623116 0.111752 -0.147138
C16   C     C_R   0.122699 0.604955 0.150241 0.314355
C17   C     C_R   0.134208 0.678985 0.171281 0.007180
C18   C     C_R   0.139449 0.758942 0.152257 -0.023481
C19   C     C_R   0.124430 0.767489 0.112262 0.262494
C20   C     C_R   0.231216 0.650168 0.230560 -0.140865
C21   C     C_2   0.724773 0.274946 0.789352 0.218468
C22   C     C_2   0.727183 0.953516 0.693481 0.203413
C23   C     C_2   0.729198 0.936753 0.777273 0.204029
C24   C     C_R   0.166349 0.660250 0.335093 -0.078794
C25   C     C_3   0.396758 0.822750 0.602232 -0.065865
C26   C     C_3   0.076954 0.497899 0.653328 -0.105414
C27   C     C_3   0.227940 0.798141 0.822691 -0.112809
C28   C     C_3   0.214225 0.818442 0.687598 -0.091215
C29   C     C_3   0.103062 0.863596 0.573685 -0.088947
C30   C     C_2   0.809477 0.522471 0.088999 0.289584
C31   C     C_3   0.708668 0.442298 0.273463 -0.079364
C32   C     C_3   0.487377 0.973327 0.157563 -0.080915
C33   C     C_2   0.684680 0.853595 0.221134 0.234002
C34   C     C_2   0.455097 0.812666 0.332746 0.258246
C35   C     C_R   0.591552 0.752005 0.642533 -0.098658
C36   C     C_3   0.883334 0.530493 0.182198 -0.109968
C37   C     C_3   0.939309 0.068393 0.095775 -0.030301
C38   C     C_3   0.442578 0.190323 0.092349 -0.121224
C39   C     C_2   0.508807 0.172311 0.321736 0.249921
C40   C     C_2   0.487987 0.379473 0.283992 0.254400
C41   C     C_2   0.498290 0.376496 0.199825 0.214041
C42   C     C_3   0.853723 0.978885 0.204973 -0.087269
C43   C     C_3   0.822544 0.305100 0.393443 -0.086354
C44   C     C_3   0.521557 0.117617 0.420895 -0.073139
C45   C     C_3   0.228086 0.794629 0.072952 -0.067717
C46   C     C_R   0.238188 0.629866 0.410728 -0.019615
C47   C     C_2   0.089012 0.851737 0.342422 0.291787
C48   C     C_2   0.336429 0.638413 0.287450 0.271986
C49   C     C_3   0.208607 0.432090 0.156890 -0.133551
C50   C     C_3   0.964367 0.637276 0.307562 -0.107625
C51   C     C_2   0.948371 0.726852 0.219489 0.206325
C52   C     C_2   0.241605 0.466543 0.326323 0.235916
C53   C     C_3   0.223758 0.427327 0.419253 -0.067067
C54   C     C_2   0.153557 0.836864 0.174402 0.252412
C55   C     C_3   0.077436 0.837714 0.444384 -0.066337
C56   C     C_2   0.531982 0.831374 0.911231 0.234620
C57   C     C_R   0.736582 0.024414 0.942999 0.546015
C58   C     C_R   0.746372 0.722884 0.944713 0.533750
C59   C     C_R   0.036828 0.734751 0.947801 0.538829
C60   C     C_R   0.722610 0.039693 0.052985 0.584084
C61   C     C_R   0.732430 0.733285 0.054262 0.577679
C62   C     C_R   0.676509 0.680760 0.663444 -0.000269
C63   C     C_R   0.029692 0.743901 0.057376 0.551473
C64   C     C_R   0.571180 0.726371 0.605777 0.261494
C65   C     C_R   0.697387 0.702891 0.782321 0.354320
C66   C     C_R   0.686206 0.697319 0.704628 0.340142
C67   C     C_R   0.796428 0.634436 0.842364 -0.101589
C68   C     C_R   0.805550 0.635705 0.881951 -0.123510
C69   C     C_R   0.625459 0.766417 0.887881 0.007549
C70   C     C_R   0.617650 0.764760 0.847581 -0.077439
C71   C     C_R   0.703572 0.701213 0.824633 0.026462
C72   C     C_R   0.611634 0.589467 0.554875 0.557569
C73   C     C_R   0.239451 0.652967 0.270314 -0.024439
C74   C     C_R   0.722393 0.704457 0.905154 -0.010568
C75   C     C_R   0.726916 0.066689 0.904231 0.022885
C76   C     C_R   0.636216 0.099336 0.883198 -0.106120
C77   C     C_R   0.634779 0.116195 0.843830 -0.093025
C78   C     C_R   0.723901 0.100458 0.825014 0.047905
C79   C     C_R   0.812794 0.073659 0.846157 -0.087330
C80   C     C_R   0.814187 0.057479 0.885544 -0.109734
C81   C     C_R   0.725153 0.191385 0.765748 -0.003240
C82   C     C_R   0.720148 0.199607 0.725828 -0.110135
C83   C     C_R   0.715454 0.125879 0.702364 0.003754
C84   C     C_R   0.154324 0.671882 0.293264 0.029191
C85   C     C_R   0.590682 0.299855 0.553462 0.536123
C86   C     C_R   0.720874 0.037612 0.718712 -0.010901
C87   C     C_R   0.725059 0.028251 0.759339 -0.014620
C88   C     C_R   0.725824 0.106315 0.782734 -0.011050
C89   C     C_R   0.600597 0.166354 0.645779 -0.073646
C90   C     C_R   0.569703 0.209232 0.609502 -0.117025
C91   C     C_R   0.726851 0.215864 0.603031 -0.131576
C92   C     C_R   0.757577 0.173059 0.639277 -0.102449
C93   C     C_R   0.693371 0.150714 0.661300 0.083234
C94   C     C_R   0.630972 0.237682 0.588342 0.016266
C95   C     C_R   0.060445 0.693594 0.276475 0.267769
C96   C     C_R   0.083273 0.701908 0.909181 -0.021817
C97   C     C_R   0.299154 0.610071 0.446223 0.571849
C98   C     C_R   0.099521 0.769923 0.886899 -0.095056
C99   C     C_R   0.116337 0.754069 0.847313 0.282140
C100  C     C_R   0.115803 0.669739 0.829513 0.039894
C101  C     C_R   0.108162 0.597269 0.852035 -0.164141
C102  C     C_R   0.091741 0.613304 0.891604 -0.145841
C103  C     C_R   0.202475 0.574470 0.769551 -0.139158
C104  C     C_R   0.211944 0.569860 0.729659 -0.087015
C105  C     C_R   0.138104 0.649089 0.707080 0.053024
C106  C     C_R   0.050811 0.697031 0.236158 0.068036
C107  C     C_R   0.052674 0.731364 0.724975 -0.085314
C108  C     C_R   0.044204 0.736794 0.764950 -0.060924
C109  C     C_R   0.608307 0.590669 0.445665 0.542255
C110  C     C_R   0.120037 0.659235 0.787410 0.040134
C111  C     C_R   0.160090 0.732658 0.648731 0.253731
C112  C     C_R   0.194758 0.725030 0.610628 0.255278
C113  C     C_R   0.226965 0.550323 0.606565 -0.170735
C114  C     C_R   0.183897 0.560503 0.642945 0.215757
C115  C     C_R   0.156866 0.649111 0.665374 -0.011086
C116  C     C_R   0.237575 0.630033 0.590726 -0.073969
C117  C     C_R   0.138357 0.673279 0.213365 -0.005269
C118  C     C_R   0.691795 0.716208 0.090553 -0.047111
C119  C     C_R   0.611238 0.800717 0.109698 -0.158072
C120  C     C_R   0.592233 0.796609 0.149145 0.235135
C121  C     C_R   0.588771 0.301228 0.443755 0.580185
C122  C     C_R   0.658443 0.707545 0.169449 0.034846
C123  C     C_R   0.734070 0.619723 0.149743 0.204931
C124  C     C_R   0.744552 0.621290 0.109727 0.019429
C125  C     C_R   0.635425 0.628577 0.227660 -0.037127
C126  C     C_R   0.638908 0.615123 0.267387 0.298545
C127  C     C_R   0.649598 0.684433 0.291566 -0.037151
C128  C     C_R   0.215287 0.560122 0.350223 -0.006764
C129  C     C_R   0.662105 0.762872 0.276222 -0.167205
C130  C     C_R   0.664326 0.773590 0.236329 0.029579
C131  C     C_R   0.650423 0.705394 0.211761 0.007072
C132  C     C_R   0.548061 0.733519 0.352641 0.032412
C133  C     C_R   0.638009 0.628238 0.589867 0.034170
C134  C     C_R   0.540799 0.709690 0.390822 -0.086070
C135  C     C_R   0.720528 0.579328 0.390644 -0.139722
C136  C     C_R   0.729083 0.602562 0.352706 -0.116142
C137  C     C_R   0.642861 0.676943 0.333254 0.029781
C138  C     C_R   0.625250 0.629457 0.409382 -0.003574
C139  C     C_R   0.247017 0.546202 0.388572 0.180972
C140  C     C_R   0.696704 0.106796 0.087851 0.037821
C141  C     C_R   0.764885 0.139663 0.101312 0.210887
C142  C     C_R   0.749082 0.186408 0.137850 -0.049004
C143  C     C_R   0.670781 0.194854 0.161840 0.017063
C144  C     C_R   0.599401 0.169373 0.147528 -0.110573
C145  C     C_R   0.727911 0.561537 0.609681 -0.181069
C146  C     C_R   0.608667 0.130007 0.110140 0.215842
C147  C     C_R   0.582402 0.293714 0.222479 -0.043609
C148  C     C_R   0.576955 0.294611 0.263237 -0.032042
C149  C     C_R   0.659128 0.215993 0.284120 -0.045210
Cr1   Cr    Cr6+3 0.421670 0.426920 0.499620 1.038072
Cr2   Cr    Cr6+3 0.427030 0.651190 0.500980 1.076747
Cr3   Cr    Cr6+3 0.651280 0.421870 0.499380 1.040519
Cr4   Cr    Cr6+3 0.910810 0.908010 0.001130 1.056818
Cr5   Cr    Cr6+3 0.682800 0.909890 0.998370 1.047408
Cr6   Cr    Cr6+3 0.908370 0.682300 0.002180 1.041502
H1    H     H_    0.781545 0.486380 0.598070 0.140711
H2    H     H_    0.092912 0.839133 0.899585 0.144656
H3    H     H_    0.144871 0.842906 0.205376 0.109486
H4    H     H_    0.093938 0.773965 0.464220 0.071953
H5    H     H_    0.007020 0.858121 0.427502 0.126862
H6    H     H_    0.061947 0.905557 0.462278 0.151637
H7    H     H_    0.531625 0.820533 0.941941 0.120885
H8    H     H_    0.079173 0.559751 0.907959 0.136015
H9    H     H_    0.279236 0.506408 0.716488 0.148804
H10   H     H_    0.261692 0.514311 0.786558 0.110781
H11   H     H_    0.994313 0.792671 0.708108 0.169715
H12   H     H_    0.979743 0.802467 0.778449 0.184835
H13   H     H_    0.880648 0.586973 0.894069 0.140610
H14   H     H_    0.109222 0.531277 0.838681 0.124268
H15   H     H_    0.255288 0.477877 0.591328 0.164793
H16   H     H_    0.565710 0.870545 0.094018 0.155164
H17   H     H_    0.885535 0.031593 0.900805 0.137037
H18   H     H_    0.801782 0.558702 0.337797 0.094156
H19   H     H_    0.622490 0.577908 0.209012 0.176980
H20   H     H_    0.671365 0.814680 0.295597 0.170747
H21   H     H_    0.814119 0.531511 0.661159 0.142134
H22   H     H_    0.467058 0.749600 0.405278 0.188776
H23   H     H_    0.787053 0.518785 0.404614 0.109333
H24   H     H_    0.540056 0.826560 0.655094 0.128208
H25   H     H_    0.801013 0.211252 0.148473 0.160162
H26   H     H_    0.813547 0.088776 0.281075 0.138452
H27   H     H_    0.791929 0.215882 0.334060 0.114211
H28   H     H_    0.829309 0.161671 0.650926 0.122928
H29   H     H_    0.539102 0.175015 0.166186 0.113458
H30   H     H_    0.070358 0.574292 0.097184 0.137571
H31   H     H_    0.863743 0.583007 0.825615 0.143966
H32   H     H_    0.296477 0.633739 0.212461 0.170887
H33   H     H_    0.544574 0.813581 0.834052 0.171059
H34   H     H_    0.568001 0.106646 0.896718 0.143325
H35   H     H_    0.721119 0.274594 0.820433 0.114764
H36   H     H_    0.700713 0.902689 0.703328 0.103290
H37   H     H_    0.684711 0.904198 0.765663 0.114593
H38   H     H_    0.393621 0.752571 0.609739 0.147135
H39   H     H_    0.715153 0.266903 0.712694 0.164400
H40   H     H_    0.333867 0.866883 0.581750 0.190493
H41   H     H_    0.382439 0.872312 0.628061 0.093827
H42   H     H_    0.054797 0.506077 0.622495 0.113258
H43   H     H_    0.021383 0.567012 0.670075 0.140302
H44   H     H_    0.072406 0.431586 0.664541 0.148304
H45   H     H_    0.273218 0.722469 0.807853 0.120320
H46   H     H_    0.261117 0.797055 0.851409 0.132306
H47   H     H_    0.234246 0.855831 0.805164 0.154195
H48   H     H_    0.271450 0.813547 0.666265 0.125437
H49   H     H_    0.250809 0.753246 0.707776 0.111937
H50   H     H_    0.565550 0.137369 0.827701 0.112253
H51   H     H_    0.188231 0.890006 0.704687 0.149928
H52   H     H_    0.034541 0.892865 0.592798 0.155122
H53   H     H_    0.098197 0.816199 0.549812 0.101630
H54   H     H_    0.102460 0.930835 0.560705 0.134368
H55   H     H_    0.871818 0.458538 0.103608 0.134390
H56   H     H_    0.783543 0.438907 0.278480 0.086494
H57   H     H_    0.703300 0.420914 0.243223 0.145215
H58   H     H_    0.706687 0.384286 0.292167 0.163817
H59   H     H_    0.440505 0.996487 0.131043 0.147567
H60   H     H_    0.558426 0.978094 0.153937 0.140327
H61   H     H_    0.549581 0.150622 0.662625 0.114846
H62   H     H_    0.441187 0.029185 0.180530 0.155534
H63   H     H_    0.707552 0.850967 0.191457 0.123183
H64   H     H_    0.459078 0.831405 0.303067 0.143566
H65   H     H_    0.926049 0.540285 0.158033 0.162578
H66   H     H_    0.935129 0.455636 0.195520 0.155210
H67   H     H_    0.864145 0.590961 0.204509 0.131818
H68   H     H_    0.944098 0.999658 0.109554 0.164927
H69   H     H_    0.955308 0.114165 0.117084 0.133869
H70   H     H_    0.000387 0.040756 0.073511 0.184735
H71   H     H_    0.391201 0.167721 0.077633 0.138169
H72   H     H_    0.495493 0.225055 0.598973 0.137162
H73   H     H_    0.448334 0.247254 0.073912 0.135887
H74   H     H_    0.406373 0.225840 0.120433 0.096874
H75   H     H_    0.528702 0.146278 0.292153 0.121324
H76   H     H_    0.411392 0.412784 0.272412 0.115634
H77   H     H_    0.419922 0.415587 0.210211 0.096044
H78   H     H_    0.787520 0.981924 0.189426 0.149803
H79   H     H_    0.860740 0.946535 0.234083 0.155698
H80   H     H_    0.924114 0.926316 0.188542 0.164342
H81   H     H_    0.761078 0.372791 0.378406 0.127851
H82   H     H_    0.887000 0.257213 0.373512 0.126632
H83   H     H_    0.882056 0.061383 0.831852 0.140920
H84   H     H_    0.853365 0.334137 0.416293 0.145755
H85   H     H_    0.577256 0.108174 0.443771 0.092427
H86   H     H_    0.557903 0.053399 0.399550 0.128815
H87   H     H_    0.457321 0.113436 0.434715 0.153787
H88   H     H_    0.231120 0.739315 0.050712 0.102107
H89   H     H_    0.293494 0.755729 0.093151 0.147961
H90   H     H_    0.236804 0.854581 0.058038 0.144708
H91   H     H_    0.056098 0.864232 0.313934 0.106178
H92   H     H_    0.345516 0.638724 0.318344 0.150000
H93   H     H_    0.281151 0.433881 0.161173 0.127173
H94   H     H_    0.776036 0.236424 0.587366 0.127851
H95   H     H_    0.201363 0.414006 0.126365 0.098157
H96   H     H_    0.213300 0.369017 0.174512 0.151820
H97   H     H_    0.976820 0.587562 0.281789 0.130522
H98   H     H_    0.884902 0.665006 0.317813 0.123299
H99   H     H_    0.016829 0.591712 0.330948 0.156930
H100  H     H_    0.886924 0.735050 0.238010 0.143249
H101  H     H_    0.296910 0.391292 0.336663 0.209736
H102  H     H_    0.264084 0.349358 0.431513 0.175479
H103  H     H_    0.169489 0.428562 0.397214 0.094812
H104  H     H_    0.180718 0.482314 0.443057 0.089280
N1    N     N_R   0.781717 0.641154 0.760839 -0.217130
N2    N     N_R   0.776155 0.638007 0.722815 -0.230424
N3    N     N_R   0.602270 0.761278 0.725970 -0.252168
N4    N     N_R   0.607809 0.764216 0.764105 -0.252673
O1    O     O_R   0.502070 0.323090 0.541280 -0.524422
O2    O     O_R   0.831550 0.656950 0.958960 -0.501524
O3    O     O_R   0.998590 0.685540 0.963930 -0.502227
O4    O     O_R   0.338340 0.520690 0.539540 -0.522864
O5    O     O_R   0.008220 0.831200 0.045060 -0.468503
O6    O     O_R   0.813270 0.997930 0.038810 -0.462759
O7    O     O_R   0.657500 0.016560 0.039940 -0.466946
O8    O     O_R   0.685680 0.820940 0.038120 -0.506811
O9    O     O_R   0.822130 0.666070 0.043610 -0.469742
O10   O     O_R   0.989860 0.694000 0.042400 -0.515140
O11   O     O_3   0.833990 0.833400 0.000560 -0.257657
O12   O     O_R   0.520720 0.641670 0.461580 -0.501829
O13   O     O_R   0.324760 0.674070 0.543580 -0.472312
O14   O     O_R   0.522400 0.640310 0.540110 -0.453583
O15   O     O_R   0.675940 0.500630 0.542210 -0.535307
O16   O     O_R   0.641790 0.337020 0.538150 -0.504669
O17   O     O_R   0.500260 0.324550 0.456580 -0.451925
O18   O     O_R   0.336660 0.522040 0.461020 -0.462454
O19   O     O_R   0.322940 0.675540 0.458880 -0.470251
O20   O     O_2   0.728329 0.346004 0.774293 -0.500065
O21   O     O_2   0.764753 0.938239 0.661319 -0.494492
O22   O     O_2   0.782931 0.896312 0.805168 -0.500728
O23   O     O_R   0.674120 0.502090 0.457500 -0.511264
O24   O     O_3   0.490364 0.798385 0.584319 -0.560629
O25   O     O_3   0.178235 0.478676 0.657767 -0.567216
O26   O     O_3   0.123595 0.826617 0.825712 -0.575284
O27   O     O_3   0.128296 0.822783 0.669407 -0.549609
O28   O     O_3   0.194582 0.808512 0.594542 -0.564135
O29   O     O_2   0.790488 0.509585 0.055950 -0.482128
O30   O     O_3   0.624575 0.539136 0.283207 -0.496774
O31   O     O_3   0.508628 0.874962 0.168845 -0.545332
O32   O     O_2   0.677221 0.923252 0.241819 -0.550442
O33   O     O_2   0.372330 0.858099 0.349289 -0.467198
O34   O     O_R   0.640110 0.338380 0.459630 -0.451874
O35   O     O_3   0.794480 0.530001 0.169416 -0.606016
O36   O     O_3   0.843938 0.129508 0.077815 -0.560695
O37   O     O_3   0.538953 0.101674 0.097356 -0.574811
O38   O     O_2   0.430962 0.178360 0.335144 -0.459450
O39   O     O_2   0.499687 0.414170 0.314279 -0.478089
O40   O     O_2   0.516118 0.403436 0.169229 -0.498473
O41   O     O_3   0.846384 0.075835 0.206950 -0.592508
O42   O     O_3   0.785613 0.245323 0.410783 -0.540855
O43   O     O_3   0.481762 0.213466 0.403019 -0.484530
O44   O     O_3   0.133412 0.842102 0.092734 -0.533316
O45   O     O_3   0.499990 0.499990 0.499990 -0.263158
O46   O     O_2   0.079823 0.926216 0.360325 -0.429494
O47   O     O_2   0.407571 0.626989 0.267107 -0.459435
O48   O     O_3   0.122452 0.524668 0.169086 -0.553894
O49   O     O_3   0.975051 0.723299 0.299682 -0.603212
O50   O     O_2   0.929790 0.744333 0.185429 -0.568182
O51   O     O_2   0.201813 0.471032 0.295307 -0.540639
O52   O     O_3   0.297438 0.447823 0.402938 -0.510418
O53   O     O_2   0.174434 0.896093 0.158513 -0.449145
O54   O     O_3   0.161848 0.813223 0.420097 -0.475433
O55   O     O_2   0.453319 0.896901 0.896325 -0.520875
O56   O     O_R   0.017640 0.822070 0.960410 -0.524307
O57   O     O_R   0.822000 0.989470 0.960340 -0.501239
O58   O     O_R   0.666920 0.007430 0.955290 -0.510879
O59   O     O_R   0.694410 0.812480 0.959650 -0.506976

loop_
_geom_bond_atom_site_label_1
_geom_bond_atom_site_label_2
_ccdc_geom_bond_type
C144  H29   S    
C126  C127  A    
C96   C102  A    
C27   H47   S    
C28   H51   S    
C114  C115  A    
C41   O40   D    
C15   H30   S    
C29   H53   S    
C128  C139  A    
C43   H81   S    
Cr3   O23   S    
C5    C143  S    
C143  C144  A    
C83   C93   S    
C56   H7    S    
C9    H21   S    
C26   H42   S    
C64   C133  A    
C32   H60   S    
C102  H8    S    
Cr2   O13   S    
C45   H88   S    
C38   H71   S    
C55   O54   S    
C104  C105  A    
C3    C149  A    
C140  C141  A    
C6    C11   A    
C34   H64   S    
C132  C137  A    
C75   C76   A    
C77   H50   S    
C1    O4    A    
C98   H2    S    
C53   O52   S    
C69   C74   A    
C118  C124  A    
C148  C149  A    
Cr3   O34   S    
C55   H6    S    
Cr6   O2    S    
C43   H84   S    
C34   O33   D    
C49   H95   S    
C55   H5    S    
C133  C145  A    
C45   O44   S    
C50   H97   S    
C53   H103  S    
C61   C118  S    
C14   C19   A    
C58   O59   A    
C4    C5    A    
C104  H9    S    
C113  H15   S    
C146  O37   S    
C130  C131  A    
C21   O20   D    
C120  O31   S    
C50   H98   S    
C22   O21   D    
C91   C94   A    
C114  O25   S    
C72   C133  S    
C20   C73   A    
C72   O15   A    
C134  H22   S    
C69   C70   A    
C49   H93   S    
C83   C86   A    
C132  C134  A    
C98   C99   A    
C43   O42   S    
Cr5   O7    S    
C84   C95   A    
C119  H16   S    
C46   C139  A    
C33   C130  S    
C37   O36   S    
C38   O37   S    
C147  C148  A    
Cr6   O9    S    
C44   H87   S    
C123  C124  A    
C105  C107  A    
C6    H27   S    
C103  C110  A    
Cr3   O16   S    
C68   C74   A    
C43   H82   S    
C63   O10   A    
C142  H25   S    
C12   C121  S    
C57   O58   A    
C96   C98   A    
C107  C108  A    
C85   O16   A    
C60   O6    A    
C66   N2    A    
C61   O9    A    
C70   H33   S    
C32   H59   S    
C16   O48   S    
Cr6   O11   S    
C125  H19   S    
C44   H85   S    
C23   H37   S    
C38   H74   S    
C35   H24   S    
C7    C12   A    
C62   C66   S    
C81   C88   A    
C19   O44   S    
Cr4   O5    S    
C37   H68   S    
C91   C92   A    
C13   C47   S    
C109  C138  S    
Cr1   O18   S    
C127  C129  A    
C95   C106  A    
C97   O18   A    
C42   H80   S    
C125  C131  A    
C36   O35   S    
C8    C12   A    
C17   C18   A    
C54   O53   D    
C48   O47   D    
C25   H41   S    
C60   C140  S    
C89   H61   S    
C139  O52   S    
C109  O23   A    
C68   H13   S    
C8    C10   A    
C103  H10   S    
C59   C96   S    
C3    C4    A    
Cr5   O59   S    
C122  C131  S    
C112  C116  A    
C58   C74   S    
C129  C130  A    
C27   H46   S    
C28   H48   S    
C105  C115  S    
C129  H20   S    
C30   C124  S    
N1    N2    A    
Cr4   O57   S    
C29   H54   S    
N3    N4    A    
C51   O50   D    
C32   O31   S    
C29   H52   S    
C57   C75   S    
C58   O2    A    
C37   H70   S    
C100  C101  A    
C108  C110  A    
C89   C93   A    
C26   H43   S    
C10   C11   A    
C141  O36   S    
C7    O42   S    
Cr1   O45   S    
C56   C69   S    
C24   C128  A    
C112  O28   S    
C14   C15   A    
C79   H83   S    
C22   H36   S    
Cr2   O12   S    
C36   H66   S    
Cr1   O1    S    
C87   C88   A    
C100  C110  S    
C101  C102  A    
C5    C147  A    
C51   H100  S    
C52   C128  S    
C135  C136  A    
C77   C78   A    
Cr2   O45   S    
C52   O51   D    
C42   H78   S    
C8    O43   S    
C57   O57   A    
C18   C19   A    
C4    O41   S    
C44   O43   S    
Cr5   O11   S    
C1    O13   A    
C145  H1    S    
C11   C149  S    
C31   H57   S    
C111  C112  A    
C16   C17   A    
Cr3   O45   S    
C121  O34   A    
C101  H14   S    
C70   C71   A    
C63   O5    A    
C59   O56   A    
C17   C117  S    
C55   H4    S    
C65   N4    A    
C20   C117  A    
C90   C94   A    
C53   H102  S    
C40   C148  S    
C67   C68   A    
C90   H72   S    
C39   H75   S    
C144  C146  A    
Cr2   O19   S    
C45   H90   S    
C86   C87   A    
C136  C137  A    
C97   O19   A    
C10   C39   S    
C25   O24   S    
C30   H55   S    
C50   H99   S    
C41   H77   S    
C27   O26   S    
C40   H76   S    
C40   O39   D    
C3    H26   S    
C45   H89   S    
Cr3   O15   S    
C31   H58   S    
C64   O24   S    
C46   C97   S    
C106  C117  A    
C125  C126  A    
C85   O1    A    
C140  C146  A    
Cr5   O8    S    
C25   H38   S    
C113  C114  A    
C91   H94   S    
C78   C88   S    
C136  H18   S    
C48   C73   S    
C135  H23   S    
C119  C120  A    
C47   O46   D    
C52   H101  S    
C14   C63   S    
C9    C145  A    
C92   C93   A    
C67   C71   A    
C22   C86   S    
Cr2   O14   S    
Cr1   O17   S    
C82   H39   S    
Cr6   O3    S    
C49   H96   S    
C82   C83   A    
C103  C104  A    
C142  C143  A    
C60   O7    A    
C89   C90   A    
C66   N3    A    
C61   O8    A    
C47   H91   S    
C50   O49   S    
C31   O30   S    
C135  C138  A    
C53   H104  S    
C121  O17   A    
Cr6   O10   S    
C36   H65   S    
C81   C82   A    
C42   O41   S    
C33   H63   S    
C2    C46   A    
C26   O25   S    
C111  O27   S    
C48   H92   S    
C56   O55   D    
C15   C16   A    
C72   O14   A    
C2    C13   A    
C118  C119  A    
C76   H34   S    
C35   C64   A    
C1    C116  S    
C75   C80   A    
C29   O28   S    
C73   C84   A    
C32   H62   S    
C25   H40   S    
C67   H31   S    
C30   O29   D    
C126  O30   S    
C107  H11   S    
C34   C132  S    
C23   C87   S    
C120  C122  A    
C44   H86   S    
C6    C7    A    
C9    C62   A    
C28   H49   S    
C65   N1    A    
C76   C77   A    
Cr4   O56   S    
C78   C79   A    
C65   C71   S    
C13   C24   A    
C54   H3    S    
C85   C94   S    
C99   C100  A    
C41   C147  S    
C33   O32   D    
C26   H44   S    
Cr4   O11   S    
C23   O22   D    
C108  H12   S    
C21   C81   S    
C123  O35   S    
C36   H67   S    
C38   H73   S    
C59   O3    A    
Cr4   O6    S    
C27   H45   S    
C37   H69   S    
C92   H28   S    
C134  C138  A    
C2    O54   S    
C39   O38   D    
C113  C116  A    
C24   C84   S    
C28   O27   S    
C49   O48   S    
C141  C142  A    
C20   H32   S    
C42   H79   S    
C21   H35   S    
C51   C106  S    
C35   C62   A    
C95   O49   S    
C18   C54   S    
C79   C80   A    
C31   H56   S    
C80   H17   S    
C111  C115  A    
C127  C137  S    
C122  C123  A    
C99   O26   S    
Cr5   O58   S    
Cr1   O4    S    
C109  O12   A    
