data_mof_unit_57783.cif
_audit_creation_date              2012-12-11T14:29:29-0500
_audit_creation_method            fapswitch 2.2
_symmetry_space_group_name_H-M    P1
_symmetry_Int_Tables_number       1
_space_group_crystal_system       triclinic
_cell_length_a                    6.955452
_cell_length_b                    14.667342
_cell_length_c                    16.337962
_cell_angle_alpha                 90.263718
_cell_angle_beta                  90.019116
_cell_angle_gamma                 90.425201
_cell_volume                      1666.70243216

loop_
_atom_site_label
_atom_site_type_symbol
_atom_type_description
_atom_site_fract_x
_atom_site_fract_y
_atom_site_fract_z
_atom_type_partial_charge
O1    O     O_R   0.494400 0.416610 0.413880 -0.517627
O2    O     O_R   0.823920 0.406790 0.585520 -0.540147
O3    O     O_R   0.994250 0.583390 0.586120 -0.536739
C1    C     C_R   0.653842 0.385256 0.613494 0.731291
O4    O     O_R   0.824110 0.405730 0.414490 -0.559050
O5    O     O_R   0.994440 0.582310 0.413870 -0.537477
C2    C     C_R   0.654089 0.384244 0.386319 0.670906
O6    O     O_R   0.494210 0.417690 0.586130 -0.539733
O7    O     O_3   0.660810 0.557940 0.500000 -0.371034
V1    V     V_3+5 0.935650 0.489250 0.500000 1.407958
O8    O     O_R   0.324160 0.593210 0.414480 -0.547312
C3    C     C_R   0.155788 0.614975 0.386352 0.739808
O9    O     O_R   0.323970 0.594270 0.585510 -0.539843
C4    C     C_R   0.155472 0.616182 0.613895 0.687686
V2    V     V_3+5 0.435660 0.510750 0.500000 1.428759
O10   O     O_3   0.160630 0.442060 0.500000 -0.367918
H1    H     H_    0.379468 0.909980 0.514630 0.136596
C5    C     C_R   0.026174 0.566760 0.776003 -0.148056
C6    C     C_R   0.963269 0.539909 0.853163 -0.128704
C7    C     C_R   0.952525 0.603184 0.916394 -0.117877
C8    C     C_R   0.004061 0.693829 0.902891 -0.142707
C9    C     C_R   0.066271 0.723802 0.824785 0.062761
C10   C     C_R   0.078161 0.658575 0.760060 0.073464
C11   C     C_R   0.120143 0.816354 0.811484 -0.166774
C12   C     C_R   0.188562 0.843711 0.732330 -0.083099
C13   C     C_R   0.201082 0.777026 0.668143 0.030188
C14   C     C_R   0.145544 0.684950 0.681767 -0.142748
C15   C     C_R   0.241600 0.936102 0.713655 0.323432
C16   C     C_R   0.309650 0.959586 0.635370 0.405041
C17   C     C_R   0.324239 0.892873 0.574615 -0.302799
C18   C     C_R   0.267712 0.803894 0.590134 -0.206764
H2    H     H_    0.035278 0.514300 0.729464 0.110394
H3    H     H_    0.924263 0.469401 0.864099 0.110329
H4    H     H_    0.905247 0.581820 0.976501 0.109678
H5    H     H_    0.995994 0.739517 0.954859 0.099486
H6    H     H_    0.277836 0.756382 0.539577 0.139959
C19   C     C_2   0.986103 0.709156 0.283047 -0.131391
C20   C     C_2   0.150939 0.682750 0.319427 -0.315542
H7    H     H_    0.850530 0.680530 0.304111 0.136352
H8    H     H_    0.288246 0.710705 0.300472 0.126693
C21   C     C_2   0.973077 0.776625 0.215059 -0.140719
C22   C     C_2   0.125631 0.814543 0.177121 -0.310519
H9    H     H_    0.829316 0.794991 0.195449 0.133731
H10   H     H_    0.270414 0.796717 0.194970 0.129436
C23   C     C_2   0.661472 0.164975 0.742056 -0.066985
C24   C     C_2   0.622028 0.183929 0.821010 -0.327697
H11   H     H_    0.678854 0.094276 0.723791 0.139962
H12   H     H_    0.606358 0.253715 0.841957 0.110395
C25   C     C_2   0.700629 0.235385 0.678430 -0.144523
C26   C     C_2   0.635110 0.321189 0.682495 -0.310177
H13   H     H_    0.776479 0.213481 0.623723 0.119048
H14   H     H_    0.541272 0.341254 0.732339 0.129422
C27   C     C_2   0.776763 0.232504 0.196027 0.464560
C28   C     C_2   0.615475 0.189324 0.169205 -0.382398
H15   H     H_    0.475078 0.208904 0.189390 0.176313
C29   C     C_2   0.779635 0.296673 0.268600 -0.351982
C30   C     C_2   0.632524 0.315845 0.320162 0.220100
H16   H     H_    0.917365 0.328964 0.281503 0.129703
O11   O     O_R   0.770210 0.079270 0.910680 -0.554614
O12   O     O_R   0.440150 0.091160 0.082270 -0.554967
O13   O     O_R   0.269970 0.914530 0.082860 -0.544379
C31   C     C_R   0.610009 0.116601 0.106856 0.746060
O14   O     O_R   0.440480 0.090100 0.911240 -0.522236
O15   O     O_R   0.270310 0.913460 0.910610 -0.512557
C32   C     C_R   0.609620 0.111403 0.883052 0.764795
O16   O     O_R   0.769870 0.080340 0.082930 -0.501311
O17   O     O_3   0.603660 0.938980 0.996790 -0.377912
V3    V     V_3+5 0.328750 0.007610 0.996740 1.455734
O18   O     O_R   0.940600 0.902510 0.911180 -0.556097
C33   C     C_R   0.109193 0.882499 0.881323 0.764471
O19   O     O_R   0.940270 0.903570 0.082200 -0.543921
C34   C     C_R   0.109191 0.881895 0.110324 0.736916
V4    V     V_3+5 0.828770 0.986010 0.996670 1.437642
O20   O     O_3   0.103730 0.054750 0.996710 -0.367827
O21   O     O_3   0.948472 0.215703 0.155330 -0.541185
C35   C     C_3   0.026354 0.298048 0.124069 0.084422
H17   H     H_    0.138553 0.324265 0.166747 0.150537
H18   H     H_    0.916828 0.352417 0.114736 0.096749
C36   C     C_3   0.118742 0.279805 0.041281 -0.692300
H19   H     H_    0.010309 0.251197 0.998123 0.212975
H20   H     H_    0.176828 0.344409 0.015739 0.157029
H21   H     H_    0.238379 0.231011 0.047912 0.230969
O22   O     O_3   0.449066 0.282012 0.307201 -0.553987
C37   C     C_3   0.423480 0.202944 0.354834 0.076324
H22   H     H_    0.438357 0.219381 0.420913 0.116654
H23   H     H_    0.530431 0.149792 0.338185 0.114629
C38   C     C_3   0.222981 0.164325 0.338928 -0.701742
H24   H     H_    0.202987 0.150773 0.272562 0.247760
H25   H     H_    0.202527 0.099272 0.372208 0.157423
H26   H     H_    0.112821 0.213588 0.359811 0.219715
O23   O     O_3   0.239209 0.004355 0.772271 -0.544066
C39   C     C_3   0.080201 0.061980 0.759106 0.141643
H27   H     H_    0.953343 0.032608 0.790303 0.111583
H28   H     H_    0.040723 0.070144 0.693579 0.096616
C40   C     C_3   0.125436 0.156410 0.793829 -0.647901
H29   H     H_    0.263368 0.181522 0.768762 0.235532
H30   H     H_    0.015559 0.206436 0.776152 0.165573
H31   H     H_    0.131600 0.154587 0.861492 0.227867
O24   O     O_3   0.368821 0.048837 0.621599 -0.545825
C41   C     C_3   0.272074 0.085774 0.553291 0.058511
H32   H     H_    0.125838 0.055610 0.543562 0.100773
H33   H     H_    0.360228 0.074201 0.497665 0.121658
C42   C     C_3   0.246893 0.187970 0.565810 -0.681409
H34   H     H_    0.389177 0.222308 0.568067 0.217512
H35   H     H_    0.162245 0.216788 0.514634 0.174519
H36   H     H_    0.168739 0.202018 0.623501 0.216535

loop_
_geom_bond_atom_site_label_1
_geom_bond_atom_site_label_2
_ccdc_geom_bond_type
C38   H24   S    
O14   C32   A    
C21   C22   D    
C40   H29   S    
C35   C36   S    
C1    O6    A    
C40   H31   S    
C11   C33   S    
C23   C24   D    
C12   C15   A    
C13   C14   A    
C16   C17   A    
O15   V3    S    
C15   C16   A    
C35   H18   S    
O5    C3    A    
C17   C18   A    
V3    O20   S    
V2    O10   S    
C29   C30   D    
O12   C31   A    
C5    C6    A    
V4    O20   S    
C41   H32   S    
O14   V3    S    
O8    V2    S    
O24   C41   S    
C25   H13   S    
C26   H14   S    
C30   O22   S    
O18   V4    S    
O17   V4    S    
C10   C14   A    
C4    C14   S    
C15   O23   S    
O7    V1    S    
O11   V4    S    
C7    H4    S    
C13   C18   A    
O9    C4    A    
C3    C20   S    
H1    C17   S    
C21   H9    S    
C27   O21   S    
C22   H10   S    
C41   H33   S    
O4    C2    A    
C35   H17   S    
C23   H11   S    
C24   H12   S    
C31   O16   A    
C5    C10   A    
C11   C12   A    
C24   C32   S    
C6    H3    S    
O23   C39   S    
C36   H20   S    
C16   O24   S    
C28   C31   S    
C12   C13   A    
C27   C28   D    
O16   V4    S    
C39   C40   S    
O17   V3    S    
C1    C26   S    
O2    C1    A    
O21   C35   S    
C19   C20   D    
O22   C37   S    
C23   C25   S    
C22   C34   S    
C42   H35   S    
C37   H22   S    
O3    C4    A    
O1    V2    S    
O13   C34   A    
O6    V2    S    
O15   C33   A    
O9    V2    S    
C9    C11   A    
C5    H2    S    
O2    V1    S    
O19   V4    S    
C27   C29   S    
C28   H15   S    
O1    C2    A    
C9    C10   A    
C37   H23   S    
O5    V1    S    
C36   H21   S    
O8    C3    A    
C40   H30   S    
C8    H5    S    
C37   C38   S    
C6    C7    A    
C38   H25   S    
O7    V2    S    
O4    V1    S    
C19   H7    S    
O3    V1    S    
V1    O10   S    
O11   C32   A    
C20   H8    S    
O13   V3    S    
C39   H28   S    
C39   H27   S    
C29   H16   S    
C42   H36   S    
C41   C42   S    
C19   C21   S    
O18   C33   A    
C36   H19   S    
O19   C34   A    
C7    C8    A    
O12   V3    S    
C25   C26   D    
C38   H26   S    
C42   H34   S    
C18   H6    S    
C8    C9    A    
C2    C30   S    
