data_mof_unit_33998.cif
_audit_creation_date              2012-12-11T16:17:50-0500
_audit_creation_method            fapswitch 2.2
_symmetry_space_group_name_H-M    P1
_symmetry_Int_Tables_number       1
_space_group_crystal_system       triclinic
_cell_length_a                    14.061366
_cell_length_b                    14.067646
_cell_length_c                    30.092002
_cell_angle_alpha                 97.158571
_cell_angle_beta                  97.075228
_cell_angle_gamma                 61.289566
_cell_volume                      5166.27824831

loop_
_atom_site_label
_atom_site_type_symbol
_atom_type_description
_atom_site_fract_x
_atom_site_fract_y
_atom_site_fract_z
_atom_type_partial_charge
C1    C     C_R   0.386007 0.710262 0.442120 0.542858
C2    C     C_R   0.411200 0.319880 0.221096 -0.080484
C3    C     C_R   0.423232 0.324216 0.267909 -0.080953
C4    C     C_R   0.334969 0.348280 0.292533 0.037287
C5    C     C_R   0.310630 0.340282 0.198820 0.037464
C6    C     C_1   0.300781 0.324783 0.150852 -0.042054
C7    C     C_1   0.348528 0.355482 0.340591 -0.045501
C8    C     C_1   0.290849 0.304527 0.111113 0.002958
C9    C     C_R   0.764383 0.367767 0.400221 -0.012651
C10   C     C_R   0.767238 0.275500 0.374832 -0.098538
C11   C     C_R   0.792082 0.254724 0.330049 0.165159
C12   C     C_R   0.398990 0.381157 0.426434 0.547910
C13   C     C_R   0.815924 0.325738 0.310696 0.047000
C14   C     C_R   0.822225 0.412246 0.336794 -0.147831
C15   C     C_R   0.796718 0.433247 0.381417 -0.136149
C16   C     C_R   0.850296 0.395191 0.161579 -0.128246
C17   C     C_R   0.876620 0.386100 0.117729 -0.148545
C18   C     C_R   0.868207 0.215927 0.103556 0.150298
C19   C     C_R   0.842109 0.226018 0.147827 -0.068621
C20   C     C_R   0.837611 0.313014 0.177050 0.000624
C21   C     C_1   0.828877 0.314379 0.223814 0.004793
C22   C     C_1   0.823973 0.317545 0.263439 0.032098
C23   C     C_R   0.709751 0.405576 0.442380 0.543629
C24   C     C_R   0.892085 0.293697 0.088834 0.027718
C25   C     C_R   0.365575 0.767610 0.401515 0.017669
C26   C     C_R   0.450411 0.776843 0.385433 -0.127380
C27   C     C_R   0.441108 0.805613 0.341855 -0.102345
C28   C     C_R   0.346788 0.826333 0.314318 0.034433
C29   C     C_R   0.258663 0.826078 0.331163 -0.109954
C30   C     C_R   0.267754 0.797165 0.374705 -0.118513
C31   C     C_R   0.251990 0.840981 0.153874 -0.141825
C32   C     C_R   0.232953 0.865779 0.109233 -0.122926
C33   C     C_R   0.387167 0.901267 0.117639 -0.094273
C34   C     C_R   0.389726 0.711503 0.568250 0.546034
C35   C     C_R   0.406106 0.876899 0.162445 0.174184
C36   C     C_R   0.335737 0.850423 0.180889 0.044524
C37   C     C_1   0.342048 0.842029 0.228058 0.035075
C38   C     C_1   0.344501 0.836402 0.267600 0.008603
C39   C     C_R   0.297522 0.900725 0.091298 -0.016519
C40   C     C_R   0.365713 0.363946 0.592576 0.018157
C41   C     C_R   0.431178 0.268412 0.614625 -0.124662
C42   C     C_R   0.411915 0.261444 0.658121 -0.114909
C43   C     C_R   0.326880 0.349382 0.679714 0.035236
C44   C     C_R   0.256202 0.441240 0.656865 -0.114198
C45   C     C_R   0.402330 0.383244 0.552447 0.540408
C46   C     C_R   0.275131 0.448411 0.613330 -0.127012
C47   C     C_R   0.217979 0.409150 0.834374 -0.113583
C48   C     C_R   0.209441 0.390893 0.877826 -0.125883
C49   C     C_R   0.393753 0.241685 0.878924 -0.120757
C50   C     C_R   0.402092 0.260306 0.835521 -0.113675
C51   C     C_R   0.312871 0.341362 0.812754 0.034855
C52   C     C_1   0.315347 0.347503 0.765970 -0.029218
C53   C     C_1   0.318781 0.349071 0.726491 -0.029351
C54   C     C_R   0.295607 0.303791 0.899703 0.018667
C55   C     C_1   0.760455 0.377516 0.612809 -0.012788
C56   C     C_R   0.712785 0.407942 0.568580 0.546324
C57   C     C_R   0.727352 0.392012 0.727397 -0.104346
C58   C     C_R   0.747945 0.375371 0.773180 -0.106374
C59   C     C_R   0.936548 0.248582 0.760857 -0.104192
C60   C     C_R   0.915964 0.265304 0.715051 -0.106304
C61   C     C_R   0.811426 0.337662 0.698309 0.038357
C62   C     C_R   0.852693 0.303870 0.790020 0.038100
C63   C     C_1   0.877092 0.292287 0.837472 -0.056683
C64   C     C_1   0.788518 0.356962 0.651426 -0.057407
C65   C     C_1   0.905476 0.282307 0.876797 -0.010320
C66   C     C_1   0.375689 0.759284 0.613445 -0.014026
C67   C     C_1   0.366987 0.364588 0.380502 -0.002054
C68   C     C_R   0.284121 0.916453 0.717556 -0.106817
C69   C     C_R   0.270581 0.936995 0.763628 -0.103779
C70   C     C_R   0.404249 0.750434 0.775667 -0.105360
C71   C     C_R   0.417877 0.729909 0.729573 -0.103580
C72   C     C_R   0.357515 0.812722 0.700416 0.037930
C73   C     C_R   0.329992 0.853895 0.792725 0.038636
C74   C     C_1   0.312960 0.876380 0.839862 -0.055189
C75   C     C_1   0.366645 0.788107 0.652804 -0.058226
C76   C     C_1   0.293106 0.903958 0.878610 -0.010036
C77   C     C_R   0.949780 0.273353 0.047988 0.561402
C78   C     C_R   0.234069 0.369616 0.270317 -0.098709
C79   C     C_R   0.275246 0.270155 0.065420 0.550876
C80   C     C_R   0.260499 0.954511 0.048987 0.542199
C81   C     C_R   0.952365 0.269048 0.922076 0.546946
C82   C     C_R   0.276447 0.266323 0.939604 0.541274
C83   C     C_R   0.261475 0.950972 0.922854 0.542118
C84   C     C_R   0.222029 0.365245 0.223433 -0.097564
Cr1   Cr    Cr6+3 0.581000 0.584320 0.508140 1.025792
Cr2   Cr    Cr6+3 0.339110 0.576430 0.496080 1.026189
Cr3   Cr    Cr6+3 0.579910 0.339270 0.495810 1.032619
Cr4   Cr    Cr6+3 0.082090 0.079210 0.982490 1.084514
Cr5   Cr    Cr6+3 0.082460 0.324610 0.994920 1.031296
Cr6   Cr    Cr6+3 0.323630 0.087860 0.996130 1.045729
H1    H     H_    0.165244 0.389088 0.289134 0.114583
H2    H     H_    0.829413 0.163815 0.159903 0.168963
H3    H     H_    0.163590 0.864212 0.089715 0.170241
H4    H     H_    0.197833 0.819902 0.167946 0.132029
H5    H     H_    0.185227 0.842481 0.309885 0.132449
H6    H     H_    0.200929 0.791254 0.386236 0.142205
H7    H     H_    0.526650 0.754891 0.405329 0.133145
H8    H     H_    0.438359 0.927492 0.104475 0.167103
H9    H     H_    0.144311 0.379572 0.206363 0.115692
H10   H     H_    0.509485 0.806017 0.328901 0.142313
H11   H     H_    0.132873 0.440264 0.892973 0.137236
H12   H     H_    0.148741 0.472313 0.816860 0.117262
H13   H     H_    0.189920 0.509424 0.673455 0.116195
H14   H     H_    0.223091 0.522933 0.597185 0.134309
H15   H     H_    0.501273 0.201925 0.599475 0.135457
H16   H     H_    0.476011 0.207843 0.818892 0.116119
H17   H     H_    0.461603 0.174372 0.894981 0.141553
H18   H     H_    0.466628 0.189840 0.675704 0.114706
H19   H     H_    0.646079 0.447953 0.714716 0.105525
H20   H     H_    0.480492 0.299009 0.202321 0.138897
H21   H     H_    0.682809 0.419255 0.795448 0.109854
H22   H     H_    0.018146 0.193831 0.773659 0.104608
H23   H     H_    0.981444 0.222710 0.692874 0.108542
H24   H     H_    0.236429 0.980781 0.695324 0.108225
H25   H     H_    0.212996 0.017396 0.776533 0.105008
H26   H     H_    0.450625 0.685670 0.797824 0.110015
H27   H     H_    0.474256 0.649094 0.716567 0.105660
H28   H     H_    0.501398 0.308462 0.284921 0.151608
H29   H     H_    0.892288 0.448238 0.107624 0.151264
H30   H     H_    0.845504 0.463567 0.184088 0.132244
H31   H     H_    0.841179 0.466982 0.321975 0.120500
H32   H     H_    0.795627 0.504585 0.400201 0.140715
H33   H     H_    0.743122 0.223499 0.388681 0.163146
O1    O     O_R   0.688580 0.499770 0.460490 -0.516072
O2    O     O_R   0.348600 0.476260 0.536540 -0.503590
O3    O     O_R   0.494840 0.313840 0.539010 -0.514702
O4    O     O_R   0.672120 0.351750 0.545910 -0.493433
O5    O     O_3   0.500010 0.500010 0.500010 -0.247062
O6    O     O_R   0.167510 0.972920 0.030390 -0.487539
O7    O     O_R   0.990840 0.178580 0.027590 -0.445830
O8    O     O_R   0.972840 0.345510 0.038590 -0.524762
O9    O     O_R   0.181550 0.320660 0.045200 -0.497154
O10   O     O_R   0.346150 0.177650 0.050510 -0.494161
O11   O     O_R   0.314200 0.996600 0.036060 -0.504704
O12   O     O_R   0.480400 0.672610 0.462660 -0.502844
O13   O     O_R   0.168690 0.969990 0.933130 -0.502119
O14   O     O_R   0.991920 0.175870 0.937430 -0.487344
O15   O     O_R   0.974010 0.342590 0.941330 -0.509023
O16   O     O_R   0.182630 0.317940 0.955040 -0.503964
O17   O     O_R   0.347320 0.174720 0.953250 -0.510099
O18   O     O_R   0.315290 0.993890 0.945900 -0.494420
O19   O     O_3   0.162730 0.163890 0.991180 -0.260118
O20   O     O_R   0.315310 0.685650 0.451800 -0.513633
O21   O     O_R   0.346220 0.474990 0.446280 -0.494849
O22   O     O_R   0.492270 0.312460 0.441630 -0.501736
O23   O     O_R   0.669740 0.350480 0.455640 -0.502210
O24   O     O_R   0.691150 0.501150 0.557860 -0.504575
O25   O     O_R   0.482790 0.673890 0.552920 -0.492761
O26   O     O_R   0.317880 0.687030 0.549170 -0.508519
Br1   Br    Br    0.872225 0.092702 0.066398 -0.487774
Br2   Br    Br    0.783768 0.134272 0.295577 -0.519406
Br3   Br    Br    0.523177 0.889114 0.198135 -0.490598

loop_
_geom_bond_atom_site_label_1
_geom_bond_atom_site_label_2
_ccdc_geom_bond_type
C58   C62   A    
C55   C56   S    
C63   C65   T    
Cr3   O23   S    
C41   C42   A    
C35   C36   A    
Cr1   O25   S    
Cr4   O7    S    
C34   C66   S    
Cr3   O4    S    
Cr2   O21   S    
C49   H17   S    
C81   O14   A    
C26   C27   A    
C29   C30   A    
Cr5   O9    S    
C41   H15   S    
C18   C24   A    
C28   C29   A    
C15   H32   S    
C18   C19   A    
C16   H30   S    
C77   O8    A    
C5    C6    S    
Cr6   O11   S    
C56   O4    A    
C47   H12   S    
C66   C75   T    
Cr5   O19   S    
C80   O11   A    
Cr1   O1    S    
C33   H8    S    
C73   C74   S    
C32   C39   A    
C82   O17   A    
C19   H2    S    
C68   C69   A    
C34   O25   A    
C44   H13   S    
C57   H19   S    
C62   C63   S    
C19   C20   A    
C45   O2    A    
C16   C17   A    
Cr5   O16   S    
C8    C79   S    
C30   H6    S    
C69   C73   A    
C70   C71   A    
C9    C10   A    
C68   C72   A    
C43   C53   S    
C32   H3    S    
C59   C60   A    
C14   H31   S    
C13   C14   A    
Cr2   O2    S    
C1    C25   S    
C60   H23   S    
C40   C45   S    
Cr4   O6    S    
C4    C7    S    
C76   C83   S    
Cr4   O19   S    
Cr3   O5    S    
C23   O23   A    
C34   O26   A    
C44   C46   A    
Cr2   O20   S    
C59   H22   S    
C81   O15   A    
C79   O10   A    
C12   C67   S    
C27   H10   S    
C17   C24   A    
C71   H27   S    
Cr2   O5    S    
C51   C52   S    
Cr4   O13   S    
C10   H33   S    
Cr2   O26   S    
C83   O18   A    
Cr6   O10   S    
C82   O16   A    
C9    C23   S    
C47   C51   A    
C70   H26   S    
C25   C26   A    
C46   H14   S    
C12   O21   A    
C60   C61   A    
C12   O22   A    
C61   C64   S    
C48   C54   A    
C43   C44   A    
C4    C78   A    
C37   C38   T    
C1    O20   A    
C3    H28   S    
C65   C81   S    
C47   C48   A    
C28   C38   S    
C45   O3    A    
C16   C20   A    
C79   O9    A    
C55   C64   T    
C70   C73   A    
C50   C51   A    
C33   C39   A    
C83   O13   A    
Cr6   O19   S    
C74   C76   T    
Cr1   O12   S    
C11   Br2   S    
C40   C41   A    
Cr5   O15   S    
C2    C5    A    
C35   Br3   S    
C40   C46   A    
C3    C4    A    
C54   C82   S    
C52   C53   T    
C29   H5    S    
C25   C30   A    
C5    C84   A    
C69   H25   S    
C59   C62   A    
C80   O6    A    
Cr3   O22   S    
C31   C36   A    
C84   H9    S    
C31   C32   A    
Cr1   O24   S    
C6    C8    T    
C58   H21   S    
C57   C61   A    
C23   O1    A    
C78   H1    S    
C31   H4    S    
Cr5   O8    S    
C39   C80   S    
C56   O24   A    
C2    C3    A    
C9    C15   A    
C71   C72   A    
C18   Br1   S    
C11   C13   A    
C72   C75   S    
C57   C58   A    
C48   H11   S    
C33   C35   A    
C13   C22   S    
C77   O7    A    
Cr4   O14   S    
Cr6   O18   S    
C10   C11   A    
C17   H29   S    
C26   H7    S    
C7    C67   T    
C78   C84   A    
C24   C77   S    
C20   C21   S    
C36   C37   S    
C49   C50   A    
C42   C43   A    
C1    O12   A    
C27   C28   A    
C50   H16   S    
C14   C15   A    
Cr1   O5    S    
Cr6   O17   S    
C21   C22   T    
C42   H18   S    
Cr3   O3    S    
C49   C54   A    
C68   H24   S    
C2    H20   S    
