data_mof_unit_16409.cif
_audit_creation_date              2012-12-11T19:47:10-0500
_audit_creation_method            fapswitch 2.2
_symmetry_space_group_name_H-M    P1
_symmetry_Int_Tables_number       1
_space_group_crystal_system       triclinic
_cell_length_a                    8.367298
_cell_length_b                    15.110766
_cell_length_c                    18.723638
_cell_angle_alpha                 100.976483
_cell_angle_beta                  89.946516
_cell_angle_gamma                 100.009112
_cell_volume                      2287.39931572

loop_
_atom_site_label
_atom_site_type_symbol
_atom_type_description
_atom_site_fract_x
_atom_site_fract_y
_atom_site_fract_z
_atom_type_partial_charge
Ba1   Ba    Ba6+2 0.853520 0.540910 0.466490 1.744120
Ba2   Ba    Ba6+2 0.336320 0.459170 0.533520 1.682709
C1    C     C_3   0.697465 0.869351 0.307054 -0.267019
C2    C     C_3   0.703244 0.775619 0.326974 0.282456
C3    C     C_3   0.391430 0.249302 0.301030 0.308728
C4    C     C_3   0.303924 0.155339 0.261144 -0.395829
C5    C     C_3   0.008746 0.246588 0.728115 0.303545
C6    C     C_3   0.082023 0.262069 0.805396 0.362177
C7    C     C_3   0.581599 0.242057 0.739807 0.528675
C8    C     C_3   0.643431 0.238288 0.815811 -0.246109
C9    C     C_R   0.992012 0.460969 0.049197 0.089083
C10   C     C_R   0.908236 0.405418 0.094523 -0.000988
C11   C     C_R   0.758700 0.437856 0.961483 -0.004505
C12   C     C_3   0.120150 0.746200 0.272577 0.271317
C13   C     C_R   0.923981 0.468595 0.980803 0.005055
C14   C     C_R   0.691989 0.448595 0.895501 -0.052610
C15   C     C_R   0.795578 0.474558 0.839584 -0.054100
C16   C     C_R   0.960443 0.512942 0.860531 0.040579
C17   C     C_R   0.020019 0.515661 0.932900 0.039969
C18   C     C_R   0.746374 0.462591 0.764119 -0.086903
C19   C     C_R   0.861148 0.490570 0.713960 -0.275083
C20   C     C_R   0.018277 0.537196 0.735571 0.065373
C21   C     C_R   0.065730 0.551376 0.810229 -0.012913
C22   C     C_R   0.148911 0.510247 0.073139 0.055795
C23   C     C_3   0.076569 0.781052 0.205055 -0.341619
C24   C     C_R   0.218358 0.505891 0.142631 -0.023112
C25   C     C_R   0.119481 0.458363 0.190571 -0.060463
C26   C     C_R   0.969049 0.405624 0.163704 0.009380
C27   C     C_R   0.215580 0.604252 0.836601 -0.054474
C28   C     C_R   0.267741 0.612676 0.908153 -0.108227
C29   C     C_R   0.174803 0.566248 0.957295 0.058302
C30   C     C_R   0.234125 0.566787 0.028916 -0.063388
C31   C     C_R   0.380317 0.620759 0.056570 -0.121757
C32   C     C_R   0.384891 0.548280 0.162989 -0.146918
C33   C     C_R   0.467993 0.601509 0.113001 0.419370
C34   C     C_3   0.259264 0.753058 0.643093 0.203700
C35   C     C_R   0.448056 0.538081 0.232614 0.105921
C36   C     C_R   0.341116 0.493797 0.279129 -0.165605
C37   C     C_R   0.174881 0.461444 0.262805 0.018910
C38   C     C_R   0.843665 0.175602 0.556051 -0.066461
C39   C     C_R   0.782428 0.080258 0.545156 0.031303
C40   C     C_R   0.651773 0.889165 0.525822 -0.067104
C41   C     C_R   0.796001 0.927942 0.567000 0.038029
C42   C     C_R   0.861743 0.020833 0.575235 0.005006
C43   C     C_R   0.583065 0.794461 0.517745 -0.031892
C44   C     C_R   0.430467 0.762041 0.481674 -0.325817
C45   C     C_3   0.319714 0.853096 0.679203 -0.255321
C46   C     C_R   0.611580 0.196684 0.485463 -0.014239
C47   C     C_R   0.550142 0.102148 0.474830 -0.015295
C48   C     C_R   0.635027 0.043524 0.504553 0.113374
C49   C     C_R   0.401087 0.065424 0.437975 -0.069875
C50   C     C_R   0.334210 0.974266 0.431620 -0.046818
C51   C     C_R   0.416058 0.913922 0.459120 -0.057285
C52   C     C_R   0.570024 0.948163 0.494671 0.022536
C53   C     C_R   0.344774 0.821413 0.454446 0.006031
C54   C     C_R   0.753720 0.232903 0.528405 -0.278803
C55   C     C_3   0.898755 0.242363 0.343326 0.271817
C56   C     C_3   0.985028 0.200906 0.396352 -0.427096
C57   C     C_3   0.788972 0.719376 0.697485 0.271306
C58   C     C_3   0.902851 0.806411 0.734878 -0.228668
H1    H     H_    0.805226 0.779561 0.365411 0.105724
H2    H     H_    0.450167 0.862736 0.695606 0.095639
H3    H     H_    0.253370 0.873068 0.729475 0.167213
H4    H     H_    0.818026 0.285728 0.373509 0.015772
H5    H     H_    0.084350 0.168722 0.370205 0.131580
H6    H     H_    0.900555 0.146580 0.415970 0.076395
H7    H     H_    0.035443 0.256055 0.442464 0.148954
H8    H     H_    0.858833 0.672734 0.662667 -0.022325
H9    H     H_    0.968890 0.839965 0.693303 0.119516
H10   H     H_    0.991811 0.790446 0.772318 0.129299
H11   H     H_    0.832332 0.855364 0.766825 0.150817
H12   H     H_    0.592914 0.757080 0.356683 0.059687
H13   H     H_    0.599396 0.900146 0.336591 0.043617
H14   H     H_    0.305810 0.285717 0.334915 0.012834
H15   H     H_    0.271686 0.107991 0.299286 0.093532
H16   H     H_    0.190959 0.162073 0.233094 0.129325
H17   H     H_    0.383654 0.123536 0.220098 0.143592
H18   H     H_    0.667392 0.861351 0.248209 0.130905
H19   H     H_    0.165225 0.842600 0.198264 0.085303
H20   H     H_    0.985213 0.314136 0.719306 -0.151968
H21   H     H_    0.893283 0.197301 0.723523 -0.007022
H22   H     H_    0.211235 0.293942 0.806574 0.125843
H23   H     H_    0.021536 0.311447 0.842533 -0.064838
H24   H     H_    0.683474 0.263207 0.705134 0.072418
H25   H     H_    0.688450 0.173613 0.816301 0.166641
H26   H     H_    0.545637 0.242997 0.855666 0.193812
H27   H     H_    0.039688 0.679591 0.273047 0.113153
H28   H     H_    0.747170 0.293661 0.833142 -0.009818
H29   H     H_    0.824399 0.480275 0.657169 0.061078
H30   H     H_    0.897646 0.361084 0.194982 0.154410
H31   H     H_    0.296692 0.640099 0.802601 0.126051
H32   H     H_    0.389258 0.483702 0.329799 0.091009
H33   H     H_    0.675338 0.415274 0.001120 0.125612
H34   H     H_    0.794465 0.360280 0.077514 0.086402
H35   H     H_    0.387860 0.651806 0.921255 0.115609
H36   H     H_    0.436583 0.675391 0.030523 0.153863
H37   H     H_    0.858504 0.887702 0.595045 0.129829
H38   H     H_    0.971852 0.046164 0.608236 0.158059
H39   H     H_    0.215368 0.953601 0.406023 0.155494
H40   H     H_    0.328520 0.107073 0.416642 0.101308
H41   H     H_    0.802474 0.305251 0.534749 0.061266
H42   H     H_    0.074182 0.726800 0.155586 0.132962
H43   H     H_    0.956695 0.801864 0.210940 0.205656
H44   H     H_    0.365285 0.723074 0.622335 0.003861
H45   H     H_    0.167405 0.748001 0.598944 0.036763
O1    O     O_2   0.871960 0.437280 0.322960 -0.432730
O2    O     O_3   0.668371 0.745909 0.658728 -0.671092
O3    O     O_3   0.096445 0.811027 0.334471 -0.630929
O4    O     O_2   0.317750 0.562750 0.677090 -0.459391
O5    O     O_3   0.068300 0.555620 0.587560 -0.508088
O6    O     O_3   0.528270 0.392500 0.627460 -0.474320
O7    O     O_3   0.186886 0.707965 0.695899 -0.648734
O8    O     O_3   0.609290 0.386840 0.459690 -0.447987
O9    O     O_3   0.105700 0.342700 0.589730 -0.469418
O10   O     O_2   0.172491 0.179423 0.538674 -0.440156
O11   O     O_3   0.114938 0.210689 0.676812 -0.504539
O12   O     O_3   0.121410 0.444460 0.412450 -0.470267
O13   O     O_3   0.580430 0.613240 0.540320 -0.462506
O14   O     O_2   0.337390 0.273050 0.457610 -0.477166
O15   O     O_3   0.526059 0.236885 0.340712 -0.651584
O16   O     O_2   0.409050 0.461293 0.749569 -0.488909
O17   O     O_3   0.462987 0.298329 0.744562 -0.587465
O18   O     O_3   0.661450 0.607570 0.372550 -0.452680
O19   O     O_2   0.788436 0.546307 0.251627 -0.427731
O20   O     O_3   0.016107 0.291576 0.306088 -0.649734
O21   O     O_3   0.716040 0.709959 0.263570 -0.552293
O22   O     O_2   0.852310 0.726980 0.542430 -0.477113
O23   O     O_3   0.084010 0.657370 0.410280 -0.469899
O24   O     O_2   0.018024 0.822249 0.469477 -0.449183
P1    P     P_3+3 0.039430 0.410940 0.333230 1.019140
P2    P     P_3+3 0.676770 0.715000 0.563590 0.968869
P3    P     P_3+3 0.134617 0.776524 0.416800 1.006132
P4    P     P_3+3 0.150290 0.589140 0.666780 0.972754
P5    P     P_3+3 0.055298 0.225854 0.590794 1.017682
P6    P     P_3+3 0.649944 0.598338 0.278474 1.135922
P7    P     P_3+3 0.518980 0.271650 0.435856 0.944456
P8    P     P_3+3 0.541367 0.404828 0.722558 0.912408
C59   C     C_2   0.299212 0.916132 0.629122 0.543389
H46   H     H_    0.404480 0.953187 0.608629 0.104694
O25   O     O_2   0.164833 0.926722 0.611525 -0.567810
C60   C     C_2   0.800274 0.165561 0.289182 0.620886
H47   H     H_    0.712057 0.114319 0.308345 -0.082229
O26   O     O_2   0.817914 0.159613 0.223776 -0.543029
C61   C     C_2   0.704312 0.668896 0.752711 0.438004
H48   H     H_    0.609076 0.610942 0.733954 0.031699
O27   O     O_2   0.738678 0.691731 0.817818 -0.587951
C62   C     C_2   0.853953 0.935472 0.325457 0.488408
H49   H     H_    0.928698 0.957233 0.282420 0.017392
O28   O     O_2   0.898597 0.964973 0.388846 -0.594186
C63   C     C_2   0.449274 0.304530 0.244249 0.478896
H50   H     H_    0.362275 0.315856 0.205470 -0.061989
O29   O     O_2   0.592732 0.335967 0.240175 -0.560292
S1    S     S_3+6 0.062280 0.158791 0.840855 0.008862
O30   O     O_2   0.218075 0.157550 0.880165 -0.190008
O31   O     O_2   0.928233 0.156381 0.894320 -0.300318
O32   O     O_3   0.022100 0.065641 0.773731 -0.453681
H51   H     H_    0.902310 0.051927 0.767200 0.338532
S2    S     S_3+6 0.489029 0.129190 0.698390 -0.074504
O33   O     O_2   0.615951 0.069242 0.687843 -0.419588
O34   O     O_2   0.361729 0.092295 0.746746 -0.166784
O35   O     O_3   0.402234 0.129591 0.618010 -0.472952
H52   H     H_    0.435875 0.192846 0.609838 0.330622
C64   C     C_2   0.515110 0.444527 0.892952 0.540849
H53   H     H_    0.467649 0.496970 0.872786 0.039965
O36   O     O_2   0.422970 0.387436 0.918448 -0.583523
S3    S     S_3+6 0.677788 0.641368 0.101758 -0.108283
O37   O     O_2   0.716376 0.741668 0.133984 -0.314026
O38   O     O_2   0.790698 0.589897 0.131286 -0.319039
O39   O     O_3   0.710278 0.631582 0.012070 -0.543805
H54   H     H_    0.823769 0.662709 0.008940 0.371122
C65   C     C_2   0.292747 0.733909 0.268288 0.349182
H55   H     H_    0.377428 0.767538 0.233709 0.013466
O40   O     O_2   0.340056 0.686838 0.306399 -0.645112
C66   C     C_2   0.353587 0.665987 0.476200 0.626528
H56   H     H_    0.265003 0.645492 0.514223 -0.026091
O41   O     O_2   0.382380 0.607978 0.426115 -0.543848

loop_
_geom_bond_atom_site_label_1
_geom_bond_atom_site_label_2
_ccdc_geom_bond_type
C5    O11   S    
S3    O38   D    
C65   H55   S    
Ba2   O4    S    
C1    C62   S    
C32   C35   A    
O39   H54   S    
C62   H49   S    
Ba1   O23   S    
C27   H31   S    
O7    P4    S    
C17   C29   A    
C15   C18   A    
C45   H2    S    
Ba1   O18   S    
O35   H52   S    
Ba2   O13   S    
C5    C6    S    
C8    H25   S    
C19   H29   S    
C51   C52   A    
C13   C17   A    
C65   O40   D    
C8    H28   S    
C24   C25   A    
C27   C28   A    
C10   C26   A    
C6    H22   S    
C21   C27   A    
O32   H51   S    
C64   O36   D    
C35   C36   A    
C22   C24   A    
C54   H41   S    
C16   C17   A    
C60   O26   D    
O21   P6    S    
C45   H3    S    
C36   C37   A    
C57   H8    S    
Ba2   O8    S    
C23   H42   S    
O11   P5    S    
C6    H23   S    
C36   H32   S    
C9    C22   A    
C33   S3    S    
C34   C45   S    
O1    P1    D    
C32   C33   A    
O16   P8    D    
C3    H14   S    
C66   H56   S    
O13   P2    S    
S2    O35   S    
C42   H38   S    
O20   P1    S    
C24   C32   A    
C8    H26   S    
C64   H53   S    
C25   C37   A    
C14   C15   A    
C38   C54   A    
O8    P7    S    
C44   C53   A    
C34   O7    S    
C44   C66   S    
S1    O31   D    
C7    C8    S    
Ba1   O1    S    
O24   P3    D    
C12   O3    S    
C57   C58   S    
C19   C20   A    
S2    O34   D    
C10   H34   S    
S3    O37   D    
Ba1   O8    S    
O23   P3    S    
Ba2   O12   S    
C56   H6    S    
C15   C16   A    
O22   P2    D    
C51   C53   A    
C14   C64   S    
Ba2   O6    S    
Ba2   P4    S    
C20   P4    S    
O4    P4    D    
C16   C21   A    
Ba1   O22   S    
C4    H15   S    
C61   O27   D    
Ba1   P1    S    
C38   C39   A    
C23   H43   S    
C4    H17   S    
C3    O15   S    
C58   H11   S    
C47   C49   A    
C43   C44   A    
C38   P5    S    
C2    H1    S    
C57   O2    S    
C3    C63   S    
C49   C50   A    
C11   H33   S    
O15   P7    S    
C40   C43   A    
C18   P8    S    
C41   C42   A    
C22   C30   A    
C28   H35   S    
O12   P1    S    
Ba1   O5    S    
C56   H5    S    
C29   C30   A    
C53   P3    S    
C58   H10   S    
C28   C29   A    
Ba2   O14   S    
C35   P6    S    
C7    O17   S    
O9    P5    S    
Ba1   O12   S    
C12   C65   S    
S1    O32   S    
C6    S1    S    
C59   O25   D    
O2    P2    S    
C46   C47   A    
C5    H21   S    
C57   C61   S    
C43   P2    S    
C9    C13   A    
C11   C13   A    
S2    O33   D    
C39   C42   A    
C63   O29   D    
C40   C41   A    
C1    C2    S    
C31   H36   S    
C39   C48   A    
C2    H12   S    
C50   C51   A    
O6    P8    S    
C55   H4    S    
C49   H40   S    
C46   C54   A    
Ba2   O5    S    
O19   P6    D    
C62   O28   D    
C34   H45   S    
C23   H19   S    
C46   P7    S    
C20   C21   A    
C41   H37   S    
O17   P8    S    
C61   H48   S    
Ba1   P2    S    
C12   H27   S    
C9    C10   A    
C4    H16   S    
O10   P5    D    
C55   C60   S    
C50   H39   S    
O14   P7    D    
C2    O21   S    
C34   H44   S    
C30   C31   A    
C48   C52   A    
C60   H47   S    
C40   C52   A    
C55   O20   S    
Ba2   O9    S    
C55   C56   S    
C3    C4    S    
C58   H9    S    
Ba1   Ba2   S    
C45   C59   S    
C31   C33   A    
Ba1   O13   S    
C12   C23   S    
C1    H13   S    
C66   O41   D    
O3    P3    S    
C59   H46   S    
C7    H24   S    
C56   H7    S    
C18   C19   A    
S3    O39   S    
C47   C48   A    
C11   C14   A    
O18   P6    S    
C25   C26   A    
C63   H50   S    
O5    P4    S    
C26   H30   S    
C37   P1    S    
S1    O30   D    
C1    H18   S    
C7    S2    S    
C5    H20   S    
