data_mof_unit_11594.cif
_audit_creation_date              2012-10-26T18:53:16-0400
_audit_creation_method            fapswitch 2.2
_symmetry_space_group_name_H-M    P1
_symmetry_Int_Tables_number       1
_space_group_crystal_system       triclinic
_cell_length_a                    14.790253
_cell_length_b                    14.764659
_cell_length_c                    15.875261
_cell_angle_alpha                 75.976178
_cell_angle_beta                  103.120804
_cell_angle_gamma                 115.111832
_cell_volume                      3014.92547691

loop_
_atom_site_label
_atom_site_type_symbol
_atom_type_description
_atom_site_fract_x
_atom_site_fract_y
_atom_site_fract_z
_atom_type_partial_charge
C1    C     C_R   0.880415 0.312316 0.513676 0.556602
C2    C     C_R   0.185841 0.795650 0.492856 -0.016887
C3    C     C_R   0.781322 0.026856 0.538354 -0.113268
C4    C     C_R   0.000085 0.500004 0.659584 0.579641
C5    C     C_R   0.848833 0.127806 0.535359 -0.096526
C6    C     C_R   0.708684 0.179146 0.510808 -0.119181
C7    C     C_R   0.639192 0.077963 0.516610 0.037584
C8    C     C_R   0.676971 0.001481 0.528398 0.044781
C9    C     C_R   0.533544 0.051124 0.510196 0.041612
C10   C     C_R   0.466125 0.948019 0.508757 0.046189
C11   C     C_R   0.507039 0.874085 0.520109 -0.123661
C12   C     C_3   0.018623 0.400006 0.074518 0.225467
C13   C     C_R   0.610435 0.900546 0.530317 -0.119690
C14   C     C_R   0.493329 0.123493 0.507827 -0.089302
C15   C     C_R   0.390957 0.095986 0.504256 -0.078851
C16   C     C_R   0.119193 0.687751 0.490068 0.558712
C17   C     C_R   0.324309 0.995995 0.501682 0.001706
C18   C     C_R   0.360211 0.921759 0.500185 0.019009
C19   C     C_R   0.222005 0.969575 0.502868 -0.087353
C20   C     C_R   0.152693 0.869370 0.503062 0.255668
C21   C     C_R   0.288616 0.823835 0.490189 -0.172225
C22   C     C_R   0.704479 0.645487 0.334583 -0.157176
C23   C     C_3   0.995526 0.492309 0.083590 0.062474
C24   C     C_R   0.791323 0.626583 0.367891 0.074698
C25   C     C_R   0.715395 0.511728 0.488969 0.050504
C26   C     C_R   0.623061 0.525258 0.456896 0.006337
C27   C     C_R   0.619832 0.594286 0.378340 0.040078
C28   C     C_R   0.999785 0.499881 0.340352 0.532774
C29   C     C_R   0.534159 0.472041 0.498802 -0.022682
C30   C     C_R   0.446495 0.495782 0.466730 0.022772
C31   C     C_R   0.445513 0.558000 0.383773 -0.129976
C32   C     C_R   0.530704 0.607896 0.341746 -0.122852
C33   C     C_R   0.528888 0.391680 0.568304 -0.110921
C34   C     C_3   0.075482 0.593553 0.043338 -0.249307
C35   C     C_R   0.444280 0.338865 0.610225 0.245881
C36   C     C_R   0.363377 0.371716 0.587766 -0.045726
C37   C     C_R   0.362513 0.451665 0.516799 -0.037351
C38   C     C_R   0.286282 0.328826 0.639266 -0.088854
C39   C     C_R   0.210201 0.364090 0.626818 0.353475
C40   C     C_3   0.014139 0.400762 0.974637 -0.156200
C41   C     C_R   0.280017 0.485175 0.503814 0.218778
C42   C     C_3   0.892227 0.492493 0.930831 0.130013
C43   C     C_3   0.891319 0.485419 0.030050 -0.212243
C44   C     C_1   0.998334 0.497864 0.250829 -0.022011
C45   C     C_3   0.080149 0.590430 0.947685 -0.276958
C46   C     C_3   0.994313 0.493562 0.916978 -0.004371
C47   C     C_1   0.996933 0.495465 0.175526 -0.037868
C48   C     C_1   0.996990 0.496299 0.824788 0.001416
C49   C     C_1   0.999008 0.498336 0.749274 0.066693
C50   C     C_R   0.812501 0.204562 0.520706 0.004667
Cu1   Cu    Cu3+1 0.081750 0.475690 0.522550 1.067475
Cu2   Cu    Cu3+1 0.918250 0.524310 0.477450 1.028283
H1    H     H_    0.086054 0.402812 0.961915 0.131817
H2    H     H_    0.461360 0.794079 0.524907 0.112342
H3    H     H_    0.538739 0.201945 0.512386 0.116501
H4    H     H_    0.196893 0.027310 0.506899 0.174919
H5    H     H_    0.525966 0.656062 0.278777 0.118459
H6    H     H_    0.702643 0.697782 0.273730 0.110770
H7    H     H_    0.855356 0.663123 0.332259 0.159797
H8    H     H_    0.725837 0.462252 0.548980 0.140294
H9    H     H_    0.889143 0.566792 0.896845 0.137301
H10   H     H_    0.378579 0.565084 0.345999 0.111058
H11   H     H_    0.589119 0.365311 0.589292 0.150773
H12   H     H_    0.055228 0.657939 0.043863 0.131486
H13   H     H_    0.288505 0.270901 0.694674 0.240625
H14   H     H_    0.829642 0.415545 0.055833 0.171674
H15   H     H_    0.874448 0.549124 0.038507 0.108678
H16   H     H_    0.154872 0.591966 0.943317 0.145960
H17   H     H_    0.073624 0.659607 0.904276 0.146049
H18   H     H_    0.151296 0.609674 0.082967 0.142364
H19   H     H_    0.943603 0.301564 0.178003 0.249894
H20   H     H_    0.872644 0.286936 0.078535 0.267705
H21   H     H_    0.175953 0.467684 0.088111 0.216247
H22   H     H_    0.129137 0.342744 0.123295 0.261754
H23   H     H_    0.638506 0.841308 0.539841 0.127493
H24   H     H_    0.886272 0.820315 0.437558 0.358994
H25   H     H_    0.349930 0.633454 0.447645 0.201810
H26   H     H_    0.249210 0.557223 0.380275 0.230793
H27   H     H_    0.989022 0.269736 0.745893 0.351586
H28   H     H_    0.346410 0.077353 0.725564 0.386412
H29   H     H_    0.783725 0.257261 0.872222 0.365425
H30   H     H_    0.311256 0.767902 0.479230 0.140539
H31   H     H_    0.363882 0.153633 0.504489 0.149325
H32   H     H_    0.810663 0.968540 0.548241 0.152520
H33   H     H_    0.928969 0.145822 0.543002 0.175734
H34   H     H_    0.683801 0.240462 0.496501 0.123953
H35   H     H_    0.955856 0.329510 0.953923 0.172214
N1    N     N_R   0.795410 0.560790 0.443550 -0.227090
N2    N     N_R   0.204590 0.439170 0.556520 -0.216591
N3    N     N_3   0.945304 0.301971 0.112448 -0.596380
N4    N     N_3   0.119495 0.409410 0.121708 -0.594968
N5    N     N_3   0.278983 0.573967 0.443426 -0.570453
O1    O     O_R   0.977910 0.338120 0.529720 -0.454002
O2    O     O_2   0.025981 0.928634 0.552301 -0.293953
O3    O     O_3   0.950629 0.823369 0.425929 -0.531898
O4    O     O_2   0.162280 0.234855 0.778811 -0.268473
O5    O     O_2   0.177230 0.407051 0.768777 -0.287441
O6    O     O_3   0.015386 0.279581 0.690856 -0.506641
O7    O     O_2   0.533685 0.207929 0.694364 -0.269845
O8    O     O_2   0.455503 0.262566 0.781992 -0.196432
O9    O     O_3   0.338258 0.132837 0.679062 -0.553123
O10   O     O_2   0.688959 0.406982 0.904030 -0.194355
O11   O     O_2   0.773945 0.419726 0.784445 -0.277356
O12   O     O_R   0.839850 0.379180 0.491640 -0.529957
O13   O     O_3   0.772479 0.280007 0.921325 -0.519220
O14   O     O_R   0.069060 0.479460 0.639610 -0.426470
O15   O     O_R   0.931000 0.520530 0.601530 -0.471559
O16   O     O_R   0.160150 0.620820 0.508360 -0.488269
O17   O     O_R   0.022090 0.661880 0.470280 -0.428598
O18   O     O_R   0.069000 0.479470 0.398470 -0.498142
O19   O     O_R   0.930940 0.520540 0.360390 -0.517908
O20   O     O_2   0.994072 0.748079 0.588713 -0.254653
S1    S     S_3+6 0.028691 0.841657 0.520894 0.021836
S2    S     S_3+6 0.141021 0.321277 0.718095 0.049733
S3    S     S_3+6 0.446225 0.234554 0.694566 0.014936
S4    S     S_3+6 0.778831 0.398843 0.882576 0.022157

loop_
_geom_bond_atom_site_label_1
_geom_bond_atom_site_label_2
_ccdc_geom_bond_type
C19   H4    S    
C41   N2    A    
H25   N5    S    
C8    C13   A    
C18   C21   A    
O13   S4    S    
C19   C20   A    
C7    C8    A    
C45   H17   S    
C45   C46   S    
C40   C46   S    
C12   C23   S    
C26   C27   A    
C40   H35   S    
C12   N3    S    
C36   C37   A    
C10   C18   A    
Cu1   O14   S    
H24   O3    S    
O7    S3    D    
C38   C39   A    
O6    S2    S    
C29   C33   A    
C23   C43   S    
C15   C17   A    
C42   C46   S    
H27   O6    S    
C33   C35   A    
C24   H7    S    
C13   H23   S    
Cu2   O15   S    
Cu1   O16   S    
C35   S3    S    
C25   H8    S    
C2    C16   S    
C9    C10   A    
C34   H18   S    
C44   C47   T    
C5    H33   S    
C39   S2    S    
C14   H3    S    
C31   H10   S    
O4    S2    D    
O8    S3    D    
C32   H5    S    
C2    C21   A    
O20   S1    D    
O2    S1    D    
C16   O17   A    
H29   O13   S    
C28   O19   A    
C4    O15   A    
C46   C48   S    
C23   C47   S    
C2    C20   A    
Cu1   Cu2   S    
Cu2   N1    S    
H21   N4    S    
C3    C8    A    
C15   H31   S    
Cu2   O19   S    
H26   N5    S    
C25   C26   A    
C4    O14   A    
C28   C44   S    
C25   N1    A    
C30   C37   A    
C35   C36   A    
H22   N4    S    
C12   C40   S    
C9    C14   A    
C43   H15   S    
C29   C30   A    
H20   N3    S    
C31   C32   A    
C42   H9    S    
C38   H13   S    
C33   H11   S    
C23   C34   S    
C45   H16   S    
C34   H12   S    
C17   C18   A    
C12   N4    S    
C34   C45   S    
C6    C50   A    
C24   N1    A    
C1    O12   A    
C11   H2    S    
Cu1   O1    S    
C42   S4    S    
C48   C49   T    
Cu1   O18   S    
C22   C27   A    
O9    S3    S    
C22   C24   A    
C5    C50   A    
C42   C43   S    
C1    C50   S    
C7    C9    A    
Cu2   O12   S    
C27   C32   A    
C3    C5    A    
C22   H6    S    
C6    C7    A    
H28   O9    S    
C6    H34   S    
C4    C49   S    
C28   O18   A    
C36   C38   A    
O11   S4    D    
Cu1   N2    S    
C11   C13   A    
C30   C31   A    
H19   N3    S    
Cu2   O17   S    
O3    S1    S    
C43   H14   S    
C17   C19   A    
C37   C41   A    
C20   S1    S    
O10   S4    D    
C10   C11   A    
C16   O16   A    
C41   N5    S    
C21   H30   S    
C26   C29   A    
C1    O1    A    
C40   H1    S    
C3    H32   S    
C14   C15   A    
O5    S2    D    
C39   N2    A    
