data_mof_unit_55350.cif
_audit_creation_date              2012-12-10T17:40:24-0500
_audit_creation_method            fapswitch 2.2
_symmetry_space_group_name_H-M    P1
_symmetry_Int_Tables_number       1
_space_group_crystal_system       triclinic
_cell_length_a                    13.700195
_cell_length_b                    15.086573
_cell_length_c                    15.841314
_cell_angle_alpha                 89.983077
_cell_angle_beta                  70.265095
_cell_angle_gamma                 90.069697
_cell_volume                      3081.91048684

loop_
_atom_site_label
_atom_site_type_symbol
_atom_type_description
_atom_site_fract_x
_atom_site_fract_y
_atom_site_fract_z
_atom_type_partial_charge
C1    C     C_R   0.500156 0.671487 0.499676 0.818436
C2    C     C_R   0.500201 0.768286 0.499330 -0.101102
C3    C     C_R   0.416076 0.185330 0.490744 -0.187873
C4    C     C_R   0.583525 0.814672 0.510113 -0.194290
C5    C     C_R   0.415820 0.093122 0.490428 0.049219
C6    C     C_R   0.583544 0.906883 0.510877 0.073911
C7    C     C_R   0.500042 0.046495 0.501196 0.017236
C8    C     C_R   0.499210 0.953513 0.500328 0.014260
C9    C     C_R   0.584859 0.092918 0.512760 0.003411
C10   C     C_R   0.414379 0.907091 0.488793 -0.018244
C11   C     C_R   0.332302 0.047410 0.479059 -0.250672
C12   C     C_R   0.499788 0.328515 0.500464 0.813674
C13   C     C_R   0.666954 0.952591 0.522440 -0.283053
C14   C     C_R   0.330295 0.954874 0.477995 0.431987
C15   C     C_R   0.668761 0.045129 0.523901 0.395152
C16   C     C_R   0.437310 0.499441 0.672297 0.811106
C17   C     C_R   0.562653 0.500109 0.327730 0.815818
C18   C     C_R   0.221781 0.568817 0.461189 0.160482
C19   C     C_R   0.778419 0.430995 0.538372 0.130566
C20   C     C_R   0.190928 0.431845 0.539815 0.020139
C21   C     C_R   0.809040 0.568209 0.460248 0.018128
C22   C     C_R   0.087686 0.430013 0.540409 -0.016536
C23   C     C_R   0.370322 0.505733 0.094138 0.376500
C24   C     C_R   0.912378 0.569947 0.459440 -0.010967
C25   C     C_R   0.051748 0.500099 0.500115 0.071223
C26   C     C_R   0.948365 0.499822 0.499642 0.082367
C27   C     C_R   0.119128 0.570457 0.460302 -0.009000
C28   C     C_R   0.881028 0.429411 0.539352 -0.000336
C29   C     C_R   0.019824 0.360022 0.580147 -0.160894
C30   C     C_R   0.980271 0.639895 0.419619 -0.183161
C31   C     C_R   0.917462 0.359700 0.579561 -0.056712
C32   C     C_R   0.082695 0.640141 0.420061 -0.057784
C33   C     C_R   0.400238 0.493282 0.770451 -0.077560
C34   C     C_R   0.627375 0.486294 0.906860 0.422171
C35   C     C_R   0.599450 0.504709 0.229555 -0.078892
C36   C     C_R   0.266205 0.461599 0.911801 -0.142840
C37   C     C_R   0.732505 0.535294 0.087481 -0.138951
C38   C     C_R   0.297906 0.469012 0.818778 -0.176460
C39   C     C_R   0.701322 0.529601 0.180593 -0.176150
C40   C     C_R   0.470339 0.507417 0.815920 -0.106468
C41   C     C_R   0.529328 0.488081 0.184637 -0.111213
C42   C     C_R   0.443854 0.488532 0.907504 0.121682
C43   C     C_R   0.554741 0.505897 0.093017 0.104492
C44   C     C_R   0.337996 0.473678 0.956524 0.093045
C45   C     C_R   0.303007 0.480448 0.049282 -0.265225
C46   C     C_R   0.660443 0.521246 0.043370 0.076149
C47   C     C_R   0.517722 0.491669 0.952699 -0.105637
C48   C     C_R   0.480303 0.501386 0.048323 -0.096801
C49   C     C_R   0.695142 0.512665 0.950769 -0.248765
C50   C     C_R   0.582989 0.185753 0.512548 -0.153138
C51   C     C_R   0.416518 0.814264 0.488492 -0.138891
C52   C     C_R   0.499516 0.231721 0.501303 -0.099032
Cu1   Cu    Cu3+1 0.402580 0.500010 0.499990 0.988680
Cu2   Cu    Cu3+1 0.597420 0.499990 0.500010 0.977446
H1    H     H_    0.220356 0.477079 0.085800 0.174890
H2    H     H_    0.133445 0.694717 0.388758 0.212501
H3    H     H_    0.455608 0.458964 0.221620 0.208410
H4    H     H_    0.544960 0.535378 0.779454 0.198160
H5    H     H_    0.757139 0.542546 0.213882 0.160169
H6    H     H_    0.242125 0.457762 0.785080 0.161706
H7    H     H_    0.185285 0.448202 0.948906 0.145611
H8    H     H_    0.813198 0.549033 0.049859 0.145656
H9    H     H_    0.646016 0.223378 0.521161 0.208835
H10   H     H_    0.353620 0.776655 0.479622 0.213244
H11   H     H_    0.351403 0.220979 0.482069 0.157944
H12   H     H_    0.777749 0.515293 0.913907 0.189162
H13   H     H_    0.648309 0.779015 0.518571 0.155961
H14   H     H_    0.268450 0.084433 0.470762 0.208259
H15   H     H_    0.730894 0.915542 0.530518 0.181923
H16   H     H_    0.209974 0.450936 0.268481 0.349779
H17   H     H_    0.646116 0.325979 0.727034 0.377905
H18   H     H_    0.078789 0.942148 0.444009 0.400567
H19   H     H_    0.832370 0.001172 0.614252 0.360472
H20   H     H_    0.274624 0.621989 0.429727 0.163877
H21   H     H_    0.725822 0.377531 0.569216 0.133606
H22   H     H_    0.219147 0.378733 0.571284 0.129493
H23   H     H_    0.780759 0.621397 0.428921 0.129559
H24   H     H_    0.045910 0.305496 0.611609 0.160621
H25   H     H_    0.954163 0.694445 0.388205 0.156740
H26   H     H_    0.866726 0.305101 0.610813 0.204394
N1    N     N_R   0.256170 0.500070 0.500040 -0.196503
N2    N     N_R   0.743830 0.499930 0.499960 -0.193640
O1    O     O_R   0.417730 0.629750 0.499970 -0.593960
O2    O     O_2   0.215303 0.609263 0.195496 -0.286644
O3    O     O_3   0.268253 0.481569 0.279937 -0.564948
O4    O     O_2   0.727607 0.495154 0.729848 -0.334350
O5    O     O_2   0.777008 0.375994 0.811361 -0.281444
O6    O     O_3   0.603795 0.358683 0.781186 -0.525835
O7    O     O_2   0.258242 0.846960 0.378443 -0.294567
O8    O     O_2   0.169781 0.843147 0.541256 -0.309515
O9    O     O_3   0.135798 0.977450 0.452471 -0.491360
O10   O     O_2   0.830317 0.155838 0.460895 -0.264847
O11   O     O_2   0.740255 0.154782 0.623015 -0.332014
O12   O     O_R   0.582270 0.370250 0.500030 -0.595529
O13   O     O_3   0.862582 0.023192 0.551873 -0.490671
O14   O     O_R   0.582270 0.629730 0.499980 -0.595357
O15   O     O_R   0.417730 0.370270 0.500020 -0.594366
O16   O     O_R   0.371590 0.500020 0.629830 -0.588259
O17   O     O_R   0.628410 0.499980 0.370170 -0.588884
O18   O     O_R   0.536130 0.499990 0.629840 -0.554004
O19   O     O_R   0.463870 0.500010 0.370160 -0.540978
O20   O     O_2   0.379927 0.623336 0.221485 -0.252894
S1    S     S_3+6 0.308531 0.558939 0.199073 -0.021607
S2    S     S_3+6 0.687044 0.428773 0.804261 -0.026297
S3    S     S_3+6 0.221798 0.902124 0.462287 -0.008024
S4    S     S_3+6 0.776864 0.097927 0.540335 -0.003579

loop_
_geom_bond_atom_site_label_1
_geom_bond_atom_site_label_2
_ccdc_geom_bond_type
C8    C10   A    
C23   C45   A    
C22   C29   A    
O9    S3    S    
C2    C4    A    
O4    S2    D    
C37   H8    S    
C7    C8    A    
Cu1   Cu2   S    
C44   C45   A    
C46   C49   A    
C15   S4    S    
C24   C26   A    
C5    C11   A    
C16   C33   S    
C11   C14   A    
C18   N1    A    
C20   H22   S    
Cu1   N1    S    
C1    C2    S    
C17   O19   A    
O6    S2    S    
C14   S3    S    
C23   S1    S    
C29   H24   S    
Cu1   O19   S    
C22   C25   A    
C50   C52   A    
C19   N2    A    
C43   C48   A    
Cu2   O14   S    
O3    S1    S    
C40   C42   A    
C18   H20   S    
C20   N1    A    
C50   H9    S    
C41   C43   A    
C12   O12   A    
C3    H11   S    
C42   C44   A    
C10   C51   A    
C12   C52   S    
C33   C40   A    
C40   H4    S    
C49   H12   S    
C18   C27   A    
C31   H26   S    
C4    C6    A    
C10   C14   A    
C5    C7    A    
H18   O9    S    
C16   O18   A    
C6    C8    A    
Cu1   O15   S    
C25   C26   A    
C34   S2    S    
H17   O6    S    
C35   C39   A    
O13   S4    S    
O11   S4    D    
C9    C50   A    
C47   C48   A    
C39   H5    S    
C19   C28   A    
C17   O17   A    
C12   O15   A    
C38   H6    S    
C30   H25   S    
O10   S4    D    
C20   C22   A    
C13   C15   A    
Cu2   O17   S    
C36   C44   A    
C1    O1    A    
H19   O13   S    
C21   H23   S    
C36   H7    S    
Cu2   N2    S    
C11   H14   S    
C7    C9    A    
C34   C49   A    
C23   C48   A    
C27   C32   A    
C28   C31   A    
C51   H10   S    
O8    S3    D    
C3    C5    A    
C4    H13   S    
C3    C52   A    
Cu1   O16   S    
C25   C27   A    
C26   C28   A    
C33   C38   A    
Cu1   O1    S    
C19   H21   S    
C9    C15   A    
C41   H3    S    
C29   C31   A    
C6    C13   A    
C30   C32   A    
C16   O16   A    
C13   H15   S    
C1    O14   A    
C36   C38   A    
Cu2   O18   S    
C42   C47   A    
O20   S1    D    
C35   C41   A    
C43   C46   A    
C24   C30   A    
Cu2   O12   S    
C2    C51   A    
O5    S2    D    
C21   N2    A    
C45   H1    S    
C37   C39   A    
C21   C24   A    
O7    S3    D    
O2    S1    D    
C34   C47   A    
C17   C35   S    
C37   C46   A    
H16   O3    S    
C32   H2    S    
