data_mof_unit_36114.cif
_audit_creation_date              2012-10-26T21:20:57-0400
_audit_creation_method            fapswitch 2.2
_symmetry_space_group_name_H-M    P1
_symmetry_Int_Tables_number       1
_space_group_crystal_system       triclinic
_cell_length_a                    10.799557
_cell_length_b                    10.901817
_cell_length_c                    9.732169
_cell_angle_alpha                 90.221544
_cell_angle_beta                  88.998214
_cell_angle_gamma                 89.366705
_cell_volume                      1145.56034999

loop_
_atom_site_label
_atom_site_type_symbol
_atom_type_description
_atom_site_fract_x
_atom_site_fract_y
_atom_site_fract_z
_atom_type_partial_charge
C1    C     C_R   0.512493 0.265822 0.499259 0.591163
C2    C     C_2   0.554240 0.137301 0.498389 0.041857
C3    C     C_2   0.412651 0.450479 0.925986 0.080951
C4    C     C_R   0.262669 0.502453 0.501037 0.541943
C5    C     C_2   0.406378 0.466503 0.079919 -0.003469
C6    C     C_R   0.495410 0.735127 0.500806 0.534383
C7    C     C_R   0.737219 0.500153 0.498760 0.533760
C8    C     C_R   0.121215 0.699407 0.637095 -0.094830
C9    C     C_R   0.052922 0.793632 0.700453 -0.110309
C10   C     C_R   0.924562 0.795285 0.694150 -0.129248
C11   C     C_R   0.863707 0.701664 0.626059 -0.109666
C12   C     C_R   0.061505 0.602315 0.569562 0.013139
C13   C     C_R   0.930905 0.602575 0.564974 0.014908
C14   C     C_3   0.636404 0.098467 0.615906 -0.425028
C15   C     C_3   0.307109 0.378874 0.867737 -0.327499
C16   C     C_3   0.878325 0.309008 0.351924 -0.383555
C17   C     C_3   0.409431 0.905076 0.723198 -0.004926
C18   C     C_3   0.343870 0.005083 0.807682 -0.391128
C19   C     C_3   0.559852 0.073436 0.153676 -0.015721
C20   C     C_3   0.551399 0.170034 0.042263 -0.354663
C21   C     C_R   0.128729 0.507014 0.502598 -0.017061
C22   C     C_R   0.068310 0.415226 0.430641 -0.133183
C23   C     C_R   0.939898 0.412762 0.427094 -0.031137
C24   C     C_R   0.871093 0.505712 0.496190 0.018609
C25   C     C_2   0.548543 0.929403 0.402053 -0.101824
C26   C     C_2   0.486649 0.869275 0.501301 0.229900
C27   C     C_2   0.535459 0.063545 0.388378 0.286309
Cu1   Cu    Cu3+1 0.500020 0.500020 0.638630 0.890284
Cu2   Cu    Cu3+1 0.499980 0.499980 0.361370 0.940691
H1    H     H_    0.122292 0.343894 0.378625 0.130672
H2    H     H_    0.715565 0.162195 0.622215 0.117825
H3    H     H_    0.584675 0.104271 0.714406 0.143488
H4    H     H_    0.676427 0.004865 0.603946 0.102997
H5    H     H_    0.230943 0.442441 0.839239 0.147545
H6    H     H_    0.336536 0.320937 0.779913 0.187235
H7    H     H_    0.268578 0.314973 0.945739 0.066079
H8    H     H_    0.827162 0.345298 0.262640 0.153255
H9    H     H_    0.946792 0.240091 0.312498 0.119115
H10   H     H_    0.813002 0.261179 0.422106 0.125385
H11   H     H_    0.507834 0.899418 0.755412 0.120562
H12   H     H_    0.562307 0.554187 0.892725 0.195181
H13   H     H_    0.363237 0.817438 0.747605 0.155459
H14   H     H_    0.245553 0.013346 0.778144 0.154186
H15   H     H_    0.348307 0.982748 0.918709 0.103589
H16   H     H_    0.387525 0.095114 0.789700 0.148969
H17   H     H_    0.524017 0.985371 0.113285 0.134476
H18   H     H_    0.660073 0.061879 0.177858 0.103787
H19   H     H_    0.590107 0.257682 0.079710 0.170134
H20   H     H_    0.605635 0.139522 0.950384 0.082293
H21   H     H_    0.453375 0.184782 0.013969 0.158352
H22   H     H_    0.320705 0.442944 0.132689 0.157248
H23   H     H_    0.582405 0.511493 0.103859 0.196909
H24   H     H_    0.220678 0.704136 0.639953 0.141376
H25   H     H_    0.099560 0.866403 0.753396 0.111797
H26   H     H_    0.871934 0.869936 0.741156 0.101929
H27   H     H_    0.764079 0.709252 0.620464 0.128293
H28   H     H_    0.606788 0.879900 0.327884 0.062915
N1    N     N_2   0.498640 0.498660 0.846910 -0.337942
N2    N     N_2   0.498610 0.498630 0.153040 -0.363358
O1    O     O_R   0.500020 0.321960 0.617040 -0.516082
O2    O     O_3   0.487079 0.111713 0.268529 -0.530888
O3    O     O_R   0.499980 0.321920 0.382900 -0.440799
O4    O     O_R   0.319670 0.500020 0.617100 -0.514725
O5    O     O_R   0.319630 0.499980 0.382950 -0.494457
O6    O     O_R   0.500020 0.678080 0.617100 -0.530335
O7    O     O_R   0.499980 0.678040 0.382960 -0.497444
O8    O     O_R   0.680370 0.500020 0.617050 -0.505325
O9    O     O_R   0.680330 0.499980 0.382900 -0.510394
O10   O     O_3   0.398779 0.932675 0.582077 -0.563950

loop_
_geom_bond_atom_site_label_1
_geom_bond_atom_site_label_2
_ccdc_geom_bond_type
C8    H24   S    
C23   C24   A    
C3    N1    D    
C17   O10   S    
C2    C27   D    
C4    C21   S    
H23   N2    S    
Cu1   N1    S    
C25   C27   S    
Cu2   O9    S    
C22   H1    S    
C9    C10   A    
C4    O5    A    
C15   H5    S    
C19   C20   S    
C16   H8    S    
C8    C12   A    
C1    O3    A    
C14   H4    S    
Cu1   O6    S    
C7    O9    A    
Cu2   O5    S    
C18   H16   S    
C6    C26   S    
C21   C22   A    
C10   H26   S    
C11   C13   A    
C4    O4    A    
C20   H20   S    
C25   H28   S    
C19   O2    S    
C15   H6    S    
Cu1   Cu2   S    
C6    O6    A    
H12   N1    S    
C17   C18   S    
C16   C23   S    
C18   H15   S    
Cu1   O1    S    
C2    C14   S    
C19   H18   S    
C19   H17   S    
C10   C11   A    
C5    N2    D    
C16   H10   S    
C7    O8    A    
C7    C24   S    
Cu1   O4    S    
C15   H7    S    
C6    O7    A    
Cu1   O8    S    
C3    C15   S    
C12   C13   A    
Cu2   O7    S    
C1    C2    S    
C1    O1    A    
C18   H14   S    
C26   O10   S    
C14   H2    S    
C17   H13   S    
C5    H22   S    
C20   H21   S    
C9    H25   S    
C20   H19   S    
C16   H9    S    
C25   C26   D    
Cu2   O3    S    
C12   C21   A    
C22   C23   A    
C11   H27   S    
Cu2   N2    S    
C13   C24   A    
C14   H3    S    
C8    C9    A    
C3    C5    S    
C17   H11   S    
C27   O2    S    
