data_mof_unit_31533.cif
_audit_creation_date              2012-12-10T19:02:45-0500
_audit_creation_method            fapswitch 2.2
_symmetry_space_group_name_H-M    P1
_symmetry_Int_Tables_number       1
_space_group_crystal_system       triclinic
_cell_length_a                    9.548873
_cell_length_b                    10.866309
_cell_length_c                    13.871781
_cell_angle_alpha                 90.178888
_cell_angle_beta                  84.633617
_cell_angle_gamma                 89.919144
_cell_volume                      1433.03219329

loop_
_atom_site_label
_atom_site_type_symbol
_atom_type_description
_atom_site_fract_x
_atom_site_fract_y
_atom_site_fract_z
_atom_type_partial_charge
C1    C     C_R   0.500088 0.737302 0.499998 0.805458
C2    C     C_1   0.462753 0.499059 0.786323 -0.194111
C3    C     C_R   0.379099 0.938217 0.499412 0.129655
C4    C     C_R   0.501873 0.869927 0.499464 -0.103513
C5    C     C_R   0.629754 0.935267 0.498741 -0.221634
C6    C     C_R   0.629864 0.064385 0.498396 -0.220107
C7    C     C_R   0.502092 0.130084 0.498843 -0.102075
C8    C     C_R   0.379218 0.062146 0.498941 0.133603
C9    C     C_3   0.223356 0.071205 0.500335 -0.472686
C10   C     C_3   0.223255 0.929582 0.500847 -0.455370
C11   C     C_R   0.933851 0.415901 0.445938 0.174277
C12   C     C_R   0.477018 0.499955 0.683033 0.817906
C13   C     C_R   0.916796 0.574971 0.560150 -0.182731
C14   C     C_R   0.066434 0.573123 0.562614 0.518625
C15   C     C_R   0.081182 0.416961 0.445159 0.161590
C16   C     C_3   0.101233 0.403660 0.337782 0.252541
C17   C     C_3   0.941842 0.399951 0.338677 -0.547848
C18   C     C_R   0.500281 0.262704 0.499576 0.806538
C19   C     C_R   0.522958 0.499792 0.316984 0.822116
C20   C     C_1   0.537116 0.499622 0.213733 -0.194016
C21   C     C_2   0.557874 0.499621 0.023060 -0.153806
C22   C     C_2   0.441398 0.496878 0.977038 -0.168500
C23   C     C_1   0.451773 0.498064 0.873280 -0.003971
C24   C     C_1   0.547746 0.499527 0.126790 -0.015945
Cu1   Cu    Cu3+1 0.359330 0.500020 0.500000 0.988807
Cu2   Cu    Cu3+1 0.640670 0.499980 0.500000 0.942983
H1    H     H_    0.337943 0.494062 0.016950 0.138431
H2    H     H_    0.151260 0.486485 0.301973 0.089991
H3    H     H_    0.899487 0.480216 0.301267 0.184248
H4    H     H_    0.899927 0.309200 0.317905 0.208940
H5    H     H_    0.661294 0.502505 0.983116 0.152134
H6    H     H_    0.729354 0.887414 0.498632 0.169907
H7    H     H_    0.729514 0.111961 0.498043 0.172155
H8    H     H_    0.174055 0.112917 0.568539 0.196372
H9    H     H_    0.189828 0.110845 0.432543 0.254116
H10   H     H_    0.173857 0.890061 0.569445 0.239299
H11   H     H_    0.189822 0.887908 0.433413 0.200408
H12   H     H_    0.853094 0.638593 0.605479 0.160817
N1    N     N_R   0.852140 0.499070 0.499400 -0.199767
N2    N     N_R   0.148050 0.499110 0.499400 -0.255751
O1    O     O_R   0.381190 0.680360 0.500000 -0.538799
O2    O     O_R   0.618770 0.680320 0.499990 -0.593455
O3    O     O_R   0.364410 0.500000 0.637850 -0.555474
O4    O     O_R   0.602000 0.499960 0.637840 -0.576540
O5    O     O_R   0.381230 0.319680 0.500010 -0.562422
O6    O     O_R   0.618810 0.319640 0.500000 -0.583580
O7    O     O_R   0.398000 0.500040 0.362160 -0.579118
O8    O     O_R   0.635590 0.500000 0.362150 -0.573683
O9    O     O_3   0.132537 0.654219 0.620861 -0.560871
C25   C     C_3   0.078200 0.645853 0.719282 0.059046
H13   H     H_    0.166705 0.623995 0.762915 0.179203
H14   H     H_    0.998228 0.572126 0.735389 0.111905
C26   C     C_3   0.016905 0.769560 0.753712 -0.859774
H15   H     H_    0.930230 0.796752 0.710146 0.240131
H16   H     H_    0.975089 0.763187 0.830957 0.215468
H17   H     H_    0.099903 0.841309 0.746533 0.250180
O10   O     O_3   0.165941 0.289897 0.312127 -0.564671
C27   C     C_3   0.201040 0.285589 0.211157 0.072912
H18   H     H_    0.274385 0.361405 0.187233 0.146055
H19   H     H_    0.104764 0.291902 0.171894 0.139865
C28   C     C_3   0.274305 0.164100 0.184916 -0.789566
H20   H     H_    0.203311 0.086130 0.206728 0.242881
H21   H     H_    0.302984 0.159531 0.105536 0.202288
H22   H     H_    0.371498 0.156135 0.222693 0.248930

loop_
_geom_bond_atom_site_label_1
_geom_bond_atom_site_label_2
_ccdc_geom_bond_type
C16   H2    S    
C28   H22   S    
C25   H14   S    
C26   H15   S    
C6    C7    A    
C17   H3    S    
C9    C10   S    
Cu1   O7    S    
C19   C20   S    
C6    H7    S    
Cu2   O8    S    
C22   H1    S    
C7    C18   S    
C2    C12   S    
Cu1   O3    S    
C27   C28   S    
C25   H13   S    
C13   H12   S    
C21   C24   S    
Cu2   O4    S    
C7    C8    A    
C12   O4    A    
C3    C10   S    
C13   C14   A    
C11   N1    A    
C17   H4    S    
C21   H5    S    
O10   C27   S    
C9    H8    S    
C10   H11   S    
C5    C6    A    
C18   O6    A    
C1    O1    A    
C14   N2    A    
C3    C8    A    
C12   O3    A    
C22   C23   S    
C16   O10   S    
C26   H16   S    
Cu1   N2    S    
C28   H20   S    
C15   N2    A    
C19   O7    A    
Cu2   N1    S    
C13   N1    A    
C1    C4    S    
C16   C17   S    
Cu2   O6    S    
C27   H19   S    
C15   C16   S    
C14   O9    S    
C18   O5    A    
Cu1   O5    S    
C1    O2    A    
Cu2   O2    S    
C8    C9    S    
C9    H9    S    
O9    C25   S    
C26   H17   S    
Cu1   O1    S    
C2    C23   T    
C28   H21   S    
C20   C24   T    
C19   O8    A    
C4    C5    A    
C10   H10   S    
Cu1   Cu2   S    
C21   C22   D    
C27   H18   S    
C11   C15   A    
C5    H6    S    
C11   C17   S    
C3    C4    A    
C25   C26   S    
