data_mof_unit_24689.cif
_audit_creation_date              2012-12-10T19:10:33-0500
_audit_creation_method            fapswitch 2.2
_symmetry_space_group_name_H-M    P1
_symmetry_Int_Tables_number       1
_space_group_crystal_system       triclinic
_cell_length_a                    11.026193
_cell_length_b                    9.894231
_cell_length_c                    15.701202
_cell_angle_alpha                 89.213851
_cell_angle_beta                  89.130916
_cell_angle_gamma                 87.130088
_cell_volume                      1710.44436531

loop_
_atom_site_label
_atom_site_type_symbol
_atom_type_description
_atom_site_fract_x
_atom_site_fract_y
_atom_site_fract_z
_atom_type_partial_charge
C1    C     C_R   0.257639 0.503103 0.502767 0.947769
C2    C     C_3   0.926917 0.410538 0.565998 -0.446613
C3    C     C_3   0.086783 0.443541 0.412816 -0.439320
C4    C     C_3   0.120930 0.506848 0.499021 -0.230882
C5    C     C_3   0.880480 0.492365 0.487538 -0.194085
C6    C     C_R   0.497485 0.501026 0.338722 0.972124
C7    C     C_3   0.946929 0.433633 0.401262 0.703875
C8    C     C_3   0.382639 0.086673 0.468718 -0.235976
C9    C     C_3   0.377318 0.926625 0.485515 -0.177374
C10   C     C_3   0.599914 0.075092 0.444826 -0.099495
C11   C     C_3   0.570774 0.924750 0.425735 -0.151825
C12   C     C_3   0.623457 0.529873 0.950085 -0.338588
C13   C     C_3   0.512200 0.077186 0.586287 -0.244186
C14   C     C_3   0.537114 0.916685 0.581796 -0.263935
C15   C     C_R   0.742378 0.496928 0.491692 0.967725
C16   C     C_R   0.500685 0.499051 0.661251 0.931355
C17   C     C_3   0.407233 0.616793 0.047770 -0.437993
C18   C     C_3   0.453538 0.363491 0.053038 -0.415934
C19   C     C_3   0.460477 0.355810 0.954419 0.202139
C20   C     C_3   0.397332 0.603740 0.949996 0.201098
C21   C     C_1   0.499790 0.496532 0.750130 -0.059573
C22   C     C_3   0.494384 0.502502 0.082860 0.156167
C23   C     C_3   0.624049 0.524330 0.048183 -0.361853
C24   C     C_3   0.496362 0.496336 0.917109 0.051649
C25   C     C_1   0.716309 0.075128 0.491262 0.309647
C26   C     C_1   0.672165 0.847209 0.388459 0.262917
C27   C     C_1   0.498351 0.494909 0.825538 0.044074
C28   C     C_1   0.494188 0.504456 0.174359 -0.016539
C29   C     C_1   0.495153 0.503419 0.249765 -0.070442
C30   C     C_3   0.057942 0.652876 0.501834 0.220391
C31   C     C_3   0.062539 0.432760 0.580207 0.302880
C32   C     C_3   0.919678 0.639989 0.503529 -0.503675
H1    H     H_    0.306545 0.564423 0.937232 0.090229
H2    H     H_    0.320717 0.906525 0.543056 0.223274
H3    H     H_    0.607092 0.132407 0.384006 0.188081
H4    H     H_    0.513710 0.931263 0.367380 0.122962
H5    H     H_    0.585115 0.124131 0.621978 0.194142
H6    H     H_    0.634167 0.887689 0.593209 0.173132
H7    H     H_    0.428527 0.100062 0.625084 0.192255
H8    H     H_    0.485990 0.869156 0.634859 0.211249
H9    H     H_    0.315425 0.610797 0.077719 0.180791
H10   H     H_    0.358460 0.349244 0.074987 0.174911
H11   H     H_    0.510894 0.280991 0.083344 0.237991
H12   H     H_    0.368244 0.335289 0.931341 0.095554
H13   H     H_    0.441970 0.716550 0.064661 0.248276
H14   H     H_    0.657966 0.620279 0.072772 0.205528
H15   H     H_    0.687491 0.440365 0.070103 0.220549
H16   H     H_    0.649033 0.631283 0.927820 0.228088
H17   H     H_    0.695375 0.458974 0.924007 0.232481
H18   H     H_    0.082776 0.695726 0.564005 0.090723
H19   H     H_    0.064706 0.506400 0.633103 0.097342
H20   H     H_    0.884172 0.675150 0.566793 0.169985
H21   H     H_    0.874893 0.443538 0.624199 0.166741
H22   H     H_    0.882399 0.471417 0.168601 0.373429
H23   H     H_    0.876039 0.709334 0.458204 0.265418
H24   H     H_    0.974245 0.065942 0.428510 0.434203
H25   H     H_    0.485445 0.179661 0.796369 0.351815
H26   H     H_    0.223474 0.836758 0.954981 0.360113
H27   H     H_    0.068484 0.922311 0.530572 0.375344
H28   H     H_    0.289027 0.253950 0.713086 0.367847
H29   H     H_    0.908793 0.302633 0.560003 0.287685
H30   H     H_    0.125710 0.502152 0.359172 0.225105
H31   H     H_    0.135673 0.342671 0.408890 0.229221
H32   H     H_    0.370484 0.110970 0.399850 0.162843
H33   H     H_    0.337255 0.881539 0.429615 0.256383
H34   H     H_    0.306434 0.139238 0.501548 0.268878
N1    N     N_3   0.499750 0.138610 0.498180 -0.105243
N2    N     N_3   0.499750 0.861390 0.498180 -0.108132
N3    N     N_1   0.800370 0.069470 0.534395 -0.167141
N4    N     N_1   0.750529 0.793861 0.350946 -0.040824
O1    O     O_R   0.314910 0.616040 0.499980 -0.593251
O2    O     O_2   0.950894 0.648719 0.285910 -0.226510
O3    O     O_3   0.927771 0.424787 0.215392 -0.461709
O4    O     O_2   0.795622 0.238708 0.360631 -0.314733
O5    O     O_2   0.998989 0.219032 0.298620 -0.202545
O6    O     O_3   0.981578 0.156002 0.453230 -0.549432
O7    O     O_2   0.681551 0.217581 0.957590 -0.246361
O8    O     O_2   0.501000 0.085833 0.955560 -0.183362
O9    O     O_3   0.567242 0.202776 0.814923 -0.527277
O10   O     O_2   0.518912 0.821574 0.890535 -0.215614
O11   O     O_2   0.343985 0.757099 0.809339 -0.308613
O12   O     O_R   0.314910 0.383960 0.499980 -0.583231
O13   O     O_3   0.303953 0.877150 0.953270 -0.469424
O14   O     O_2   0.202461 0.738289 0.368931 -0.280650
O15   O     O_2   0.997133 0.839704 0.372100 -0.230410
O16   O     O_3   0.132914 0.915126 0.485965 -0.578059
O17   O     O_2   0.057240 0.262284 0.712988 -0.274377
O18   O     O_2   0.130538 0.163405 0.580321 -0.258971
O19   O     O_3   0.273437 0.315185 0.663556 -0.579093
O20   O     O_R   0.500120 0.616090 0.377110 -0.606132
O21   O     O_R   0.500120 0.383910 0.377110 -0.628950
O22   O     O_R   0.685320 0.616040 0.499960 -0.638698
O23   O     O_R   0.685320 0.383960 0.499960 -0.597798
O24   O     O_R   0.500110 0.615990 0.622830 -0.625478
O25   O     O_R   0.500110 0.384010 0.622830 -0.594861
O26   O     O_2   0.758889 0.537721 0.306774 -0.365525
S1    S     S_3+6 0.894391 0.517223 0.302606 0.063392
S2    S     S_3+6 0.926722 0.258620 0.377219 0.055348
S3    S     S_3+6 0.556434 0.211653 0.921663 0.067477
S4    S     S_3+6 0.394257 0.767673 0.897327 0.050019
S5    S     S_3+6 0.098774 0.784144 0.426429 0.029489
S6    S     S_3+6 0.131633 0.287102 0.633730 0.024404
Zn1   Zn    Zn3+2 0.500150 0.654960 0.499960 0.984790
Zn2   Zn    Zn3+2 0.500150 0.345040 0.499960 0.999397

loop_
_geom_bond_atom_site_label_1
_geom_bond_atom_site_label_2
_ccdc_geom_bond_type
C8    H34   S    
C16   C21   S    
H24   O6    S    
C7    S2    S    
O19   S6    S    
H25   O9    S    
C24   C27   S    
O21   Zn2   S    
C12   H16   S    
C12   H17   S    
O4    S2    D    
C10   N1    S    
C19   H12   S    
O3    S1    S    
C12   C23   S    
C1    O1    A    
O9    S3    S    
C28   C29   T    
C17   H13   S    
C3    C7    S    
C18   H10   S    
O6    S2    S    
C6    O21   A    
H22   O3    S    
C17   C20   S    
C18   C19   S    
C32   H20   S    
O22   Zn1   S    
C15   O22   A    
C20   C24   S    
C8    C9    S    
N2    Zn1   S    
C10   H3    S    
C32   H23   S    
C13   H5    S    
C2    H29   S    
C5    C32   S    
C21   C27   T    
C23   H14   S    
C22   C28   S    
C13   C14   S    
O10   S4    D    
O14   S5    D    
O23   Zn2   S    
C9    N2    S    
N1    Zn2   S    
C17   H9    S    
O2    S1    D    
C23   H15   S    
C31   S6    S    
C5    C7    S    
C19   S3    S    
C11   N2    S    
C11   C26   S    
C1    O12   A    
C6    O20   A    
O5    S2    D    
C2    C31   S    
C14   H6    S    
O17   S6    D    
C20   S4    S    
C5    C15   S    
O26   S1    D    
C8    H32   S    
C20   H1    S    
C10   C25   S    
O24   Zn1   S    
O13   S4    S    
C9    H2    S    
C26   N4    T    
C2    C5    S    
C25   N3    T    
C3    C4    S    
O15   S5    D    
O25   Zn2   S    
C13   N1    S    
C3    H30   S    
O1    Zn1   S    
C11   H4    S    
C16   O25   A    
C14   N2    S    
C7    S1    S    
C18   C22   S    
C31   H19   S    
C2    H21   S    
C15   O23   A    
O18   S6    D    
O11   S4    D    
C3    H31   S    
C12   C24   S    
C16   O24   A    
C17   C22   S    
C1    C4    S    
C19   C24   S    
H27   O16   S    
H26   O13   S    
C30   C32   S    
H28   O19   S    
C30   S5    S    
O7    S3    D    
C30   H18   S    
C9    H33   S    
O20   Zn1   S    
C13   H7    S    
C4    C31   S    
C10   C11   S    
C14   H8    S    
C6    C29   S    
C8    N1    S    
O8    S3    D    
O12   Zn2   S    
C22   C23   S    
C18   H11   S    
O16   S5    S    
C4    C30   S    
