data_mof_unit_14417.cif
_audit_creation_date              2013-03-05T16:03:01-0500
_audit_creation_method            fapswitch 2.2
_symmetry_space_group_name_H-M    P1
_symmetry_Int_Tables_number       1
_space_group_crystal_system       triclinic
_cell_length_a                    7.013715
_cell_length_b                    18.317277
_cell_length_c                    20.157143
_cell_angle_alpha                 68.245013
_cell_angle_beta                  90.221584
_cell_angle_gamma                 90.584428
_cell_volume                      2405.06600535

loop_
_atom_site_label
_atom_site_type_symbol
_atom_site_description
_atom_site_fract_x
_atom_site_fract_y
_atom_site_fract_z
_atom_type_partial_charge
O1    O     O_R   0.488990 0.443920 0.942160 -0.561958
O2    O     O_R   0.823840 0.406530 0.087600 -0.600062
O3    O     O_R   0.999650 0.556080 0.057840 -0.580202
C1    C     C_R   0.654921 0.383694 0.114910 0.921814
O4    O     O_R   0.818390 0.434590 0.944530 -0.580542
O5    O     O_R   0.994160 0.584350 0.913750 -0.575573
C2    C     C_R   0.649429 0.420721 0.924161 0.967943
O6    O     O_R   0.494480 0.415650 0.086250 -0.596548
O7    O     O_3   0.662600 0.549100 0.990070 -0.265634
V1    V     V_3+5 0.935320 0.490890 0.001840 1.228470
O8    O     O_R   0.324240 0.593470 0.912400 -0.575478
C3    C     C_R   0.155738 0.616434 0.885028 1.201079
O9    O     O_R   0.329690 0.565410 0.055470 -0.580302
C4    C     C_R   0.161794 0.578252 0.076730 1.014811
V2    V     V_3+5 0.435990 0.509110 0.998160 1.233608
O10   O     O_3   0.158840 0.450900 0.009930 -0.279266
C5    C     C_3   0.033769 0.663801 0.276624 -0.570809
C6    C     C_3   0.351240 0.731508 0.224750 0.640138
C7    C     C_3   0.334268 0.770172 0.283017 0.139305
H1    H     H_    0.069874 0.681721 0.376796 0.130401
H2    H     H_    0.109203 0.608772 0.307980 0.223515
H3    H     H_    0.373613 0.726170 0.336108 0.160831
C8    C     C_1   0.112004 0.876206 0.377543 -0.189578
C9    C     C_3   0.144304 0.709707 0.206380 -0.048467
C10   C     C_3   0.009675 0.715317 0.323000 0.357188
C11   C     C_3   0.123096 0.794506 0.289633 -0.205740
C12   C     C_3   0.045312 0.842423 0.211721 0.226325
C13   C     C_3   0.034065 0.787191 0.168126 -0.461644
C14   C     C_1   0.117318 0.839371 0.338297 0.234880
C15   C     C_1   0.149018 0.662327 0.159932 0.132252
C16   C     C_1   0.154477 0.623979 0.122026 -0.250854
H4    H     H_    0.883418 0.771726 0.161109 0.248436
H5    H     H_    0.091854 0.818838 0.113487 0.218826
H6    H     H_    0.892661 0.644356 0.263934 0.266277
H7    H     H_    0.148322 0.890104 0.183711 0.090250
H8    H     H_    0.286672 0.530748 0.681601 0.186244
C17   C     C_R   0.089373 0.778928 0.877398 0.376211
C18   C     C_R   0.079409 0.857730 0.873355 0.317462
C19   C     C_R   0.109727 0.920040 0.807571 0.234696
C20   C     C_R   0.117485 0.903613 0.745453 -0.370218
C21   C     C_R   0.115861 0.826007 0.746959 0.022838
C22   C     C_R   0.116294 0.762139 0.813989 -0.044807
C23   C     C_R   0.117528 0.812596 0.682041 -0.177283
C24   C     C_R   0.138381 0.734794 0.683326 -0.104446
C25   C     C_R   0.170984 0.671391 0.750046 -0.038400
C26   C     C_R   0.147289 0.684278 0.815541 -0.239253
C27   C     C_R   0.136313 0.718351 0.619275 0.457578
C28   C     C_R   0.194895 0.645941 0.620049 -0.161158
C29   C     C_R   0.242433 0.586454 0.683384 -0.333481
C30   C     C_R   0.227117 0.596800 0.748719 0.488804
H9    H     H_    0.131429 0.952946 0.695395 0.192637
H10   H     H_    0.198309 0.634941 0.570832 0.179343
H11   H     H_    0.895865 0.460361 0.307512 0.182236
C31   C     C_R   0.508557 0.231996 0.123101 -0.167087
C32   C     C_R   0.437161 0.159884 0.125218 -0.095320
C33   C     C_R   0.425802 0.096308 0.189770 -0.036913
C34   C     C_R   0.485804 0.104354 0.252707 -0.153748
C35   C     C_R   0.557878 0.176996 0.252394 0.095485
C36   C     C_R   0.569474 0.242170 0.186191 0.114814
C37   C     C_R   0.621229 0.184897 0.316378 -0.265674
C38   C     C_R   0.696446 0.258060 0.314067 0.075432
C39   C     C_R   0.708069 0.323110 0.247901 0.118810
C40   C     C_R   0.644440 0.315292 0.183896 -0.281867
C41   C     C_R   0.757614 0.268155 0.377181 -0.291221
C42   C     C_R   0.830498 0.340389 0.375698 0.412210
C43   C     C_R   0.841164 0.403801 0.310283 -0.182053
C44   C     C_R   0.780523 0.395561 0.247534 -0.213449
H12   H     H_    0.516719 0.279301 0.071401 0.106301
H13   H     H_    0.391372 0.153214 0.076402 0.147368
H14   H     H_    0.371132 0.040285 0.191083 0.133328
H15   H     H_    0.476147 0.052810 0.301341 0.127366
H16   H     H_    0.747808 0.220100 0.428306 0.153730
H17   H     H_    0.790248 0.447022 0.198826 0.149499
O11   O     O_R   0.770890 0.084490 0.414040 -0.590603
O12   O     O_R   0.445980 0.065450 0.555510 -0.579854
O13   O     O_R   0.270670 0.915620 0.586180 -0.583318
C45   C     C_R   0.614529 0.079842 0.575647 0.955675
O14   O     O_R   0.441480 0.093500 0.412450 -0.595938
O15   O     O_R   0.266140 0.943870 0.442100 -0.593741
C46   C     C_R   0.610514 0.116424 0.385297 0.931601
O16   O     O_R   0.775410 0.056240 0.558120 -0.574734
O17   O     O_3   0.602660 0.950990 0.510100 -0.275238
V3    V     V_3+5 0.329740 0.009100 0.498130 1.216867
O18   O     O_R   0.936120 0.934420 0.444240 -0.576118
C47   C     C_R   0.104330 0.921205 0.423467 1.022706
O19   O     O_R   0.940610 0.906370 0.587310 -0.605132
C48   C     C_R   0.109388 0.881595 0.613211 0.994733
V4    V     V_3+5 0.829110 0.990690 0.501470 1.213779
O20   O     O_3   0.106080 0.049010 0.489880 -0.270842
C49   C     C_3   0.818352 0.250985 0.703718 0.309664
C50   C     C_3   0.473141 0.277902 0.681260 0.079878
C51   C     C_3   0.467411 0.321253 0.735698 0.190561
H18   H     H_    0.830326 0.367919 0.712640 0.220331
H19   H     H_    0.849798 0.289146 0.647335 0.158452
H20   H     H_    0.522413 0.321072 0.628463 0.088722
H21   H     H_    0.494253 0.384894 0.704112 0.049199
C52   C     C_1   0.640509 0.375449 0.878545 -0.272566
C53   C     C_3   0.621011 0.210142 0.706399 -0.096738
C54   C     C_3   0.813484 0.305131 0.748453 -0.688680
C55   C     C_3   0.629130 0.291833 0.792393 -0.058531
C56   C     C_3   0.618616 0.200636 0.836571 0.267598
C57   C     C_3   0.572212 0.156255 0.785401 0.332111
C58   C     C_1   0.635282 0.337956 0.839911 0.153907
C59   C     C_1   0.620918 0.164374 0.658517 0.336427
C60   C     C_1   0.620859 0.126170 0.620440 -0.202255
H22   H     H_    0.417050 0.141996 0.788090 0.237111
H23   H     H_    0.761650 0.181005 0.860779 0.108827
H24   H     H_    0.927536 0.291904 0.787291 0.306306
O21   O     O_3   0.816855 0.727893 0.333878 -0.650855
H25   H     H_    0.751484 0.743570 0.287165 0.385528
O22   O     O_3   0.066323 0.717883 0.942515 -0.783270
H26   H     H_    0.057627 0.737735 0.981818 0.359339
O23   O     O_3   0.038002 0.871839 0.934448 -0.723402
H27   H     H_    0.963769 0.920999 0.920655 0.366835
N1    N     N_R   0.139952 0.999733 0.803171 0.252885
O24   O     O_R   0.205630 0.013772 0.857789 -0.373935
O25   O     O_R   0.136451 0.057366 0.741371 -0.337086
O26   O     O_3   0.069695 0.770116 0.555246 -0.784684
H28   H     H_    0.937926 0.782885 0.564546 0.319149
O27   O     O_3   0.271768 0.534845 0.810873 -0.760962
H29   H     H_    0.326432 0.491254 0.799455 0.349223
N2    N     N_R   0.892478 0.349354 0.440528 0.239179
O28   O     O_R   0.958149 0.416596 0.439224 -0.384529
O29   O     O_R   0.884464 0.290372 0.501459 -0.429330
O30   O     O_3   0.436428 0.787314 0.163064 -0.716501
H30   H     H_    0.435026 0.765968 0.124451 0.343082
O31   O     O_3   0.293606 0.249466 0.671310 -0.623070
H31   H     H_    0.220074 0.295672 0.640362 0.360310
N3    N     N_R   0.283378 0.315006 0.770471 0.265323
O32   O     O_R   0.220823 0.247154 0.813663 -0.348666
O33   O     O_R   0.197266 0.378678 0.767546 -0.470098
O34   O     O_3   0.673295 0.085336 0.806248 -0.738298
H32   H     H_    0.616658 0.049826 0.852048 0.360755
O35   O     O_3   0.964113 0.195168 0.725708 -0.578576
H33   H     H_    0.962719 0.169955 0.778390 0.398633
N4    N     N_R   0.472079 0.660723 0.250773 0.210132
O36   O     O_R   0.460746 0.610889 0.316430 -0.421164
O37   O     O_R   0.572605 0.641504 0.205661 -0.434370
O38   O     O_3   0.487402 0.179582 0.893287 -0.668120
H34   H     H_    0.548572 0.190782 0.933053 0.318264
O39   O     O_3   0.465280 0.832502 0.271691 -0.652796
H35   H     H_    0.426485 0.877877 0.229071 0.370588
N5    N     N_R   0.861977 0.881993 0.209542 0.269085
O40   O     O_R   0.754907 0.898608 0.153030 -0.343077
O41   O     O_R   0.835957 0.922602 0.249690 -0.385394

loop_
_geom_bond_atom_site_label_1
_geom_bond_atom_site_label_2
_geom_bond_distance
_ccdc_geom_bond_type
C56   H23   1.116832 S    
C32   C33   1.389691 A    
C56   C57   1.563397 S    
C21   C22   1.422161 A    
O22   H26   0.988923 S    
O15   C47   1.305404 A    
C4    C16   1.451207 S    
C1    O6    1.303986 A    
C56   O38   1.405976 S    
C25   C26   1.435174 A    
O27   H29   0.990297 S    
C54   H24   1.081653 S    
C1    C40   1.488721 S    
C11   C12   1.586116 S    
C17   C18   1.417683 A    
C50   O31   1.399727 S    
C39   C44   1.413689 A    
C6    C9    1.580109 S    
C8    C14   1.216077 T    
C57   O34   1.406611 S    
O23   H27   0.990998 S    
C6    O30   1.413901 S    
O5    C3    1.305422 A    
C18   C19   1.407681 A    
C49   O35   1.403146 S    
O19   V4    2.006026 S    
C31   H12   1.081750 S    
H1    C10   1.113523 S    
C35   C37   1.419299 A    
N5    O40   1.302010 A    
C51   H21   1.116247 S    
C33   C34   1.393354 A    
C6    C7    1.585741 S    
C22   C26   1.433694 A    
C17   C22   1.434674 A    
C7    C11   1.571356 S    
O26   H28   0.991080 S    
O8    V2    2.006124 S    
O14   V3    1.998386 S    
C27   O26   1.371257 S    
C27   C28   1.387082 A    
O34   H32   0.992785 S    
N1    O25   1.300890 A    
C12   N5    1.475016 S    
C6    N4    1.479677 S    
C44   H17   1.081819 S    
O7    V1    2.168520 S    
H18   C54   1.113666 S    
C24   C27   1.430347 A    
C10   O21   1.405770 S    
C43   C44   1.392676 A    
C7    O39   1.409600 S    
O11   C46   1.303935 A    
O9    C4    1.307640 A    
C21   C23   1.418210 A    
O13   V3    1.998022 S    
C59   C60   1.215305 T    
C49   H19   1.113023 S    
C31   C36   1.415762 A    
V3    O20   1.718755 S    
O38   H34   0.993019 S    
C5    C9    1.557423 S    
V2    O10   2.178416 S    
C9    C13   1.553484 S    
C13   H4    1.113143 S    
C7    H3    1.110798 S    
O18   C47   1.307890 A    
C3    C26   1.490057 S    
C19   C20   1.393379 A    
O4    C2    1.305701 A    
C18   O23   1.381248 S    
O19   C48   1.307806 A    
C12   H7    1.108294 S    
C10   C11   1.564172 S    
C53   C57   1.568275 S    
O17   V3    2.168619 S    
C55   C58   1.493933 S    
C5    H2    1.109717 S    
C37   C38   1.419833 A    
C38   C41   1.416087 A    
O2    C1    1.306099 A    
C23   C24   1.424742 A    
C39   C40   1.419642 A    
C54   C55   1.535634 S    
C45   O16   1.308130 A    
C28   C29   1.378861 A    
C52   C58   1.214568 T    
C42   N2    1.441126 S    
C34   H15   1.081739 S    
C19   N1    1.442751 S    
H11   C43   1.082968 S    
O12   C45   1.304224 A    
O13   C48   1.305203 A    
C32   H13   1.082678 S    
O3    C4    1.305785 A    
O1    V2    1.962073 S    
N4    O37   1.302015 A    
C20   C21   1.410480 A    
C13   H5    1.112977 S    
C42   C43   1.398948 A    
O6    V2    2.001821 S    
C33   H14   1.082922 S    
O9    V2    1.964511 S    
O30   H30   0.992074 S    
C30   O27   1.380536 S    
C5    H6    1.109128 S    
N2    O29   1.301742 A    
O31   H31   0.993236 S    
O2    V1    1.998286 S    
C49   C54   1.569042 S    
C50   C51   1.575821 S    
C24   C25   1.433543 A    
C51   C55   1.558485 S    
N3    O32   1.298050 A    
N5    O41   1.300648 A    
C31   C32   1.393639 A    
C37   C46   1.488598 S    
C2    C52   1.449402 S    
O1    C2    1.306003 A    
O18   V4    1.964773 S    
N4    O36   1.301883 A    
O5    V1    1.997966 S    
O8    C3    1.308104 A    
O35   H33   0.988678 S    
C20   H9    1.080434 S    
C36   C40   1.418618 A    
C23   C48   1.492164 S    
C41   C42   1.403518 A    
C45   C60   1.450588 S    
C51   N3    1.454289 S    
C35   C36   1.424971 A    
C5    C10   1.565627 S    
O4    V1    1.982198 S    
O3    V1    1.971774 S    
V1    O10   1.718651 S    
O39   H35   0.988134 S    
O15   V3    1.971730 S    
O12   V3    1.982001 S    
C34   C35   1.416404 A    
C15   C16   1.215463 T    
C25   C30   1.435493 A    
O17   V4    1.722335 S    
C55   C56   1.576144 S    
C49   C53   1.558150 S    
C57   H22   1.113388 S    
O14   C46   1.306118 A    
C41   H16   1.080938 S    
C50   C53   1.558492 S    
O7    V2    1.725976 S    
C38   C39   1.423392 A    
C9    C15   1.494658 S    
C17   O22   1.381774 S    
O16   V4    1.978979 S    
C50   H20   1.118376 S    
C28   H10   1.083440 S    
V4    O20   2.178437 S    
C11   C14   1.495937 S    
C29   C30   1.402986 A    
C8    C47   1.451242 S    
C12   C13   1.568055 S    
O11   V4    1.997206 S    
N2    O28   1.301708 A    
O21   H25   0.989040 S    
C53   C59   1.494698 S    
H8    C29   1.082801 S    
N1    O24   1.301507 A    
N3    O33   1.300613 A    
