data_mof_unit_7848.cif
_audit_creation_date              2012-12-10T18:11:48-0500
_audit_creation_method            fapswitch 2.2
_symmetry_space_group_name_H-M    P1
_symmetry_Int_Tables_number       1
_space_group_crystal_system       triclinic
_cell_length_a                    15.845215
_cell_length_b                    10.75605
_cell_length_c                    9.458878
_cell_angle_alpha                 90.06671
_cell_angle_beta                  89.749021
_cell_angle_gamma                 90.826627
_cell_volume                      1611.91056691

loop_
_atom_site_label
_atom_site_type_symbol
_atom_type_description
_atom_site_fract_x
_atom_site_fract_y
_atom_site_fract_z
_atom_type_partial_charge
C1    C     C_R   0.501279 0.260177 0.499793 0.784459
C2    C     C_3   0.082635 0.499624 0.500894 0.181449
C3    C     C_3   0.972559 0.599518 0.571563 -0.159020
C4    C     C_3   0.917301 0.499646 0.499983 0.182095
C5    C     C_3   0.029338 0.603751 0.437937 -0.164263
C6    C     C_3   0.972544 0.503877 0.366364 -0.152631
C7    C     C_1   0.174411 0.499709 0.501065 -0.053441
C8    C     C_1   0.825538 0.499746 0.499484 -0.055900
C9    C     C_3   0.561374 0.074150 0.621480 -0.148486
C10   C     C_3   0.560562 0.930396 0.621782 -0.399906
C11   C     C_3   0.413786 0.069388 0.522281 -0.400676
C12   C     C_R   0.339878 0.499917 0.500256 0.834730
C13   C     C_3   0.537169 0.074021 0.354613 -0.427844
C14   C     C_3   0.504256 0.122471 0.499427 0.062561
C15   C     C_3   0.505828 0.878564 0.498508 0.039247
C16   C     C_3   0.414536 0.925871 0.519384 -0.404782
C17   C     C_3   0.540772 0.930806 0.354407 -0.126092
C18   C     C_3   0.540259 0.616282 0.085888 -0.206460
C19   C     C_3   0.540250 0.619447 0.918578 -0.060149
C20   C     C_3   0.549642 0.394929 0.082030 -0.220456
C21   C     C_3   0.415026 0.492268 0.086254 -0.228046
C22   C     C_3   0.549949 0.396817 0.915299 -0.232288
C23   C     C_R   0.503431 0.740126 0.499800 0.785319
C24   C     C_3   0.413625 0.492941 0.919391 -0.028640
C25   C     C_R   0.660114 0.500017 0.499754 0.857558
C26   C     C_3   0.970582 0.395510 0.562957 -0.150852
C27   C     C_3   0.027370 0.399745 0.429329 -0.159762
C28   C     C_1   0.250063 0.499821 0.500848 -0.143840
C29   C     C_1   0.749899 0.499875 0.499326 -0.152914
C30   C     C_3   0.027396 0.495386 0.634533 -0.140725
Cu1   Cu    Cu3+1 0.500040 0.499860 0.642410 0.948112
Cu2   Cu    Cu3+1 0.499960 0.500140 0.357590 0.904976
H1    H     H_    0.533823 0.897887 0.724517 0.206037
H2    H     H_    0.388122 0.101664 0.625545 0.167299
H3    H     H_    0.387404 0.889213 0.620071 0.168717
H4    H     H_    0.493853 0.103398 0.268831 0.170749
H5    H     H_    0.599623 0.117434 0.329295 0.151438
H6    H     H_    0.498663 0.897056 0.267931 0.159434
H7    H     H_    0.373517 0.891291 0.432104 0.158508
H8    H     H_    0.605149 0.626769 0.129007 0.194054
H9    H     H_    0.945050 0.310052 0.614237 0.145801
H10   H     H_    0.504751 0.698075 0.124170 0.162282
H11   H     H_    0.615724 0.397503 0.121123 0.158074
H12   H     H_    0.615779 0.398210 0.875414 0.179329
H13   H     H_    0.383037 0.407560 0.129632 0.153253
H14   H     H_    0.377713 0.572249 0.125456 0.146274
H15   H     H_    0.377438 0.575953 0.885970 0.135784
H16   H     H_    0.521562 0.305138 0.118139 0.152166
H17   H     H_    0.948656 0.507361 0.256302 0.137275
H18   H     H_    0.525304 0.306560 0.876214 0.154547
H19   H     H_    0.054830 0.689225 0.386643 0.132903
H20   H     H_    0.948658 0.681507 0.629912 0.142145
H21   H     H_    0.051310 0.491891 0.744580 0.148522
H22   H     H_    0.533674 0.104801 0.724135 0.164115
H23   H     H_    0.625455 0.893466 0.614796 0.192133
N1    N     N_3   0.501840 0.500250 0.143650 -0.142084
N2    N     N_3   0.501160 0.503300 0.856280 -0.194110
O1    O     O_R   0.500050 0.317570 0.620260 -0.594525
O2    O     O_R   0.499980 0.317810 0.379740 -0.598653
O3    O     O_R   0.379110 0.499870 0.620240 -0.555414
O4    O     O_R   0.379040 0.500110 0.379720 -0.600334
O5    O     O_R   0.500020 0.682190 0.620260 -0.580298
O6    O     O_R   0.499950 0.682430 0.379740 -0.595005
O7    O     O_R   0.620960 0.499890 0.620280 -0.565219
O8    O     O_R   0.620890 0.500130 0.379760 -0.588556
H24   H     H_    0.051250 0.317746 0.370977 0.135313
C31   C     C_2   0.629527 0.889394 0.320331 0.346425
H25   H     H_    0.680162 0.901934 0.395763 0.066417
O9    O     O_2   0.645988 0.845409 0.204739 -0.562551
H26   H     H_    0.370988 0.103768 0.438347 0.165525
H27   H     H_    0.502016 0.700562 0.885980 0.133886
C32   C     C_2   0.629803 0.643653 0.867864 0.477040
H28   H     H_    0.679824 0.579840 0.893286 0.047363
O10   O     O_2   0.648328 0.738537 0.804148 -0.579010
C33   C     C_2   0.363709 0.379204 0.870372 0.418621
H29   H     H_    0.389796 0.286850 0.874724 0.033661
O11   O     O_2   0.290482 0.389413 0.832841 -0.570170
C34   C     C_2   0.650648 0.125657 0.613537 0.353368
H30   H     H_    0.691226 0.103252 0.524801 0.060919
O12   O     O_2   0.678168 0.192434 0.707578 -0.556779

loop_
_geom_bond_atom_site_label_1
_geom_bond_atom_site_label_2
_ccdc_geom_bond_type
C19   H27   S    
C2    C7    S    
C4    C8    S    
C22   N2    S    
C11   H26   S    
C19   N2    S    
C9    C34   S    
C26   C27   S    
C12   C28   S    
C8    C29   T    
Cu1   O1    S    
Cu2   O4    S    
C10   C15   S    
C1    O2    A    
C16   H3    S    
C5    C6    S    
C11   C14   S    
C34   O12   D    
C15   C16   S    
C18   C19   S    
C18   H8    S    
C23   O5    A    
C22   H12   S    
Cu1   Cu2   S    
C24   N2    S    
C2    C27   S    
C9    C10   S    
C13   H5    S    
C18   N1    S    
C22   H18   S    
C15   C23   S    
C13   C14   S    
Cu1   O5    S    
C19   C32   S    
C21   H13   S    
C25   C29   S    
C30   H21   S    
C17   C31   S    
C31   H25   S    
C25   O8    A    
C13   H4    S    
C4    C6    S    
C9    C14   S    
C34   H30   S    
C20   N1    S    
C7    C28   T    
C31   O9    D    
C25   O7    A    
Cu1   O3    S    
C3    C30   S    
C33   H29   S    
C11   C16   S    
C6    C27   S    
C10   H23   S    
C33   O11   D    
C20   H16   S    
C32   O10   D    
C20   C22   S    
C26   C30   S    
C2    C5    S    
C3    C4    S    
C20   H11   S    
C21   H14   S    
C15   C17   S    
C24   H15   S    
Cu1   O7    S    
C11   H2    S    
Cu2   O6    S    
C32   H28   S    
C3    C5    S    
C21   N1    S    
C4    C26   S    
C3    H20   S    
C24   C33   S    
C9    H22   S    
C13   C17   S    
C2    C30   S    
Cu1   N2    S    
C18   H10   S    
C27   H24   S    
C1    O1    A    
C12   O4    A    
C23   O6    A    
C10   H1    S    
C17   H6    S    
C6    H17   S    
C16   H7    S    
C12   O3    A    
C21   C24   S    
C5    H19   S    
C1    C14   S    
Cu2   O2    S    
Cu2   N1    S    
C26   H9    S    
Cu2   O8    S    
