data_mof_unit_21711.cif
_audit_creation_date              2012-12-10T20:52:43-0500
_audit_creation_method            fapswitch 2.2
_symmetry_space_group_name_H-M    P1
_symmetry_Int_Tables_number       1
_space_group_crystal_system       triclinic
_cell_length_a                    8.62717
_cell_length_b                    15.767311
_cell_length_c                    15.063587
_cell_angle_alpha                 90.114825
_cell_angle_beta                  98.951193
_cell_angle_gamma                 90.056236
_cell_volume                      2024.09785926

loop_
_atom_site_label
_atom_site_type_symbol
_atom_type_description
_atom_site_fract_x
_atom_site_fract_y
_atom_site_fract_z
_atom_type_partial_charge
C1    C     C_R   0.500372 0.338667 0.499932 0.857721
C2    C     C_R   0.500189 0.661361 0.500122 0.905833
C3    C     C_R   0.492652 0.496878 0.904406 -0.246464
C4    C     C_R   0.492796 0.498747 0.094243 -0.225930
C5    C     C_R   0.454496 0.571888 0.948380 0.032616
C6    C     C_R   0.534719 0.424173 0.050998 0.051547
C7    C     C_1   0.497337 0.498647 0.806806 0.243333
C8    C     C_1   0.497697 0.499596 0.192744 0.287075
C9    C     C_R   0.201234 0.492246 0.476746 0.899324
C10   C     C_R   0.798744 0.492335 0.523215 0.902348
C11   C     C_2   0.037694 0.474471 0.463621 -0.043960
C12   C     C_2   0.962166 0.474541 0.536236 -0.040848
C13   C     C_R   0.574945 0.956290 0.589163 0.393125
C14   C     C_R   0.577619 0.044095 0.425055 0.456684
C15   C     C_R   0.566982 0.912628 0.506956 -0.168256
C16   C     C_R   0.567753 0.087713 0.505582 -0.172940
C17   C     C_R   0.571299 0.955363 0.425321 0.024921
C18   C     C_R   0.569395 0.045025 0.587755 0.008137
C19   C     C_1   0.541413 0.823888 0.504515 0.104572
C20   C     C_1   0.542389 0.176383 0.503230 0.105773
C21   C     C_1   0.520349 0.250618 0.501506 -0.126718
C22   C     C_1   0.519632 0.749559 0.502124 -0.117093
C23   C     C_R   0.529084 0.421966 0.955695 0.428099
C24   C     C_R   0.448832 0.572151 0.042315 0.434808
N1    N     N_1   0.499960 0.500020 0.270540 -0.077602
N2    N     N_1   0.500040 0.499980 0.729460 -0.071505
O1    O     O_R   0.500000 0.378020 0.573650 -0.596770
O2    O     O_R   0.500000 0.621980 0.426350 -0.592612
O3    O     O_R   0.500070 0.378020 0.426320 -0.610290
O4    O     O_R   0.499930 0.621980 0.573680 -0.590446
O5    O     O_R   0.271720 0.500000 0.556430 -0.588874
O6    O     O_R   0.728280 0.500000 0.443570 -0.587535
O7    O     O_R   0.271790 0.500000 0.409110 -0.622343
O8    O     O_R   0.728210 0.500000 0.590890 -0.623750
Zn1   Zn    Zn3+2 0.499950 0.500000 0.598370 1.025228
Zn2   Zn    Zn3+2 0.500050 0.500000 0.401630 1.021136
N3    N     N_2   0.959074 0.460868 0.373623 -0.297188
H1    H     H_    0.007392 0.491521 0.324015 0.255695
C25   C     C_3   0.922240 0.372972 0.351838 -0.640151
H2    H     H_    0.852208 0.368715 0.283563 0.243836
H3    H     H_    0.851866 0.345166 0.400411 0.253627
H4    H     H_    0.032064 0.335898 0.353072 0.227966
N4    N     N_2   0.040649 0.460838 0.626148 -0.291626
H5    H     H_    0.993125 0.491994 0.675825 0.250960
C26   C     C_3   0.075044 0.372782 0.647702 -0.655278
H6    H     H_    0.144449 0.368280 0.716093 0.261275
H7    H     H_    0.145123 0.344417 0.599232 0.233210
H8    H     H_    0.964204 0.336405 0.646073 0.226193
N5    N     N_2   0.562241 0.091288 0.668492 -0.257930
H9    H     H_    0.629584 0.145689 0.675598 0.248280
C27   C     C_3   0.405118 0.105053 0.687911 -0.555391
H10   H     H_    0.411517 0.135854 0.754732 0.256314
H11   H     H_    0.341996 0.043796 0.689506 0.265723
H12   H     H_    0.338389 0.146989 0.636392 0.199951
N6    N     N_2   0.565790 0.909177 0.343372 -0.230329
H13   H     H_    0.632013 0.854468 0.348783 0.249637
C28   C     C_3   0.409419 0.896187 0.294471 -0.554241
H14   H     H_    0.417126 0.865257 0.229019 0.260023
H15   H     H_    0.347937 0.957764 0.281050 0.263139
H16   H     H_    0.340346 0.854693 0.333304 0.207433
S1    S     S_3+6 0.584790 0.899706 0.692464 0.033881
O9    O     O_2   0.422550 0.870167 0.701910 -0.276175
O10   O     O_2   0.689073 0.823389 0.692103 -0.307542
O11   O     O_3   0.654511 0.960338 0.781822 -0.493191
H17   H     H_    0.765558 0.971304 0.775980 0.366374
S2    S     S_3+6 0.590679 0.100954 0.324093 0.017939
O12   O     O_2   0.429979 0.132880 0.286080 -0.326941
O13   O     O_2   0.699563 0.175363 0.344625 -0.327905
O14   O     O_3   0.658309 0.039597 0.247075 -0.503970
H18   H     H_    0.650441 0.075312 0.192532 0.387796
N7    N     N_2   0.592098 0.353186 0.105047 -0.304610
H19   H     H_    0.680661 0.317667 0.084903 0.287004
C29   C     C_3   0.480670 0.306705 0.149198 -0.546509
H20   H     H_    0.472218 0.240024 0.125135 0.278541
H21   H     H_    0.361562 0.335356 0.136206 0.223119
H22   H     H_    0.521978 0.306472 0.222751 0.250552
N8    N     N_2   0.422070 0.647950 0.898049 -0.242446
H23   H     H_    0.353705 0.639848 0.836078 0.237317
C30   C     C_3   0.558356 0.700497 0.894021 -0.507017
H24   H     H_    0.521119 0.760891 0.859403 0.284499
H25   H     H_    0.641324 0.667601 0.856070 0.206501
H26   H     H_    0.618846 0.715754 0.962807 0.258851
S3    S     S_3+6 0.569434 0.325321 0.901447 0.007288
O15   O     O_2   0.489566 0.322807 0.805387 -0.319325
O16   O     O_2   0.743748 0.318586 0.903645 -0.302887
O17   O     O_3   0.506814 0.241317 0.954671 -0.558360
H27   H     H_    0.547378 0.191148 0.925976 0.392087
S4    S     S_3+6 0.390152 0.665134 0.096118 0.026378
O18   O     O_2   0.281970 0.641073 0.161165 -0.305856
O19   O     O_2   0.534248 0.706486 0.147073 -0.316761
O20   O     O_3   0.296527 0.735031 0.022324 -0.504036
H28   H     H_    0.281768 0.786073 0.058522 0.385932

loop_
_geom_bond_atom_site_label_1
_geom_bond_atom_site_label_2
_ccdc_geom_bond_type
S2    O13   D    
N6    H13   S    
C1    C21   S    
C29   H20   S    
C3    C23   A    
C4    C8    S    
C25   H3    S    
N8    H23   S    
C15   C19   S    
O3    Zn2   S    
C7    N2    T    
C23   S3    S    
C13   C18   A    
O6    Zn2   S    
C12   N4    S    
C3    C7    S    
C4    C24   A    
C28   H15   S    
S2    O14   S    
O7    Zn2   S    
S1    O10   D    
O8    Zn1   S    
C11   N3    S    
N5    C27   S    
C2    C22   S    
C17   N6    S    
N8    C30   S    
S2    O12   D    
C9    O7    A    
C8    N1    T    
C29   H21   S    
C14   C17   A    
S1    O9    D    
C25   H4    S    
C26   H7    S    
C6    N7    S    
C27   H10   S    
C19   C22   T    
C4    C6    A    
O20   H28   S    
C30   H25   S    
O17   H27   S    
C28   H16   S    
O1    Zn1   S    
C26   H6    S    
C27   H11   S    
S1    O11   S    
N4    H5    S    
N3    H1    S    
N4    C26   S    
S3    O15   D    
S4    O20   S    
C16   C20   S    
C1    O3    A    
C14   S2    S    
C10   O8    A    
S4    O18   D    
C9    C11   S    
C10   C12   S    
O4    Zn1   S    
S3    O16   D    
S4    O19   D    
N6    C28   S    
C29   H22   S    
O5    Zn1   S    
C5    N8    S    
C25   H2    S    
N7    C29   S    
C26   H8    S    
C15   C17   A    
C24   S4    S    
C3    C5    A    
C30   H26   S    
C11   C12   D    
C2    O4    A    
C27   H12   S    
O11   H17   S    
C13   C15   A    
N7    H19   S    
N3    C25   S    
C28   H14   S    
C5    C24   A    
C6    C23   A    
C14   C16   A    
O14   H18   S    
C9    O5    A    
N1    Zn2   S    
C30   H24   S    
C10   O6    A    
N2    Zn1   S    
S3    O17   S    
C13   S1    S    
C20   C21   T    
O2    Zn2   S    
C16   C18   A    
N5    H9    S    
C1    O1    A    
C2    O2    A    
C18   N5    S    
