data_mof_unit_34041.cif
_audit_creation_date              2012-12-10T21:15:22-0500
_audit_creation_method            fapswitch 2.2
_symmetry_space_group_name_H-M    P1
_symmetry_Int_Tables_number       1
_space_group_crystal_system       triclinic
_cell_length_a                    17.571263
_cell_length_b                    16.937899
_cell_length_c                    14.149424
_cell_angle_alpha                 90.004401
_cell_angle_beta                  92.267946
_cell_angle_gamma                 90.001909
_cell_volume                      4207.85685061

loop_
_atom_site_label
_atom_site_type_symbol
_atom_type_description
_atom_site_fract_x
_atom_site_fract_y
_atom_site_fract_z
_atom_type_partial_charge
C1    C     C_R   0.353994 0.499955 0.500004 0.906559
C2    C     C_R   0.559779 0.250723 0.542524 0.135325
C3    C     C_R   0.533477 0.749192 0.574751 0.124683
C4    C     C_R   0.440226 0.250718 0.457460 0.123326
C5    C     C_R   0.500003 0.876204 0.500021 -0.194569
C6    C     C_R   0.499997 0.123711 0.499998 -0.215693
C7    C     C_1   0.500003 0.963700 0.500031 0.289108
C8    C     C_1   0.499994 0.036208 0.500024 0.297885
C9    C     C_R   0.499530 0.500002 0.329029 0.864600
C10   C     C_R   0.500469 0.500007 0.670971 0.864092
C11   C     C_1   0.499533 0.500057 0.227634 -0.202561
C12   C     C_R   0.646006 0.499958 0.500000 0.906809
C13   C     C_1   0.500466 0.500070 0.772366 -0.204189
C14   C     C_1   0.499653 0.500161 0.142429 0.015254
C15   C     C_1   0.500345 0.500172 0.857571 0.014032
C16   C     C_1   0.499887 0.500244 0.042607 0.031459
C17   C     C_1   0.500111 0.500248 0.957393 0.031085
C18   C     C_R   0.844917 0.505946 0.414671 0.181083
C19   C     C_R   0.151183 0.475087 0.414729 0.183847
C20   C     C_R   0.155095 0.505903 0.585371 0.180157
C21   C     C_R   0.848811 0.475110 0.585304 0.185947
C22   C     C_R   0.765038 0.511597 0.414726 0.131353
C23   C     C_1   0.966212 0.484723 0.499994 0.005843
C24   C     C_R   0.230906 0.482250 0.413743 0.127360
C25   C     C_R   0.234972 0.511569 0.585303 0.128731
C26   C     C_R   0.769088 0.482272 0.586280 0.128137
C27   C     C_R   0.728118 0.499329 0.500605 -0.124670
C28   C     C_R   0.271883 0.499315 0.499413 -0.127126
C29   C     C_R   0.885372 0.487644 0.499788 0.016980
C30   C     C_R   0.114631 0.487615 0.500252 0.015503
C31   C     C_3   0.888792 0.518540 0.325281 -0.857225
C32   C     C_3   0.103378 0.455028 0.325968 -0.846336
C33   C     C_3   0.111228 0.518475 0.674774 -0.859769
C34   C     C_1   0.033790 0.484714 0.500051 0.005636
C35   C     C_3   0.896607 0.455041 0.674066 -0.854013
C36   C     C_3   0.720142 0.529767 0.323259 -0.843042
C37   C     C_3   0.271319 0.473130 0.321297 -0.886466
C38   C     C_3   0.279876 0.529743 0.676764 -0.846783
C39   C     C_3   0.728666 0.473157 0.678720 -0.890115
C40   C     C_3   0.419940 0.706973 0.349131 -0.659364
C41   C     C_3   0.620463 0.292598 0.601720 -0.644761
C42   C     C_3   0.580060 0.706973 0.650871 -0.660013
C43   C     C_3   0.379525 0.292602 0.398297 -0.657467
C44   C     C_R   0.473546 0.833357 0.419617 0.255359
C45   C     C_R   0.564418 0.166550 0.533882 0.335045
C46   C     C_R   0.526458 0.833354 0.580414 0.256225
C47   C     C_R   0.435594 0.166543 0.466080 0.256510
C48   C     C_R   0.466524 0.749193 0.425259 0.124666
H1    H     H_    0.853145 0.532609 0.261398 0.250727
H2    H     H_    0.863402 0.441479 0.736795 0.252503
H3    H     H_    0.931976 0.402142 0.660798 0.244154
H4    H     H_    0.934621 0.505483 0.692756 0.238578
H5    H     H_    0.730630 0.483144 0.270165 0.245091
H6    H     H_    0.657855 0.532591 0.330488 0.227628
H7    H     H_    0.737665 0.588113 0.295735 0.249817
H8    H     H_    0.247289 0.515596 0.268310 0.253612
H9    H     H_    0.333194 0.485244 0.326901 0.214743
H10   H     H_    0.264093 0.411882 0.294471 0.254410
H11   H     H_    0.269417 0.483103 0.729841 0.242823
H12   H     H_    0.929415 0.568234 0.336246 0.242119
H13   H     H_    0.342163 0.532606 0.669519 0.228121
H14   H     H_    0.262334 0.588075 0.704320 0.251329
H15   H     H_    0.752699 0.515622 0.731717 0.254196
H16   H     H_    0.666794 0.485278 0.673109 0.215225
H17   H     H_    0.735881 0.411907 0.705538 0.252079
H18   H     H_    0.516849 0.818824 0.217935 0.360162
H19   H     H_    0.770181 0.141209 0.584433 0.397246
H20   H     H_    0.483136 0.818824 0.782078 0.359999
H21   H     H_    0.271691 0.180336 0.515670 0.357502
H22   H     H_    0.372561 0.744446 0.320941 0.257513
H23   H     H_    0.921167 0.464140 0.309439 0.242180
H24   H     H_    0.456452 0.689625 0.290417 0.240004
H25   H     H_    0.390771 0.655089 0.376577 0.246530
H26   H     H_    0.669356 0.308008 0.558050 0.266834
H27   H     H_    0.640781 0.255479 0.662140 0.241922
H28   H     H_    0.598780 0.345559 0.635924 0.237631
H29   H     H_    0.627443 0.744445 0.679064 0.257138
H30   H     H_    0.543550 0.689629 0.709586 0.240280
H31   H     H_    0.609226 0.655088 0.623421 0.246469
H32   H     H_    0.330731 0.308216 0.442018 0.247116
H33   H     H_    0.359000 0.255425 0.338034 0.254580
H34   H     H_    0.136577 0.441454 0.263236 0.252914
H35   H     H_    0.401281 0.345439 0.363898 0.244412
H36   H     H_    0.067993 0.402140 0.339230 0.246307
H37   H     H_    0.065380 0.505479 0.307287 0.237181
H38   H     H_    0.146882 0.532518 0.738662 0.250995
H39   H     H_    0.070615 0.568177 0.663844 0.242993
H40   H     H_    0.078844 0.464075 0.690585 0.240606
N1    N     N_R   0.500000 0.707230 0.500000 -0.105641
N2    N     N_R   0.500000 0.292770 0.500000 -0.111911
O1    O     O_R   0.389110 0.566570 0.500000 -0.610744
O2    O     O_2   0.493339 0.959397 0.302919 -0.258546
O3    O     O_3   0.461289 0.828939 0.216749 -0.517539
O4    O     O_2   0.646091 0.092133 0.670736 -0.227645
O5    O     O_2   0.658722 0.041133 0.510204 -0.261684
O6    O     O_3   0.727438 0.171117 0.553947 -0.561747
O7    O     O_2   0.635341 0.906548 0.685520 -0.184093
O8    O     O_2   0.506698 0.959399 0.697135 -0.261051
O9    O     O_3   0.538698 0.828930 0.783278 -0.517228
O10   O     O_2   0.353225 0.093016 0.329023 -0.174427
O11   O     O_2   0.341321 0.040404 0.488477 -0.267638
O12   O     O_R   0.610890 0.433430 0.500000 -0.606145
O13   O     O_3   0.272237 0.170589 0.446652 -0.526185
O14   O     O_R   0.610890 0.566570 0.500000 -0.611909
O15   O     O_R   0.389110 0.433430 0.500000 -0.609749
O16   O     O_R   0.500000 0.566560 0.373710 -0.602714
O17   O     O_R   0.500000 0.433440 0.626290 -0.597436
O18   O     O_R   0.500000 0.566560 0.626290 -0.602002
O19   O     O_R   0.500000 0.433440 0.373710 -0.593639
O20   O     O_2   0.364680 0.906587 0.314532 -0.178061
S1    S     S_3+6 0.447552 0.885074 0.312632 0.074504
S2    S     S_3+6 0.649992 0.114643 0.568301 0.055090
S3    S     S_3+6 0.552461 0.885064 0.687409 0.072591
S4    S     S_3+6 0.349942 0.114677 0.431744 0.070653
Zn1   Zn    Zn3+2 0.500000 0.588860 0.500000 0.935833
Zn2   Zn    Zn3+2 0.500000 0.411140 0.500000 0.944959

loop_
_geom_bond_atom_site_label_1
_geom_bond_atom_site_label_2
_ccdc_geom_bond_type
C47   S4    S    
C21   C26   A    
N1    Zn1   S    
C3    C42   S    
C6    C45   A    
C43   H35   S    
O15   Zn2   S    
C10   O18   A    
C45   S2    S    
C7    C8    T    
C20   C30   A    
C25   C28   A    
C39   H16   S    
O6    S2    S    
C26   C27   A    
C40   H22   S    
C23   C29   S    
O18   Zn1   S    
C33   H40   S    
C12   O14   A    
O5    S2    D    
C11   C14   T    
C26   C39   S    
C20   C25   A    
C2    C41   S    
C40   H25   S    
C15   C17   S    
C2    N2    A    
O20   S1    D    
C36   H5    S    
O19   Zn2   S    
C41   H26   S    
C37   H8    S    
C16   C17   T    
C1    C28   S    
N2    Zn2   S    
C37   H10   S    
C38   H13   S    
C31   H23   S    
C42   H31   S    
C1    O1    A    
O11   S4    D    
C39   H17   S    
C10   O17   A    
C31   H1    S    
C19   C32   S    
C4    N2    A    
H21   O13   S    
C2    C45   A    
C9    O19   A    
C32   H36   S    
C6    C47   A    
C30   C34   S    
C12   C27   S    
O13   S4    S    
O10   S4    D    
C5    C7    S    
O8    S3    D    
C6    C8    S    
C9    O16   A    
C21   C29   A    
C31   H12   S    
C33   H38   S    
C12   O12   A    
C25   C38   S    
C41   H27   S    
O14   Zn1   S    
C23   C34   T    
C35   H2    S    
C24   C37   S    
C18   C29   A    
C9    C11   S    
O3    S1    S    
H18   O3    S    
C20   C33   S    
C5    C44   A    
C42   H30   S    
C48   N1    A    
C13   C15   T    
C35   H3    S    
H19   O6    S    
C43   H33   S    
C14   C16   S    
O7    S3    D    
C32   H34   S    
C40   C48   S    
C40   H24   S    
C46   S3    S    
C18   C22   A    
C24   C28   A    
C10   C13   S    
O9    S3    S    
O2    S1    D    
C21   C35   S    
C4    C43   S    
C22   C36   S    
C5    C46   A    
C3    C46   A    
C22   C27   A    
O16   Zn1   S    
C3    N1    A    
C19   C24   A    
C33   H39   S    
H20   O9    S    
C36   H7    S    
C41   H28   S    
C32   H37   S    
O4    S2    D    
C43   H32   S    
O1    Zn1   S    
C39   H15   S    
O12   Zn2   S    
O17   Zn2   S    
C36   H6    S    
C38   H11   S    
C44   S1    S    
C42   H29   S    
C35   H4    S    
C18   C31   S    
C19   C30   A    
C37   H9    S    
C44   C48   A    
C1    O15   A    
C38   H14   S    
C4    C47   A    
