data_mof_unit_41917.cif
_audit_creation_date              2012-12-10T19:07:36-0500
_audit_creation_method            fapswitch 2.2
_symmetry_space_group_name_H-M    P1
_symmetry_Int_Tables_number       1
_space_group_crystal_system       triclinic
_cell_length_a                    10.841788
_cell_length_b                    10.82216
_cell_length_c                    9.546565
_cell_angle_alpha                 89.815739
_cell_angle_beta                  90.885329
_cell_angle_gamma                 90.714665
_cell_volume                      1119.88744585

loop_
_atom_site_label
_atom_site_type_symbol
_atom_type_description
_atom_site_fract_x
_atom_site_fract_y
_atom_site_fract_z
_atom_type_partial_charge
C1    C     C_R   0.504168 0.262396 0.500122 0.800625
C2    C     C_R   0.939580 0.462747 0.622816 0.134319
C3    C     C_3   0.941398 0.529523 0.759521 -0.497672
C4    C     C_3   0.080755 0.524092 0.757843 -0.456887
C5    C     C_R   0.526324 0.063312 0.625090 0.049576
C6    C     C_R   0.519900 0.129670 0.499792 -0.056143
C7    C     C_R   0.532838 0.065315 0.373070 -0.223767
C8    C     C_R   0.530289 0.936317 0.372612 -0.229229
C9    C     C_R   0.515410 0.870957 0.499005 -0.052127
C10   C     C_R   0.521792 0.936373 0.624585 0.045677
C11   C     C_3   0.443629 0.930638 0.752210 0.304160
C12   C     C_R   0.262506 0.495183 0.498976 0.821345
C13   C     C_3   0.451881 0.071304 0.754633 -0.515885
C14   C     C_R   0.545733 0.598934 0.073812 0.166990
C15   C     C_R   0.433005 0.413217 0.075334 0.538797
C16   C     C_R   0.435572 0.412845 0.924178 -0.204883
C17   C     C_R   0.544194 0.599730 0.926980 0.235432
C18   C     C_3   0.670215 0.654789 0.922759 -0.504750
C19   C     C_3   0.672147 0.653510 0.081879 -0.480181
C20   C     C_R   0.502187 0.737735 0.499724 0.820660
C21   C     C_R   0.738022 0.497124 0.500600 0.784910
C22   C     C_R   0.066577 0.459708 0.620940 0.119871
C23   C     C_R   0.129855 0.478280 0.496572 -0.097711
C24   C     C_R   0.062665 0.477585 0.369624 -0.205489
C25   C     C_R   0.933995 0.479242 0.371151 -0.223226
C26   C     C_R   0.871429 0.482602 0.499485 -0.094153
Cu1   Cu    Cu3+1 0.499990 0.499980 0.640670 0.946523
Cu2   Cu    Cu3+1 0.500010 0.500020 0.359330 0.976501
H1    H     H_    0.108777 0.483221 0.269903 0.182266
H2    H     H_    0.490744 0.883142 0.841586 0.049225
H3    H     H_    0.362158 0.118232 0.737286 0.217849
H4    H     H_    0.508953 0.107019 0.843473 0.146089
H5    H     H_    0.384696 0.344602 0.864045 0.159189
H6    H     H_    0.735151 0.589510 0.877507 0.216099
H7    H     H_    0.671448 0.749195 0.876705 0.182728
H8    H     H_    0.740966 0.588987 0.126938 0.207595
H9    H     H_    0.673157 0.747548 0.128304 0.188970
H10   H     H_    0.884672 0.484531 0.272066 0.157725
H11   H     H_    0.906933 0.625567 0.749615 0.198754
H12   H     H_    0.901878 0.472114 0.844926 0.197148
H13   H     H_    0.126481 0.615883 0.748242 0.213634
H14   H     H_    0.120058 0.463410 0.840718 0.197009
H15   H     H_    0.538590 0.113835 0.274004 0.153024
H16   H     H_    0.533766 0.888695 0.273188 0.151511
N1    N     N_R   0.500790 0.500930 0.147930 -0.224161
N2    N     N_R   0.500790 0.500890 0.852020 -0.201945
O1    O     O_R   0.500000 0.319640 0.618810 -0.586662
O2    O     O_R   0.500010 0.319680 0.381230 -0.552818
O3    O     O_R   0.319650 0.499970 0.618810 -0.583144
O4    O     O_R   0.319660 0.500010 0.381230 -0.545028
O5    O     O_R   0.499990 0.680320 0.618770 -0.571402
O6    O     O_R   0.500000 0.680360 0.381190 -0.592681
O7    O     O_R   0.680340 0.499990 0.618770 -0.580306
O8    O     O_R   0.680350 0.500030 0.381190 -0.592762
O9    O     O_3   0.353642 0.338436 0.152876 -0.551690
C27   C     C_3   0.330120 0.220087 0.095545 0.039115
H17   H     H_    0.330188 0.152919 0.183638 0.180316
H18   H     H_    0.402287 0.188128 0.023599 0.100417
C28   C     C_3   0.201832 0.214411 0.027778 -0.853678
H19   H     H_    0.196796 0.274125 0.933605 0.227163
H20   H     H_    0.179484 0.118101 0.996240 0.215630
H21   H     H_    0.131960 0.245114 0.103643 0.260620
O10   O     O_3   0.323004 0.888106 0.719012 -0.548279
C29   C     C_3   0.257340 0.865303 0.843272 0.082305
H22   H     H_    0.285561 0.927981 0.931030 0.121816
H23   H     H_    0.272331 0.768173 0.877113 0.147223
C30   C     C_3   0.120431 0.884307 0.814309 -0.811110
H24   H     H_    0.088971 0.828084 0.723165 0.251896
H25   H     H_    0.066523 0.856720 0.907644 0.202719
H26   H     H_    0.103245 0.983251 0.790468 0.244348

loop_
_geom_bond_atom_site_label_1
_geom_bond_atom_site_label_2
_ccdc_geom_bond_type
C2    C22   A    
C12   O4    A    
C23   C24   A    
Cu1   O7    S    
C1    O2    A    
C6    C7    A    
C7    H15   S    
C25   H10   S    
C20   O5    A    
C4    C22   S    
C9    C10   A    
C9    C20   S    
C5    C13   S    
C12   C23   S    
C27   C28   S    
C21   C26   S    
C30   H26   S    
C29   H22   S    
O9    C27   S    
C12   O3    A    
C13   H4    S    
C24   C25   A    
C3    H11   S    
C5    C10   A    
C2    C26   A    
C28   H19   S    
C4    H13   S    
C27   H17   S    
C21   O7    A    
Cu2   O6    S    
C14   C17   A    
C21   O8    A    
C4    H14   S    
Cu1   O3    S    
Cu1   N2    S    
Cu1   O5    S    
C3    H12   S    
C17   C18   S    
C14   N1    A    
C2    C3    S    
C19   H8    S    
C18   H6    S    
C5    C6    A    
C16   H5    S    
Cu2   N1    S    
C28   H20   S    
C7    C8    A    
C15   C16   A    
C15   N1    A    
Cu1   O1    S    
C1    C6    S    
C29   C30   S    
C8    H16   S    
C11   C13   S    
C17   N2    A    
C18   H7    S    
C8    C9    A    
C20   O6    A    
C18   C19   S    
C10   C11   S    
C15   O9    S    
C16   N2    A    
Cu1   Cu2   S    
Cu2   O8    S    
C24   H1    S    
C1    O1    A    
C28   H21   S    
C19   H9    S    
C25   C26   A    
C22   C23   A    
C11   O10   S    
Cu2   O4    S    
C14   C19   S    
C13   H3    S    
Cu2   O2    S    
C3    C4    S    
C30   H24   S    
C11   H2    S    
C27   H18   S    
O10   C29   S    
C30   H25   S    
C29   H23   S    
