data_mof_unit_67038.cif
_audit_creation_date              2013-03-05T15:58:15-0500
_audit_creation_method            fapswitch 2.2
_symmetry_space_group_name_H-M    P1
_symmetry_Int_Tables_number       1
_space_group_crystal_system       triclinic
_cell_length_a                    8.250352
_cell_length_b                    12.811787
_cell_length_c                    14.352594
_cell_angle_alpha                 92.753263
_cell_angle_beta                  90.870173
_cell_angle_gamma                 98.491162
_cell_volume                      1498.35169498

loop_
_atom_site_label
_atom_site_type_symbol
_atom_site_description
_atom_site_fract_x
_atom_site_fract_y
_atom_site_fract_z
_atom_type_partial_charge
P1    P     P_3+3 0.054400 0.427280 0.286870 0.465158
O1    O     O_2   0.887370 0.460630 0.272300 -0.370707
O2    O     O_3   0.129410 0.451380 0.388510 -0.406836
O3    O     O_3   0.670210 0.653170 0.329170 -0.399526
O4    O     O_2   0.791244 0.596035 0.166593 -0.381100
O5    O     O_3   0.012465 0.290904 0.260621 -0.564822
O6    O     O_3   0.706754 0.784564 0.175491 -0.520788
H1    H     H_    0.769436 0.847243 0.308883 0.162136
C1    C     C_3   0.697017 0.965103 0.223151 -0.987549
H2    H     H_    0.707244 0.019724 0.286037 0.222231
H3    H     H_    0.807460 0.982537 0.180501 0.270951
P2    P     P_3+3 0.668300 0.742890 0.573060 0.474529
P3    P     P_3+3 0.137023 0.841273 0.377070 0.457825
O7    O     O_2   0.845380 0.761330 0.544970 -0.388626
O8    O     O_3   0.088930 0.704860 0.376040 -0.344850
O9    O     O_2   0.010003 0.888059 0.437852 -0.400624
O10   O     O_3   0.657416 0.759939 0.695069 -0.607198
O11   O     O_3   0.096131 0.874919 0.263890 -0.510376
C2    C     C_3   0.218076 0.841750 0.207323 0.415901
H4    H     H_    0.249404 0.763235 0.224970 0.062648
H5    H     H_    0.329185 0.901952 0.213607 0.082721
C3    C     C_3   0.158671 0.831273 0.106970 -0.865103
H6    H     H_    0.041671 0.775990 0.099787 0.269154
H7    H     H_    0.142041 0.910084 0.082978 0.278181
C4    C     C_3   0.279116 0.767767 0.772259 0.608671
H8    H     H_    0.389758 0.733135 0.753930 0.143099
C5    C     C_3   0.264280 0.776917 0.878922 -1.164058
H9    H     H_    0.378802 0.763548 0.914096 0.249400
H10   H     H_    0.238866 0.855761 0.904577 0.279280
H11   H     H_    0.163333 0.720108 0.903502 0.263118
Ba1   Ba    Ba6+2 0.855630 0.555280 0.454520 1.563264
C6    C     C_3   0.980411 0.233108 0.340412 0.368456
H12   H     H_    0.846137 0.213256 0.346161 0.074201
H13   H     H_    0.032569 0.273524 0.406517 0.137275
C7    C     C_3   0.053107 0.131579 0.326939 -0.883224
H14   H     H_    0.998998 0.085782 0.264201 0.263083
H15   H     H_    0.031209 0.083638 0.388978 0.246310
H16   H     H_    0.186077 0.150311 0.315071 0.275047
C8    C     C_3   0.808914 0.787984 0.742951 0.567002
H17   H     H_    0.913818 0.794447 0.696447 0.103726
C9    C     C_3   0.817766 0.899104 0.791341 -0.561434
H18   H     H_    0.751366 0.948605 0.747424 0.176648
H19   H     H_    0.946559 0.938625 0.795542 0.197014
P4    P     P_3+3 0.135310 0.572810 0.713130 0.491058
O12   O     O_2   0.302330 0.539400 0.727760 -0.385664
O13   O     O_3   0.060300 0.548700 0.611500 -0.342177
O14   O     O_3   0.519500 0.346920 0.670840 -0.346575
O15   O     O_3   0.138912 0.709209 0.729715 -0.594254
P5    P     P_3+3 0.060967 0.157062 0.622662 0.444011
O16   O     O_3   0.614310 0.373510 0.452640 -0.393369
O17   O     O_3   0.100780 0.295230 0.623970 -0.393382
O18   O     O_2   0.203837 0.114135 0.572363 -0.366793
O19   O     O_3   0.079251 0.120728 0.737849 -0.550149
Ba2   Ba    Ba6+2 0.334200 0.444810 0.545490 1.565661
P6    P     P_3+3 0.654567 0.653910 0.207551 0.447759
C10   C     C_3   0.678518 0.851708 0.251942 0.535690
H20   H     H_    0.552772 0.830439 0.277928 -0.017135
H21   H     H_    0.588789 0.978297 0.181744 0.296715
O20   O     O_3   0.575400 0.626570 0.547370 -0.347815
C11   C     C_3   0.481669 0.321896 0.264555 0.353054
H22   H     H_    0.374196 0.350444 0.297273 0.102903
H23   H     H_    0.591695 0.382333 0.276613 0.139019
C12   C     C_3   0.448798 0.306577 0.160265 -0.854454
H24   H     H_    0.326304 0.258998 0.146907 0.289497
H25   H     H_    0.450819 0.383471 0.128291 0.197727
H26   H     H_    0.545684 0.266983 0.127541 0.295326
P7    P     P_3+3 0.525869 0.242167 0.421438 0.420738
O21   O     O_2   0.344320 0.238700 0.455090 -0.366703
O22   O     O_3   0.508288 0.225396 0.299934 -0.572023
H27   H     H_    0.252007 0.798765 0.064520 0.246652
C13   C     C_3   0.035481 0.201993 0.797305 0.437256
H28   H     H_    0.133415 0.271716 0.799251 0.168730
H29   H     H_    0.917580 0.225763 0.774336 0.011173
C14   C     C_3   0.015191 0.163867 0.895533 -0.931469
H30   H     H_    0.125971 0.132396 0.918666 0.297035
H31   H     H_    0.995183 0.229879 0.944646 0.250438
H32   H     H_    0.908180 0.100958 0.897082 0.285106
P8    P     P_3+3 0.538919 0.351424 0.792714 0.475476
C15   C     C_3   0.538559 0.155916 0.816065 0.209563
H33   H     H_    0.666277 0.178570 0.842791 0.081911
O23   O     O_2   0.432077 0.430987 0.831303 -0.391316
O24   O     O_3   0.442211 0.234682 0.835741 -0.489445
H34   H     H_    0.539205 0.138235 0.739320 0.031678
C16   C     C_3   0.461842 0.057500 0.862248 0.260234
H35   H     H_    0.511677 0.989572 0.830634 0.009293
H36   H     H_    0.328211 0.047048 0.849345 0.090670
C17   C     C_R   0.986762 0.440163 0.060162 -0.122254
C18   C     C_R   0.181385 0.497473 0.195676 0.272799
C19   C     C_R   0.334532 0.551159 0.225994 -0.520302
C20   C     C_R   0.449622 0.594068 0.162956 0.245312
C21   C     C_R   0.408922 0.590076 0.067868 -0.306200
C22   C     C_R   0.253692 0.540524 0.034489 0.091242
C23   C     C_R   0.138640 0.491850 0.097714 -0.000726
H37   H     H_    0.367990 0.555132 0.299415 0.172803
C24   C     C_R   0.059670 0.493148 0.900862 -0.033268
C25   C     C_R   0.946108 0.441862 0.963863 0.054016
C26   C     C_R   0.012774 0.495820 0.803390 0.244771
C27   C     C_R   0.860243 0.443064 0.773048 -0.442979
C28   C     C_R   0.748629 0.395730 0.835577 0.205436
C29   C     C_R   0.790460 0.394493 0.930236 -0.294583
C30   C     C_R   0.214303 0.539007 0.938249 -0.155088
H38   H     H_    0.498808 0.625453 0.020144 0.154967
H39   H     H_    0.700144 0.358693 0.977711 0.190929
H40   H     H_    0.822858 0.445344 0.700652 0.176859
H41   H     H_    0.897432 0.399415 0.105276 0.169731
H42   H     H_    0.305479 0.577022 0.893368 0.182865
C31   C     C_R   0.768649 0.174745 0.528903 -0.493786
C32   C     C_R   0.441147 0.812297 0.452721 -0.475219
C33   C     C_R   0.411147 0.992909 0.424802 -0.220329
C34   C     C_R   0.348749 0.885838 0.419088 0.182115
C35   C     C_R   0.584188 0.845460 0.506333 0.267297
C36   C     C_R   0.649413 0.956001 0.514015 -0.055815
C37   C     C_R   0.561517 0.030022 0.471077 -0.050246
C38   C     C_R   0.622855 0.139776 0.479198 0.258929
C39   C     C_R   0.859788 0.103890 0.567346 0.219954
C40   C     C_R   0.798768 0.995585 0.562389 -0.225772
H43   H     H_    0.337786 0.046432 0.395578 0.181279
H44   H     H_    0.871125 0.944008 0.595432 0.158234
H45   H     H_    0.815397 0.258365 0.534393 0.163849
H46   H     H_    0.390823 0.729248 0.447067 0.177269
N1    N     N_2   0.830916 0.708392 0.809029 -0.112437
H47   H     H_    0.920930 0.730836 0.858805 0.171172
C41   C     C_3   0.687529 0.643197 0.842356 -0.804758
H48   H     H_    0.723332 0.595803 0.899634 0.226886
H49   H     H_    0.629006 0.590431 0.784139 0.289910
H50   H     H_    0.598052 0.691251 0.870350 0.210865
N2    N     N_2   0.747159 0.898397 0.883179 -0.067616
H51   H     H_    0.628672 0.861646 0.887741 0.237217
C42   C     C_3   0.852122 0.894692 0.964169 -0.708263
H52   H     H_    0.818923 0.949900 0.019785 0.285705
H53   H     H_    0.982982 0.918966 0.948292 0.219131
H54   H     H_    0.834029 0.813956 0.990598 0.244658
S1    S     S_3+6 0.495286 0.064371 0.985541 -0.082995
O25   O     O_2   0.359941 0.112679 0.031199 -0.301969
O26   O     O_2   0.490997 0.954316 0.017703 -0.349951
O27   O     O_3   0.677368 0.136913 0.014840 -0.577718
H55   H     H_    0.697483 0.123288 0.081038 0.370930
N3    N     N_2   0.291469 0.873048 0.737730 -0.148106
H56   H     H_    0.207729 0.916259 0.766754 0.167216
C43   C     C_3   0.281787 0.878767 0.638267 -0.795376
H57   H     H_    0.366686 0.948624 0.618062 0.244525
H58   H     H_    0.155450 0.887483 0.615357 0.260772
H59   H     H_    0.311393 0.805026 0.604566 0.234257

loop_
_geom_bond_atom_site_label_1
_geom_bond_atom_site_label_2
_geom_bond_distance
_ccdc_geom_bond_type
O5    C6    1.400917 S    
C12   H25   1.104634 S    
C5    H10   1.108637 S    
C9    H18   1.109115 S    
C32   H46   1.082268 S    
C24   C25   1.424143 A    
C43   H59   1.101827 S    
O6    P6    1.751078 S    
O7    Ba1   2.898515 S    
H1    C10   1.110123 S    
C26   C27   1.390693 A    
C33   H43   1.074681 S    
C41   H48   1.106944 S    
C8    C9    1.545069 S    
O16   Ba2   2.924234 S    
C14   H31   1.107652 S    
P3    O11   1.741262 S    
C11   C12   1.515364 S    
C7    H15   1.107881 S    
P7    C38   1.855447 S    
C43   H58   1.111090 S    
C1    H21   1.103253 S    
P6    C20   1.842185 S    
C15   C16   1.512347 S    
O2    Ba2   2.807618 S    
P5    O19   1.749207 S    
C41   H49   1.106975 S    
C36   C40   1.418899 A    
Ba2   O21   2.898728 S    
C39   C40   1.402505 A    
C25   C29   1.404703 A    
P1    Ba1   3.421032 S    
C10   H20   1.108018 S    
C11   H23   1.108287 S    
P1    O1    1.516261 D    
O10   C8    1.407557 S    
Ba1   O20   2.925016 S    
C19   H37   1.082185 S    
C9    N2    1.449047 S    
P2    O20   1.595500 S    
C7    H14   1.101851 S    
C32   C34   1.395163 A    
P5    O17   1.751200 S    
C14   H32   1.105326 S    
P2    O10   1.759575 S    
S1    O27   1.681754 S    
C2    C3    1.507755 S    
C1    H2    1.109524 S    
C33   C37   1.405966 A    
C42   H54   1.109008 S    
P1    C18   1.869752 S    
C12   H26   1.106852 S    
C5    H11   1.096543 S    
C9    H19   1.106950 S    
O6    C10   1.405180 S    
C31   H45   1.082421 S    
C36   C37   1.432021 A    
P4    O13   1.574457 S    
Ba2   O20   2.829720 S    
C16   S1    1.782784 S    
C14   H30   1.104821 S    
P7    O21   1.575808 D    
C6    C7    1.516196 S    
C7    H16   1.105427 S    
C43   H57   1.105304 S    
C21   C22   1.408819 A    
C13   H29   1.111305 S    
O11   C2    1.403524 S    
C41   H50   1.097680 S    
C4    H8    1.102281 S    
C12   H24   1.109347 S    
Ba1   O13   2.807050 S    
C29   H39   1.083700 S    
P1    O5    1.751774 S    
C11   H22   1.110135 S    
P1    O2    1.574576 S    
C6    H13   1.108197 S    
N2    C42   1.445777 S    
C31   C38   1.393055 A    
P3    C34   1.838870 S    
C15   O24   1.395103 S    
P4    C26   1.881828 S    
P8    O24   1.733868 S    
C28   C29   1.398064 A    
C17   H41   1.080889 S    
P8    C28   1.827096 S    
P5    O18   1.546670 D    
C17   C25   1.419237 A    
O13   Ba2   2.933921 S    
C1    C10   1.516168 S    
C16   H35   1.098044 S    
O2    Ba1   2.933157 S    
C1    H3    1.106732 S    
C4    O15   1.397128 S    
C31   C39   1.389593 A    
N1    H47   1.022582 S    
N3    C43   1.434560 S    
C22   C30   1.412759 A    
O14   Ba2   2.801119 S    
P5    C39   1.850250 S    
P2    O7    1.509275 D    
O12   Ba2   2.862145 S    
P3    O8    1.733387 S    
P2    Ba1   3.441621 S    
S1    O25   1.498909 D    
C3    H7    1.108956 S    
Ba1   O16   2.830387 S    
N2    H51   1.024981 S    
O19   C13   1.406285 S    
C8    H17   1.096864 S    
P4    O12   1.516626 D    
C37   C38   1.421009 A    
O16   P7    1.766253 S    
C30   H42   1.074553 S    
C18   C23   1.440182 A    
C35   C36   1.437212 A    
C2    H5    1.106956 S    
O4    P6    1.546638 D    
C16   H36   1.102521 S    
O27   H55   0.990159 S    
C13   C14   1.517693 S    
C24   C26   1.449168 A    
O8    Ba1   2.798230 S    
C4    C5    1.537874 S    
C8    N1    1.454159 S    
C32   C35   1.399385 A    
O17   Ba2   2.798817 S    
C6    H12   1.104678 S    
C2    H4    1.114495 S    
C4    N3    1.449313 S    
C42   H52   1.105477 S    
C13   H28   1.111457 S    
O3    P6    1.748945 S    
P4    O15   1.748101 S    
C33   C34   1.390279 A    
C15   H34   1.114087 S    
P8    O23   1.532571 D    
C20   C21   1.397231 A    
C11   O22   1.404177 S    
C27   H40   1.082357 S    
C17   C23   1.413961 A    
C22   C23   1.420952 A    
C40   H44   1.075152 S    
Ba1   Ba2   4.579160 S    
N1    C41   1.445586 S    
O3    Ba1   2.801716 S    
N3    H56   1.028042 S    
C15   H33   1.108336 S    
P4    Ba2   3.421489 S    
C18   C19   1.398859 A    
C27   C28   1.390553 A    
P3    O9    1.543242 D    
C5    H9    1.103877 S    
S1    O26   1.500242 D    
C3    H6    1.110014 S    
O1    Ba1   2.861627 S    
C21   H38   1.081924 S    
O14   P8    1.751512 S    
P7    O22   1.747997 S    
C19   C20   1.393605 A    
C3    H27   1.105538 S    
P2    C35   1.869665 S    
C24   C30   1.410078 A    
C42   H53   1.108779 S    
