data_mof_unit_49600.cif
_audit_creation_date              2012-12-11T20:51:19-0500
_audit_creation_method            fapswitch 2.2
_symmetry_space_group_name_H-M    P1
_symmetry_Int_Tables_number       1
_space_group_crystal_system       triclinic
_cell_length_a                    30.569537
_cell_length_b                    33.800856
_cell_length_c                    8.448014
_cell_angle_alpha                 89.998171
_cell_angle_beta                  90.10565
_cell_angle_gamma                 90.003248
_cell_volume                      8729.1196325

loop_
_atom_site_label
_atom_site_type_symbol
_atom_type_description
_atom_site_fract_x
_atom_site_fract_y
_atom_site_fract_z
_atom_type_partial_charge
Ba1   Ba    Ba6+2 0.999930 0.472870 0.844940 1.732371
Ba2   Ba    Ba6+2 0.999930 0.527130 0.344940 1.732384
Ba3   Ba    Ba6+2 0.499930 0.972870 0.844940 1.732360
Ba4   Ba    Ba6+2 0.499930 0.027130 0.344940 1.732356
C1    C     C_3   0.012695 0.276688 0.558094 0.535247
C2    C     C_3   0.012676 0.723332 0.057960 0.535230
C3    C     C_3   0.512647 0.776694 0.557896 0.534842
C4    C     C_3   0.512706 0.223323 0.058017 0.535274
C5    C     C_R   0.244495 0.696864 0.051557 -0.124332
C6    C     C_R   0.244451 0.303145 0.552117 -0.124290
C7    C     C_R   0.744466 0.196857 0.051973 -0.124335
C8    C     C_R   0.744465 0.803127 0.551654 -0.124298
C9    C     C_R   0.212335 0.668677 0.007909 0.631215
C10   C     C_R   0.212289 0.331329 0.508479 0.631228
C11   C     C_R   0.712309 0.168670 0.008313 0.631248
C12   C     C_R   0.712300 0.831309 0.508000 0.631152
C13   C     C_R   0.157335 0.719199 0.007380 0.589426
C14   C     C_R   0.157350 0.280764 0.506943 0.589343
C15   C     C_R   0.657358 0.219223 0.006964 0.589369
C16   C     C_R   0.657302 0.780774 0.507510 0.589460
C17   C     C_R   0.188847 0.748100 0.049056 -0.025040
C18   C     C_R   0.188871 0.251866 0.548531 -0.025096
C19   C     C_R   0.688871 0.248125 0.048618 -0.025035
C20   C     C_R   0.688821 0.751877 0.549127 -0.025071
C21   C     C_R   0.232655 0.736926 0.071909 -0.057065
C22   C     C_R   0.232648 0.263062 0.571910 -0.057045
C23   C     C_R   0.732653 0.236935 0.071906 -0.057073
C24   C     C_R   0.732631 0.763060 0.571979 -0.057040
C25   C     C_R   0.288264 0.685787 0.075026 -0.086235
C26   C     C_R   0.288191 0.314245 0.576108 -0.086214
C27   C     C_R   0.788211 0.185766 0.075852 -0.086199
C28   C     C_R   0.788237 0.814213 0.575127 -0.086247
C29   C     C_R   0.819752 0.213573 0.119211 0.651358
C30   C     C_R   0.819787 0.786412 0.618465 0.651279
C31   C     C_R   0.319807 0.713593 0.118380 0.651321
C32   C     C_R   0.319737 0.286441 0.619432 0.651316
C33   C     C_R   0.808518 0.253848 0.139984 -0.120371
C34   C     C_R   0.808537 0.746148 0.639593 -0.120460
C35   C     C_R   0.308549 0.753854 0.139560 -0.120415
C36   C     C_R   0.308515 0.246160 0.640050 -0.120373
C37   C     C_R   0.764649 0.265737 0.115709 -0.134128
C38   C     C_R   0.764639 0.734263 0.615721 -0.134098
C39   C     C_R   0.264653 0.765728 0.115708 -0.134099
C40   C     C_R   0.264651 0.234263 0.615668 -0.134127
C41   C     C_R   0.177106 0.787901 0.069042 -0.054422
C42   C     C_R   0.177171 0.212043 0.567882 -0.054445
C43   C     C_R   0.677159 0.287943 0.068122 -0.054402
C44   C     C_R   0.677091 0.712070 0.569021 -0.054478
C45   C     C_3   0.016426 0.308243 0.071305 0.270342
C46   C     C_3   0.016425 0.691752 0.571283 0.270405
C47   C     C_3   0.516417 0.808236 0.071228 0.270141
C48   C     C_3   0.516404 0.191743 0.571339 0.270587
C49   C     C_R   0.707975 0.316953 0.110432 0.036370
C50   C     C_R   0.707914 0.683064 0.611283 0.036444
C51   C     C_R   0.207920 0.816910 0.111394 0.036392
C52   C     C_R   0.207992 0.183035 0.610142 0.036381
C53   C     C_R   0.752697 0.306078 0.135617 -0.000668
C54   C     C_R   0.752668 0.693932 0.635982 -0.000652
C55   C     C_R   0.252675 0.806054 0.136054 -0.000703
C56   C     C_R   0.252707 0.193916 0.635433 -0.000648
C57   C     C_R   0.785882 0.333724 0.180510 0.588588
C58   C     C_R   0.785866 0.666290 0.680765 0.588591
C59   C     C_R   0.285867 0.833703 0.180854 0.588621
C60   C     C_R   0.285893 0.166270 0.680311 0.588586
C61   C     C_R   0.840102 0.282362 0.184385 0.637808
C62   C     C_R   0.840130 0.717642 0.683970 0.637812
C63   C     C_R   0.340133 0.782366 0.183979 0.637821
C64   C     C_R   0.340103 0.217648 0.684422 0.637757
C65   C     C_2   0.108830 0.655696 0.810511 -0.053904
C66   C     C_2   0.108833 0.344312 0.310515 -0.053872
C67   C     C_2   0.608856 0.155677 0.810437 -0.053879
C68   C     C_2   0.608772 0.844266 0.310659 -0.053908
C69   C     C_3   0.070393 0.631736 0.786610 -0.085759
C70   C     C_3   0.070394 0.368269 0.286615 -0.085727
C71   C     C_3   0.570414 0.131721 0.786564 -0.085746
C72   C     C_3   0.570348 0.868245 0.286697 -0.085693
C73   C     C_1   0.096277 0.588465 0.003530 0.024866
C74   C     C_1   0.096266 0.411529 0.503572 0.024945
C75   C     C_1   0.596279 0.088465 0.003538 0.024940
C76   C     C_1   0.596263 0.911530 0.503551 0.024784
C77   C     C_2   0.128274 0.615297 0.045680 -0.063280
C78   C     C_2   0.128226 0.384675 0.545828 -0.063256
C79   C     C_2   0.628242 0.115319 0.045771 -0.063264
C80   C     C_2   0.628255 0.884698 0.545716 -0.063380
C81   C     C_2   0.136077 0.650597 0.944169 0.215221
C82   C     C_2   0.136051 0.349386 0.444267 0.215146
C83   C     C_2   0.636073 0.150603 0.944186 0.215178
C84   C     C_2   0.636033 0.849377 0.444279 0.215124
C85   C     C_R   0.883360 0.346536 0.389418 -0.105567
C86   C     C_R   0.883392 0.653493 0.889276 -0.105654
C87   C     C_R   0.383390 0.846509 0.389331 -0.105728
C88   C     C_R   0.383361 0.153465 0.889374 -0.105570
C89   C     C_3   0.017499 0.265900 0.006436 0.518735
C90   C     C_3   0.017529 0.734102 0.506508 0.518854
C91   C     C_3   0.517451 0.765903 0.006239 0.518826
C92   C     C_3   0.517532 0.234102 0.506696 0.518911
C93   C     C_R   0.916991 0.375738 0.435828 -0.067016
C94   C     C_R   0.917008 0.624279 0.935741 -0.066971
C95   C     C_R   0.417014 0.875718 0.435760 -0.066691
C96   C     C_R   0.416988 0.124260 0.935804 -0.067042
C97   C     C_R   0.903713 0.411841 0.191319 0.117937
C98   C     C_R   0.903709 0.588161 0.691291 0.117966
C99   C     C_R   0.403712 0.911837 0.191303 0.117903
C100  C     C_R   0.403711 0.088158 0.691305 0.117941
C101  C     C_R   0.871408 0.383570 0.151189 -0.066538
C102  C     C_R   0.871393 0.616424 0.651169 -0.066502
C103  C     C_R   0.371401 0.883570 0.151184 -0.066532
C104  C     C_R   0.371411 0.116430 0.651149 -0.066498
C105  C     C_R   0.861982 0.350583 0.249878 0.211925
C106  C     C_R   0.861995 0.649430 0.749774 0.211916
C107  C     C_R   0.361993 0.850571 0.249833 0.211945
C108  C     C_R   0.361986 0.149419 0.749822 0.211881
C109  C     C_2   0.068566 0.595858 0.877248 -0.286673
C110  C     C_2   0.068582 0.404151 0.377208 -0.286719
C111  C     C_2   0.568601 0.095838 0.877155 -0.286720
C112  C     C_2   0.568545 0.904130 0.377292 -0.286715
C113  C     C_3   0.124190 0.474410 0.178666 0.325177
C114  C     C_3   0.124193 0.525590 0.678656 0.325141
C115  C     C_3   0.624174 0.974402 0.178631 0.325043
C116  C     C_3   0.624204 0.025585 0.678669 0.325251
C117  C     C_3   0.164365 0.447825 0.181319 0.596305
C118  C     C_3   0.164369 0.552177 0.681315 0.596327
C119  C     C_3   0.664345 0.947812 0.181335 0.596184
C120  C     C_3   0.664380 0.052172 0.681257 0.596366
C121  C     C_3   0.870229 0.526996 0.043595 0.874519
C122  C     C_3   0.870224 0.473002 0.543619 0.874547
C123  C     C_3   0.370222 0.026995 0.043621 0.874573
C124  C     C_3   0.370230 0.973000 0.543605 0.874467
C125  C     C_3   0.837620 0.552862 0.132059 -0.210075
C126  C     C_3   0.837613 0.447139 0.632108 -0.210092
C127  C     C_3   0.337614 0.052853 0.132128 -0.210084
C128  C     C_3   0.337618 0.947132 0.632062 -0.210070
C129  C     C_3   0.999499 0.320011 0.545035 0.302513
C130  C     C_3   0.999534 0.679989 0.045019 0.302640
C131  C     C_3   0.499739 0.820123 0.545599 0.303676
C132  C     C_3   0.499457 0.180012 0.044833 0.302177
C133  C     C_R   0.926961 0.407790 0.324869 -0.230500
C134  C     C_R   0.926967 0.592221 0.824810 -0.230556
C135  C     C_R   0.426971 0.907778 0.324824 -0.230530
C136  C     C_R   0.426956 0.092209 0.824857 -0.230546
H1    H     H_    0.029310 0.338682 0.552245 0.007535
H2    H     H_    0.029369 0.661348 0.052389 0.007867
H3    H     H_    0.529659 0.838665 0.554345 0.008688
H4    H     H_    0.529251 0.161316 0.051743 0.007384
H5    H     H_    0.155535 0.418115 0.226518 -0.085972
H6    H     H_    0.155540 0.581885 0.726511 -0.085894
H7    H     H_    0.655501 0.918097 0.226457 -0.085762
H8    H     H_    0.655559 0.081878 0.726505 -0.085977
H9    H     H_    0.177607 0.444547 0.059673 0.060269
H10   H     H_    0.177614 0.555456 0.559672 0.060251
H11   H     H_    0.677609 0.944547 0.059714 0.060282
H12   H     H_    0.677602 0.055459 0.559583 0.060235
H13   H     H_    0.903793 0.537201 0.073072 -0.047790
H14   H     H_    0.903788 0.462800 0.573105 -0.047784
H15   H     H_    0.403787 0.037199 0.073095 -0.047807
H16   H     H_    0.403794 0.962798 0.573098 -0.047760
H17   H     H_    0.803709 0.545142 0.096059 0.122978
H18   H     H_    0.803703 0.454856 0.596100 0.122956
H19   H     H_    0.303703 0.045139 0.096117 0.122943
H20   H     H_    0.303707 0.954852 0.596057 0.122986
H21   H     H_    0.843484 0.584503 0.104147 0.049302
H22   H     H_    0.843475 0.415496 0.604228 0.049247
H23   H     H_    0.343481 0.084497 0.104271 0.049219
H24   H     H_    0.343479 0.915490 0.604147 0.049312
H25   H     H_    0.840720 0.548356 0.261591 0.104590
H26   H     H_    0.840714 0.451652 0.761637 0.104639
H27   H     H_    0.340715 0.048333 0.261652 0.104667
H28   H     H_    0.340717 0.951635 0.761596 0.104595
H29   H     H_    0.983469 0.324049 0.428235 -0.077973
H30   H     H_    0.983534 0.675905 0.928168 -0.078353
H31   H     H_    0.484023 0.824468 0.428274 -0.079564
H32   H     H_    0.483356 0.176028 0.928133 -0.077704
H33   H     H_    0.036301 0.272828 0.656790 0.098256
H34   H     H_    0.036260 0.727238 0.156700 0.098793
H35   H     H_    0.536151 0.772578 0.656806 0.098686
H36   H     H_    0.536336 0.227138 0.156655 0.098668
H37   H     H_    0.010172 0.244647 0.103187 0.094238
H38   H     H_    0.010168 0.755346 0.603260 0.094334
H39   H     H_    0.510131 0.744637 0.102943 0.094150
H40   H     H_    0.510115 0.255329 0.603420 0.094435
H41   H     H_    0.143320 0.796598 0.051248 0.138269
H42   H     H_    0.143414 0.203328 0.549635 0.138318
H43   H     H_    0.643396 0.296654 0.049956 0.138327
H44   H     H_    0.643307 0.703365 0.551209 0.138214
H45   H     H_    0.875914 0.322156 0.467991 0.106756
H46   H     H_    0.875968 0.677891 0.967786 0.106682
H47   H     H_    0.375958 0.822116 0.467862 0.106683
H48   H     H_    0.375917 0.177845 0.967941 0.106779
H49   H     H_    0.298379 0.655291 0.060179 0.176229
H50   H     H_    0.298278 0.344758 0.561704 0.176220
H51   H     H_    0.798306 0.155258 0.061323 0.176231
H52   H     H_    0.798348 0.844711 0.560294 0.176230
H53   H     H_    0.147082 0.611191 0.153551 0.112479
H54   H     H_    0.146998 0.388761 0.653797 0.112613
H55   H     H_    0.647011 0.111237 0.153741 0.112549
H56   H     H_    0.647084 0.888821 0.653545 0.112551
H57   H     H_    0.113864 0.681220 0.734668 0.096341
H58   H     H_    0.113894 0.318814 0.234572 0.096428
H59   H     H_    0.613915 0.181176 0.734490 0.096406
H60   H     H_    0.613792 0.818731 0.234868 0.096440
H61   H     H_    0.853008 0.387469 0.042679 0.094855
H62   H     H_    0.852959 0.612504 0.542738 0.094736
H63   H     H_    0.352983 0.887479 0.042714 0.094771
H64   H     H_    0.353014 0.112529 0.542630 0.094925
H65   H     H_    0.951120 0.429662 0.358119 0.063402
H66   H     H_    0.951128 0.570353 0.858063 0.063362
H67   H     H_    0.451132 0.929648 0.358072 0.063384
H68   H     H_    0.451112 0.070337 0.858120 0.063390
H69   H     H_    0.983314 0.258120 0.579355 0.119485
H70   H     H_    0.983266 0.741875 0.079083 0.119241
H71   H     H_    0.483123 0.758236 0.578437 0.118971
H72   H     H_    0.483345 0.241906 0.079413 0.119561
H73   H     H_    0.040065 0.577169 0.860676 0.071065
H74   H     H_    0.040099 0.422861 0.360542 0.071036
H75   H     H_    0.540116 0.077127 0.860487 0.071036
H76   H     H_    0.540058 0.922837 0.360661 0.071091
H77   H     H_    0.032932 0.306432 0.187589 0.010407
H78   H     H_    0.032906 0.693545 0.687605 0.010209
H79   H     H_    0.532961 0.806399 0.187423 0.010972
H80   H     H_    0.532850 0.193511 0.687726 0.010007
H81   H     H_    0.050559 0.258966 0.959636 0.013796
H82   H     H_    0.050608 0.741036 0.459889 0.013833
H83   H     H_    0.550498 0.758962 0.959356 0.013565
H84   H     H_    0.550626 0.241048 0.460327 0.014030
H85   H     H_    0.112502 0.478580 0.301221 -0.029233
H86   H     H_    0.112502 0.521420 0.801209 -0.029245
H87   H     H_    0.612465 0.978563 0.301167 -0.029239
H88   H     H_    0.612533 0.021410 0.801246 -0.029242
H89   H     H_    0.098336 0.459877 0.107101 -0.022894
H90   H     H_    0.098341 0.540123 0.607086 -0.022901
H91   H     H_    0.598329 0.959876 0.107000 -0.022714
H92   H     H_    0.598341 0.040121 0.607158 -0.023027
N1    N     N_R   0.169190 0.679962 0.986179 -0.434726
N2    N     N_R   0.169169 0.320023 0.486274 -0.434687
N3    N     N_R   0.669187 0.179969 0.986184 -0.434699
N4    N     N_R   0.669149 0.820015 0.486307 -0.434713
N5    N     N_R   0.828771 0.321729 0.203310 -0.438570
N6    N     N_R   0.828785 0.678281 0.703174 -0.438597
N7    N     N_R   0.328780 0.821720 0.203268 -0.438582
N8    N     N_R   0.328778 0.178273 0.703226 -0.438556
O1    O     O_2   0.914200 0.445720 0.903420 -0.484253
O2    O     O_2   0.914200 0.554280 0.403420 -0.484248
O3    O     O_2   0.414200 0.945720 0.903420 -0.484256
O4    O     O_2   0.414200 0.054280 0.403420 -0.484251
O5    O     O_3   0.135649 0.489100 0.612490 -0.582227
O6    O     O_3   0.135647 0.510901 0.112494 -0.582275
O7    O     O_3   0.635651 0.989098 0.612464 -0.582188
O8    O     O_3   0.635644 0.010896 0.112522 -0.582298
O9    O     O_3   0.038868 0.334030 0.967557 -0.573070
O10   O     O_3   0.038876 0.665972 0.467546 -0.572990
O11   O     O_3   0.538844 0.834037 0.967502 -0.573143
O12   O     O_3   0.538876 0.165980 0.467590 -0.572957
O13   O     O_3   0.049930 0.518940 0.045960 -0.504091
O14   O     O_3   0.049930 0.481060 0.545960 -0.504093
O15   O     O_3   0.549930 0.018940 0.045960 -0.504117
O16   O     O_3   0.549930 0.981060 0.545960 -0.504059
O17   O     O_2   0.222868 0.634158 0.987863 -0.531869
O18   O     O_2   0.222801 0.365867 0.488856 -0.531952
O19   O     O_2   0.722825 0.134137 0.988606 -0.531952
O20   O     O_2   0.722836 0.865831 0.487899 -0.531821
O21   O     O_2   0.119122 0.728966 0.991996 -0.547117
O22   O     O_2   0.119159 0.270973 0.491161 -0.546925
O23   O     O_2   0.619166 0.229007 0.991214 -0.546994
O24   O     O_2   0.619090 0.771000 0.492167 -0.547117
O25   O     O_2   0.776699 0.368447 0.201632 -0.588455
O26   O     O_2   0.776661 0.631582 0.702208 -0.588441
O27   O     O_2   0.276675 0.868416 0.202204 -0.588421
O28   O     O_2   0.276715 0.131542 0.701309 -0.588484
O29   O     O_2   0.877937 0.272153 0.205864 -0.514759
O30   O     O_2   0.877980 0.727852 0.705204 -0.514725
O31   O     O_2   0.377987 0.772168 0.205148 -0.514712
O32   O     O_2   0.377933 0.227866 0.705991 -0.514816
O33   O     O_3   0.950020 0.480960 0.143730 -0.501042
O34   O     O_3   0.950020 0.519040 0.643730 -0.501026
O35   O     O_3   0.450020 0.980960 0.143730 -0.501032
O36   O     O_3   0.450020 0.019040 0.643730 -0.501038
O37   O     O_3   0.985090 0.412220 0.642040 -0.476855
O38   O     O_3   0.985090 0.587780 0.142040 -0.476834
O39   O     O_3   0.485090 0.912220 0.642040 -0.477010
O40   O     O_3   0.485090 0.087780 0.142040 -0.476789
O41   O     O_2   0.913020 0.380189 0.765525 -0.490091
O42   O     O_2   0.913022 0.619822 0.265453 -0.490066
O43   O     O_2   0.413007 0.880192 0.765450 -0.490027
O44   O     O_2   0.413028 0.119820 0.265513 -0.490140
O45   O     O_3   0.862334 0.487459 0.082981 -0.577864
O46   O     O_3   0.862331 0.512540 0.582970 -0.577887
O47   O     O_3   0.362330 0.987455 0.082967 -0.577880
O48   O     O_3   0.362334 0.012536 0.582980 -0.577863
O49   O     O_3   0.971192 0.329511 0.670351 -0.573266
O50   O     O_3   0.971214 0.670491 0.170297 -0.573374
O51   O     O_3   0.471183 0.829509 0.670365 -0.573317
O52   O     O_3   0.471207 0.170491 0.170271 -0.573385
O53   O     O_2   0.085560 0.445380 0.786390 -0.454920
O54   O     O_2   0.085560 0.554620 0.286390 -0.454909
O55   O     O_2   0.585560 0.945380 0.786390 -0.454988
O56   O     O_2   0.585560 0.054620 0.286390 -0.454871
O57   O     O_3   0.014550 0.412170 0.047860 -0.468022
O58   O     O_3   0.014550 0.587830 0.547860 -0.468042
O59   O     O_3   0.514550 0.912170 0.047860 -0.468007
O60   O     O_3   0.514550 0.087830 0.547860 -0.468061
O61   O     O_2   0.096539 0.390999 0.980752 -0.498744
O62   O     O_2   0.096542 0.609002 0.480755 -0.498711
O63   O     O_2   0.596538 0.890992 0.980835 -0.498794
O64   O     O_2   0.596536 0.109006 0.480690 -0.498692
P1    P     P_3+3 0.909970 0.458430 0.077330 1.082766
P2    P     P_3+3 0.909970 0.541570 0.577330 1.082748
P3    P     P_3+3 0.409970 0.958430 0.077330 1.082758
P4    P     P_3+3 0.409970 0.041570 0.577330 1.082763
P5    P     P_3+3 0.089830 0.458070 0.612460 1.027970
P6    P     P_3+3 0.089830 0.541930 0.112460 1.027924
P7    P     P_3+3 0.589830 0.958070 0.612460 1.027949
P8    P     P_3+3 0.589830 0.041930 0.112460 1.027928
P9    P     P_3+3 0.055829 0.376437 0.071982 0.956335
P10   P     P_3+3 0.055833 0.623564 0.571977 0.956373
P11   P     P_3+3 0.555819 0.876428 0.072013 0.956264
P12   P     P_3+3 0.555833 0.123563 0.571955 0.956387
P13   P     P_3+3 0.945721 0.625370 0.127861 0.977850
P14   P     P_3+3 0.945711 0.374636 0.627919 0.977884
P15   P     P_3+3 0.445715 0.125366 0.127887 0.977770
P16   P     P_3+3 0.445713 0.874636 0.627893 0.978005
F1    F     F_    0.196154 0.463978 0.278466 -0.616260
F2    F     F_    0.196157 0.536024 0.778468 -0.616232
F3    F     F_    0.696119 0.963951 0.278591 -0.616248
F4    F     F_    0.696186 0.036013 0.778319 -0.616233
F5    F     F_    0.862247 0.531419 0.884895 -0.763589
F6    F     F_    0.862241 0.468572 0.384921 -0.763562
F7    F     F_    0.362234 0.031428 0.884926 -0.763555
F8    F     F_    0.362253 0.968577 0.384901 -0.763595
F9    F     F_    0.032113 0.264072 0.419677 -0.723040
F10   F     F_    0.032112 0.735939 0.919563 -0.723190
F11   F     F_    0.532114 0.764153 0.419447 -0.723254
F12   F     F_    0.532113 0.235963 0.919607 -0.723089
C137  C     C_3   0.691426 0.358907 0.126884 -0.301545
H93   H     H_    0.696363 0.369458 0.250082 0.160797
H94   H     H_    0.708630 0.378542 0.041996 0.157014
H95   H     H_    0.655889 0.361359 0.100939 0.102926
C138  C     C_3   0.691336 0.641121 0.628268 -0.301466
H96   H     H_    0.696369 0.630629 0.751522 0.160745
H97   H     H_    0.655769 0.638675 0.602753 0.102864
H98   H     H_    0.708446 0.621432 0.543312 0.157043
C139  C     C_3   0.191329 0.858840 0.128534 -0.301514
H99   H     H_    0.196378 0.869310 0.251797 0.160678
H100  H     H_    0.208421 0.878554 0.043621 0.157124
H101  H     H_    0.155759 0.861274 0.103104 0.102918
C140  C     C_3   0.191455 0.141075 0.626438 -0.301576
H102  H     H_    0.196371 0.130501 0.749593 0.160802
H103  H     H_    0.155931 0.138623 0.600408 0.102905
H104  H     H_    0.208676 0.121460 0.541547 0.157011
F13   F     F_    0.861410 0.200622 0.140536 -0.614399
F14   F     F_    0.861471 0.799354 0.639387 -0.614340
F15   F     F_    0.361491 0.700656 0.139299 -0.614353
F16   F     F_    0.361389 0.299399 0.640886 -0.614444
C141  C     C_3   0.969219 0.321912 0.096599 -0.212449
H105  H     H_    0.968887 0.351134 0.155001 0.003529
H106  H     H_    0.951336 0.324279 0.982599 0.197721
H107  H     H_    0.952170 0.300741 0.175133 0.137195
C142  C     C_3   0.969210 0.678094 0.596450 -0.212476
H108  H     H_    0.968855 0.648847 0.654628 0.003783
H109  H     H_    0.952178 0.699234 0.675137 0.137046
H110  H     H_    0.951330 0.675790 0.482440 0.197850
C143  C     C_3   0.469223 0.821914 0.096770 -0.212223
H111  H     H_    0.468917 0.851169 0.154858 0.003942
H112  H     H_    0.451262 0.824201 0.982913 0.197719
H113  H     H_    0.452238 0.800796 0.175705 0.136912
C144  C     C_3   0.469182 0.178087 0.596290 -0.212978
H114  H     H_    0.468810 0.148849 0.654549 0.003805
H115  H     H_    0.452106 0.199243 0.674806 0.137102
H116  H     H_    0.451353 0.175762 0.482190 0.197863
F17   F     F_    0.986733 0.260539 0.888290 -0.697972
F18   F     F_    0.986810 0.739480 0.388229 -0.698017
F19   F     F_    0.486661 0.760572 0.888156 -0.697778
F20   F     F_    0.486880 0.239494 0.388246 -0.698299

loop_
_geom_bond_atom_site_label_1
_geom_bond_atom_site_label_2
_ccdc_geom_bond_type
C49   C137  S    
C142  H108  S    
C51   C55   A    
O1    P1    D    
C4    F12   S    
C112  H76   S    
C38   C54   A    
C138  H96   S    
Ba3   O36   S    
O7    P7    S    
C137  H93   S    
O8    P8    S    
C119  F3    S    
C94   C134  S    
C94   P13   S    
C81   N1    S    
C52   C140  S    
O42   P13   D    
C64   O32   D    
O4    P4    D    
C59   N7    Am   
O5    P5    S    
C70   C110  A    
C83   N3    S    
C90   H38   S    
C5    C9    A    
C7    C11   A    
C8    C12   A    
C16   N4    Am   
C29   F13   S    
C66   C70   A    
C116  O7    S    
C31   F15   S    
C115  H91   S    
C43   C49   A    
O6    P6    S    
C11   O19   D    
O11   P11   S    
C48   C144  S    
C73   C109  A    
Ba2   O14   S    
C141  H106  S    
O64   P12   D    
C1    F9    S    
C143  H113  S    
C121  O45   S    
C41   H41   S    
C123  O47   S    
C124  O48   S    
C43   H43   S    
C64   N8    Am   
C44   H44   S    
C97   C133  D    
C89   F17   S    
C86   H46   S    
C13   C17   A    
C106  N6    S    
C100  C136  D    
C45   H77   S    
C28   C30   A    
C15   C19   A    
Ba1   O37   S    
C62   O30   D    
C120  H8    S    
C74   C78   A    
Ba3   O39   S    
C7    C23   A    
C74   P5    S    
C90   F18   S    
C111  H75   S    
C92   H40   S    
C140  H104  S    
Ba3   O59   S    
C122  H14   S    
C142  H110  S    
Ba4   O40   S    
C25   H49   S    
C71   C111  A    
C138  H98   S    
Ba1   O14   S    
O34   P2    S    
C137  H95   S    
C80   C84   S    
C91   F19   S    
C14   N2    Am   
C53   C57   A    
C115  C119  S    
C25   C31   A    
C55   C59   A    
C26   C32   A    
C56   C60   A    
C85   H45   S    
O36   P4    S    
C144  H114  S    
C16   O24   D    
C72   P11   S    
O60   P12   S    
C117  H9    S    
C2    F10   S    
C118  H6    S    
C79   H55   S    
C123  C127  S    
C60   N8    Am   
C124  H16   S    
C77   H53   S    
C121  C125  S    
O12   P12   S    
C99   C103  A    
Ba4   O60   S    
C45   C89   S    
C47   C91   S    
O38   P13   S    
C51   C139  S    
C75   C111  A    
C32   F16   S    
C21   C39   A    
C22   C40   A    
C113  O6    S    
C114  H86   S    
C1    C129  S    
C12   O20   D    
O10   P10   S    
C97   P1    S    
C114  C118  S    
C9    O17   D    
O48   P4    S    
C129  H29   S    
O49   P14   S    
O2    P2    D    
C33   C61   A    
O51   P16   S    
O52   P15   S    
C46   O10   S    
C39   C55   A    
C126  H22   S    
C131  H3    S    
C127  H27   S    
C66   H58   S    
C62   N6    Am   
C95   C135  S    
C93   C133  S    
C17   C41   A    
C139  H100  S    
C19   C43   A    
C121  F5    S    
C20   C44   A    
C76   C112  A    
C6    C10   A    
C144  H116  S    
C89   H37   S    
C46   C90   S    
C47   H79   S    
Ba1   P1    S    
C91   H83   S    
C103  H63   S    
Ba2   O2    S    
C101  H61   S    
C132  H32   S    
Ba1   O34   S    
C125  H21   S    
C127  H19   S    
C48   O12   S    
O37   P14   S    
C135  H67   S    
Ba4   P4    S    
C117  F1    S    
O39   P16   S    
C108  N8    S    
C122  O46   S    
C18   C22   A    
C6    C26   A    
Ba4   O16   S    
Ba3   Ba4   S    
C65   C81   A    
C9    N1    Am   
C14   O22   D    
C17   C21   A    
O13   P6    S    
C14   C18   A    
Ba4   O35   S    
C103  C107  A    
C20   C24   A    
Ba2   O38   S    
C3    H71   S    
C4    H36   S    
C1    H69   S    
Ba1   O53   S    
C42   H42   S    
C69   P10   S    
C63   O31   D    
C58   O26   D    
C80   H56   S    
C113  H89   S    
C26   H50   S    
C33   C37   A    
C96   P15   S    
O63   P11   D    
O35   P3    S    
C36   C40   A    
C41   C51   A    
C130  H30   S    
C42   C52   A    
C90   H82   S    
C3    F11   S    
C87   C95   S    
C4    H72   S    
Ba4   O4    S    
C77   C81   S    
C54   C58   A    
C79   C83   S    
C4    C132  S    
C76   C80   A    
O58   P10   S    
C141  H105  S    
C134  H66   S    
C5    C21   A    
O45   P1    S    
C143  H112  S    
O61   P9    D    
C82   N2    S    
C8    C24   A    
C118  H10   S    
Ba1   O57   S    
C102  C106  A    
C122  C126  S    
C27   H51   S    
C69   C109  A    
C28   H52   S    
C110  H74   S    
Ba3   O16   S    
C101  C105  A    
O59   P11   S    
C30   F14   S    
C102  H62   S    
C65   C69   A    
C131  H31   S    
C140  H103  S    
C116  H88   S    
C68   C72   A    
O53   P5    D    
C142  H109  S    
O62   P10   D    
C116  H92   S    
C74   C110  A    
C1    H33   S    
C136  H68   S    
C138  H97   S    
Ba1   O13   S    
C137  H94   S    
C98   P2    S    
C119  H11   S    
Ba4   O56   S    
C46   C142  S    
C132  O52   S    
C123  H15   S    
C49   C53   A    
C88   C108  D    
C78   C82   S    
O50   P13   S    
C29   C33   A    
C104  C108  A    
C123  F7    S    
C31   C35   A    
C128  H24   S    
C130  H2    S    
C126  H26   S    
C73   C77   A    
C88   H48   S    
C100  P4    S    
C67   C83   A    
C18   C42   A    
O40   P15   S    
C10   O18   D    
Ba2   O13   S    
C100  C104  A    
C141  H107  S    
Ba1   P5    S    
Ba2   P2    S    
C107  N7    S    
Ba3   P7    S    
C130  O50   S    
O47   P3    S    
C15   N3    Am   
C67   H59   S    
C13   N1    Am   
C2    H34   S    
C129  H1    S    
C58   N6    Am   
C125  H25   S    
C126  H18   S    
C37   C53   A    
C132  H4    S    
Ba4   P8    S    
Ba2   O33   S    
C75   C79   A    
C40   C56   A    
C93   P14   S    
O41   P14   D    
C13   O21   D    
C95   P16   S    
C78   H54   S    
O43   P16   D    
Ba3   O55   S    
O44   P15   D    
C52   C56   A    
C104  H64   S    
C36   C64   A    
C11   N3    Am   
O14   P5    S    
C87   H47   S    
C129  O49   S    
Ba2   O54   S    
C109  H73   S    
C47   C143  S    
C70   P9    S    
C125  H17   S    
C114  O5    S    
C115  H87   S    
C133  H65   S    
C139  H99   S    
C44   C50   A    
C113  H85   S    
C128  H20   S    
C34   C38   A    
C144  H115  S    
C12   N4    Am   
C87   C107  D    
C85   C105  D    
Ba1   Ba2   S    
C98   C134  D    
C63   N7    Am   
C113  C117  S    
C96   C136  S    
O55   P7    D    
C16   C20   A    
C92   H84   S    
C3    H35   S    
C27   C29   A    
C98   C102  A    
C19   C23   A    
C61   O29   D    
C71   P12   S    
C5    C25   A    
C6    C22   A    
C73   P6    S    
C120  H12   S    
C7    C27   A    
C8    C28   A    
C65   H57   S    
C15   O23   D    
C61   N5    Am   
Ba2   O58   S    
C124  C128  S    
C68   C84   A    
C121  H13   S    
C97   C101  A    
C84   N4    S    
C60   O28   D    
C48   H80   S    
C45   C141  S    
C34   C62   A    
C32   C36   A    
C75   P8    S    
C76   P7    S    
O33   P1    S    
C92   F20   S    
C35   C39   A    
O56   P8    D    
C46   H78   S    
C50   C138  S    
O3    P3    D    
C85   C93   S    
C115  O8    S    
C3    C131  S    
C99   C135  D    
C68   H60   S    
C23   C37   A    
O54   P6    D    
C122  F6    S    
C124  F8    S    
Ba3   O3    S    
C57   O25   D    
Ba1   O1    S    
C118  F2    S    
C91   H39   S    
C119  H7    S    
C99   P3    S    
C117  H5    S    
C86   C106  D    
C66   C82   A    
C10   N2    Am   
C47   O11   S    
C88   C96   S    
C50   C54   A    
C139  H101  S    
C30   C34   A    
C35   C63   A    
C128  H28   S    
C2    H70   S    
C105  N5    S    
C143  H111  S    
Ba4   O15   S    
C57   N5    Am   
O57   P9    S    
C2    C130  S    
C67   C71   A    
O15   P8    S    
C120  F4    S    
O16   P7    S    
C59   O27   D    
C114  H90   S    
C24   C38   A    
C72   C112  A    
C48   C92   S    
O46   P2    S    
Ba3   O15   S    
O9    P9    S    
C127  H23   S    
Ba2   P6    S    
Ba3   P3    S    
C89   H81   S    
C45   O9    S    
C140  H102  S    
C131  O51   S    
C86   C94   S    
C116  C120  S    
