data_mof_unit_41988.cif
_audit_creation_date              2012-12-10T17:43:20-0500
_audit_creation_method            fapswitch 2.2
_symmetry_space_group_name_H-M    P1
_symmetry_Int_Tables_number       1
_space_group_crystal_system       triclinic
_cell_length_a                    15.057355
_cell_length_b                    13.71867
_cell_length_c                    10.62136
_cell_angle_alpha                 89.900595
_cell_angle_beta                  89.845434
_cell_angle_gamma                 89.967091
_cell_volume                      2194.00960086

loop_
_atom_site_label
_atom_site_type_symbol
_atom_type_description
_atom_site_fract_x
_atom_site_fract_y
_atom_site_fract_z
_atom_type_partial_charge
C1    C     C_R   0.329149 0.500022 0.499795 0.874957
C2    C     C_R   0.670851 0.499978 0.500203 0.874960
C3    C     C_R   0.952914 0.499980 0.501195 -0.061468
C4    C     C_R   0.047085 0.499989 0.498794 -0.061464
C5    C     C_R   0.905746 0.520778 0.389074 -0.014216
C6    C     C_R   0.094253 0.479184 0.610913 -0.014222
C7    C     C_R   0.955619 0.460450 0.726480 0.399023
C8    C     C_R   0.044381 0.539502 0.273505 0.399015
C9    C     C_R   0.047653 0.460208 0.722386 -0.161389
C10   C     C_R   0.952346 0.539738 0.277596 -0.161393
C11   C     C_R   0.448336 0.793048 0.584266 0.049704
C12   C     C_R   0.551672 0.206954 0.415736 0.049704
C13   C     C_R   0.551639 0.793190 0.415693 0.050831
C14   C     C_R   0.448365 0.206810 0.584309 0.050850
C15   C     C_R   0.553024 0.896427 0.412996 -0.005996
C16   C     C_R   0.446989 0.103574 0.587006 -0.005996
C17   C     C_R   0.446967 0.896278 0.586977 -0.001927
C18   C     C_R   0.553048 0.103724 0.413022 -0.001946
C19   C     C_R   0.499999 0.948257 0.499989 -0.019017
C20   C     C_R   0.500010 0.051746 0.500003 -0.019015
C21   C     C_R   0.605958 0.948338 0.325700 0.098559
C22   C     C_R   0.394077 0.051662 0.674329 0.098575
C23   C     C_R   0.394067 0.948038 0.674317 0.099280
C24   C     C_R   0.605973 0.051963 0.325711 0.099299
C25   C     C_R   0.499826 0.500124 0.259142 0.826777
C26   C     C_R   0.500173 0.499876 0.740858 0.826770
C27   C     C_3   0.499652 0.592664 0.040654 -0.148917
C28   C     C_3   0.500345 0.407336 0.959346 -0.148911
C29   C     C_3   0.572901 0.546324 0.957959 -0.138944
C30   C     C_3   0.427096 0.453676 0.042041 -0.138946
C31   C     C_3   0.426937 0.545861 0.958064 -0.105603
C32   C     C_3   0.573060 0.454138 0.041936 -0.105595
C33   C     C_3   0.500182 0.499580 0.877640 -0.015059
C34   C     C_3   0.499815 0.500419 0.122360 -0.015065
C35   C     C_R   0.812649 0.521805 0.389812 0.314522
C36   C     C_R   0.187351 0.478161 0.610175 0.314524
C37   C     C_R   0.767096 0.499991 0.500997 -0.185758
C38   C     C_R   0.232904 0.500007 0.499000 -0.185763
C39   C     C_R   0.812171 0.478603 0.613396 0.071271
C40   C     C_R   0.187828 0.521415 0.386608 0.071258
C41   C     C_R   0.906144 0.479405 0.615367 0.039382
C42   C     C_R   0.093855 0.520574 0.384626 0.039387
Cu1   Cu    Cu3+1 0.500000 0.597420 0.500000 0.965616
Cu2   Cu    Cu3+1 0.500000 0.402580 0.500000 0.965640
H1    H     H_    0.367287 0.583634 0.920834 0.192638
H2    H     H_    0.632710 0.416364 0.079165 0.192657
H3    H     H_    0.499397 0.668619 0.076590 0.158643
H4    H     H_    0.500599 0.331380 0.923410 0.158653
H5    H     H_    0.632441 0.584690 0.921187 0.164555
H6    H     H_    0.367556 0.415311 0.078815 0.164568
H7    H     H_    0.082396 0.445221 0.809293 0.251717
H8    H     H_    0.917604 0.554707 0.190684 0.251713
H9    H     H_    0.408177 0.751230 0.649413 0.174587
H10   H     H_    0.591833 0.248771 0.350595 0.174586
H11   H     H_    0.591774 0.751479 0.350526 0.189926
H12   H     H_    0.408232 0.248521 0.649480 0.189934
N1    N     N_R   0.500000 0.743810 0.500000 -0.217883
N2    N     N_R   0.500000 0.256190 0.500000 -0.217881
O1    O     O_R   0.370260 0.582280 0.500030 -0.590002
O2    O     O_R   0.629740 0.417720 0.499970 -0.589982
O3    O     O_R   0.629740 0.582280 0.499970 -0.561564
O4    O     O_R   0.370260 0.417720 0.500030 -0.561545
O5    O     O_R   0.499980 0.582260 0.316850 -0.585133
O6    O     O_R   0.500020 0.417740 0.683150 -0.585130
O7    O     O_R   0.500020 0.582260 0.683150 -0.595060
O8    O     O_R   0.499980 0.417740 0.316850 -0.595053
Cl1   Cl    Cl    0.751008 0.548971 0.251521 -0.648594
Cl2   Cl    Cl    0.248992 0.450974 0.748460 -0.648573
N3    N     N_3   0.761663 0.457150 0.724902 -0.497163
H13   H     H_    0.722928 0.395192 0.709016 0.234312
H14   H     H_    0.719809 0.516063 0.744400 0.206343
N4    N     N_3   0.238334 0.542956 0.275129 -0.497164
H15   H     H_    0.280222 0.484081 0.255586 0.206350
H16   H     H_    0.277033 0.604931 0.291074 0.234323
Cl3   Cl    Cl    0.909698 0.437375 0.877083 -0.529611
Cl4   Cl    Cl    0.090304 0.562518 0.122887 -0.529615
N5    N     N_3   0.659502 0.895341 0.237137 -0.596976
H17   H     H_    0.725999 0.914565 0.249974 0.239753
H18   H     H_    0.640338 0.914750 0.145988 0.224916
N6    N     N_3   0.340563 0.104656 0.762932 -0.596982
H19   H     H_    0.274059 0.085444 0.750134 0.239754
H20   H     H_    0.359752 0.085240 0.854068 0.224917
N7    N     N_3   0.340565 0.894893 0.762944 -0.609870
H21   H     H_    0.274070 0.914293 0.750222 0.237108
H22   H     H_    0.359817 0.914016 0.854061 0.225637
N8    N     N_3   0.659539 0.105108 0.237154 -0.609846
H23   H     H_    0.726028 0.085741 0.250011 0.237099
H24   H     H_    0.640391 0.085958 0.146000 0.225648

loop_
_geom_bond_atom_site_label_1
_geom_bond_atom_site_label_2
_ccdc_geom_bond_type
C14   H12   S    
C27   C29   S    
Cu2   O8    S    
C19   C20   A    
C9    H7    S    
C10   H8    S    
C1    O4    A    
C6    C9    A    
Cu1   O5    S    
C39   C41   A    
C29   H5    S    
N5    H17   S    
Cu2   O6    S    
C15   C19   A    
C17   C23   A    
C23   N7    S    
C18   C24   A    
C35   C37   A    
C8    C42   A    
C29   C32   S    
C1    O1    A    
C30   C31   S    
C2    O2    A    
C13   N1    A    
C29   C33   S    
C8    Cl4   S    
C25   O5    A    
N3    H14   S    
C26   O6    A    
C11   C17   A    
Cu2   N2    S    
C31   C33   S    
C11   H9    S    
C2    O3    A    
Cu1   O1    S    
C25   C34   S    
C12   N2    A    
C40   C42   A    
C30   H6    S    
C28   H4    S    
N5    H18   S    
C27   C34   S    
C14   N2    A    
C30   C34   S    
N8    H24   S    
C27   C31   S    
Cu1   O7    S    
C28   C32   S    
N6    H20   S    
N8    H23   S    
N6    H19   S    
C7    Cl3   S    
Cu2   O4    S    
C32   C34   S    
Cu1   Cu2   S    
C26   C33   S    
N7    H21   S    
C35   Cl1   S    
C16   C20   A    
C39   N3    S    
C1    C38   S    
N4    H16   S    
N7    H22   S    
C28   C33   S    
C13   C15   A    
C14   C16   A    
C4    C6    A    
C12   C18   A    
C3    C4    A    
Cu1   O3    S    
C27   H3    S    
C7    C9    A    
C3    C41   A    
C16   C22   A    
C40   N4    S    
C26   O7    A    
C32   H2    S    
C25   O8    A    
N4    H15   S    
C3    C5    A    
C36   Cl2   S    
C28   C30   S    
C22   N6    S    
C5    C10   A    
C37   C39   A    
C38   C40   A    
C2    C37   S    
C4    C42   A    
Cu2   O2    S    
C5    C35   A    
C36   C38   A    
C17   C19   A    
C6    C36   A    
C18   C20   A    
C7    C41   A    
N3    H13   S    
Cu1   N1    S    
C15   C21   A    
C8    C10   A    
C31   H1    S    
C21   C24   A    
C21   N5    S    
C22   C23   A    
C11   N1    A    
C24   N8    S    
C12   H10   S    
C13   H11   S    
