data_mof_unit_65773.cif
_audit_creation_date              2013-03-05T16:20:45-0500
_audit_creation_method            fapswitch 2.2
_symmetry_space_group_name_H-M    P1
_symmetry_Int_Tables_number       1
_space_group_crystal_system       triclinic
_cell_length_a                    18.747706
_cell_length_b                    18.773875
_cell_length_c                    18.8958
_cell_angle_alpha                 109.553755
_cell_angle_beta                  109.74521
_cell_angle_gamma                 109.206962
_cell_volume                      5113.78615486

loop_
_atom_site_label
_atom_site_type_symbol
_atom_site_description
_atom_site_fract_x
_atom_site_fract_y
_atom_site_fract_z
_atom_type_partial_charge
O1    O     O_R   0.410140 0.357660 0.448100 -0.597187
O2    O     O_R   0.409510 0.462000 0.551890 -0.585473
C1    C     C_R   0.381308 0.381124 0.500116 0.797118
O3    O     O_R   0.590970 0.447830 0.538770 -0.594578
O4    O     O_R   0.590340 0.552170 0.642560 -0.589624
C2    C     C_R   0.621318 0.501880 0.619457 0.770632
Cu1   Cu    Cu3+1 0.500370 0.438220 0.438550 0.929314
Cu2   Cu    Cu3+1 0.499630 0.561780 0.561450 0.952984
O5    O     O_R   0.590490 0.538000 0.448110 -0.586927
O6    O     O_R   0.589860 0.642340 0.551900 -0.583615
O7    O     O_R   0.409660 0.447830 0.357440 -0.588169
O8    O     O_R   0.409030 0.552170 0.461230 -0.581209
C3    C     C_R   0.619035 0.618921 0.500567 0.790890
C4    C     C_R   0.380863 0.500087 0.380824 0.799540
C5    C     C_3   0.646311 0.444752 0.720403 -0.386001
H1    H     H_    0.596569 0.377649 0.664796 0.154838
H2    H     H_    0.611785 0.471817 0.749053 0.190365
C6    C     C_3   0.715652 0.440627 0.789053 -0.323738
H3    H     H_    0.709953 0.458329 0.848356 0.211237
H4    H     H_    0.702120 0.372081 0.763318 0.165497
H5    H     H_    0.697019 0.397708 0.597968 0.191205
H6    H     H_    0.802403 0.398834 0.703831 0.174551
C7    C     C_3   0.741966 0.465727 0.653457 -0.364982
C8    C     C_3   0.755361 0.596367 0.766861 -0.411921
C9    C     C_3   0.689995 0.502224 0.688389 0.099955
H7    H     H_    0.786808 0.638982 0.744813 0.121829
H8    H     H_    0.720059 0.624410 0.793113 0.222094
C10   C     C_3   0.809170 0.501063 0.810331 0.043515
C11   C     C_3   0.812747 0.466121 0.725488 -0.480722
C12   C     C_3   0.826474 0.596215 0.838609 0.217963
H9    H     H_    0.890183 0.634671 0.844763 0.110342
H10   H     H_    0.773195 0.505778 0.629249 0.163233
H11   H     H_    0.878194 0.507352 0.736694 0.176749
C13   C     C_R   0.267021 0.228285 0.435497 0.067945
C14   C     C_R   0.315229 0.315017 0.501283 -0.113531
C15   C     C_R   0.296823 0.336560 0.569871 -0.191438
H12   H     H_    0.332325 0.402884 0.623350 0.167038
C16   C     C_R   0.232364 0.271652 0.570160 -0.213401
H13   H     H_    0.219239 0.289091 0.623243 0.140386
C17   C     C_R   0.184947 0.184987 0.501394 -0.050116
C18   C     C_R   0.204483 0.166411 0.435424 0.047849
C19   C     C_3   0.182014 0.094113 0.352888 -0.463695
C20   C     C_3   0.253213 0.164352 0.352187 -0.013517
H14   H     H_    0.199460 0.045930 0.363387 0.173000
H15   H     H_    0.114149 0.065870 0.300309 0.217198
H16   H     H_    0.310638 0.155640 0.359247 0.163493
C21   C     C_R   0.235650 0.427604 0.252018 0.119862
C22   C     C_R   0.315848 0.501747 0.314611 -0.077857
C23   C     C_R   0.331106 0.579209 0.311770 -0.215066
H17   H     H_    0.392918 0.638911 0.359175 0.148067
C24   C     C_R   0.266251 0.579141 0.246185 -0.206787
H18   H     H_    0.279394 0.639056 0.244548 0.158928
C25   C     C_R   0.184600 0.502194 0.184589 -0.096091
C26   C     C_R   0.172465 0.428209 0.191202 0.130343
C27   C     C_3   0.108838 0.334563 0.152375 -0.445887
C28   C     C_3   0.180837 0.334183 0.222290 -0.503166
H19   H     H_    0.051321 0.325545 0.161012 0.206285
H20   H     H_    0.093489 0.294152 0.085236 0.190301
H21   H     H_    0.165050 0.325562 0.271541 0.192790
H22   H     H_    0.206777 0.293360 0.195325 0.210268
C29   C     C_R   0.665520 0.699677 0.430683 0.092341
C30   C     C_R   0.685122 0.686953 0.501847 -0.066916
C31   C     C_R   0.765966 0.747848 0.578583 -0.212020
H23   H     H_    0.780552 0.742731 0.636678 0.141724
C32   C     C_R   0.830379 0.812652 0.578838 -0.207669
H24   H     H_    0.893875 0.856643 0.637286 0.160873
C33   C     C_R   0.813165 0.818258 0.502954 -0.094571
C34   C     C_R   0.728327 0.764643 0.431390 0.144442
C35   C     C_3   0.697857 0.708497 0.337969 -0.468194
C36   C     C_3   0.628781 0.637139 0.337365 -0.471873
H25   H     H_    0.670007 0.733639 0.296750 0.204509
H26   H     H_    0.747313 0.692598 0.328913 0.189546
H27   H     H_    0.561100 0.621350 0.296047 0.197922
H28   H     H_    0.638177 0.579842 0.327793 0.213312
O9    O     O_R   0.945590 0.357690 0.907690 -0.587737
O10   O     O_R   0.049970 0.462000 0.907620 -0.586862
C37   C     C_R   0.997768 0.381332 0.879280 0.794890
O11   O     O_R   0.854460 0.447890 0.906680 -0.593208
O12   O     O_R   0.958840 0.552200 0.906620 -0.587845
C38   C     C_R   0.877679 0.500417 0.878445 0.801956
Cu3   Cu    Cu3+1 0.935500 0.438280 0.997350 0.943208
Cu4   Cu    Cu3+1 0.059110 0.561800 0.997270 0.968562
O13   O     O_R   0.944630 0.538080 0.087010 -0.595442
O14   O     O_R   0.049020 0.642390 0.086940 -0.565408
O15   O     O_R   0.035760 0.447880 0.088010 -0.588255
O16   O     O_R   0.140150 0.552190 0.087940 -0.592088
C39   C     C_R   0.997627 0.619093 0.116144 0.837273
C40   C     C_R   0.116890 0.500525 0.116974 0.790500
O17   O     O_R   0.051980 0.090160 0.642200 -0.586711
O18   O     O_R   0.947040 0.090210 0.537310 -0.586774
C41   C     C_R   0.999447 0.118792 0.617983 0.795013
O19   O     O_R   0.142640 0.090190 0.552500 -0.586073
O20   O     O_R   0.037710 0.090250 0.447610 -0.583745
C42   C     C_R   0.118574 0.118094 0.499892 0.796579
Cu5   Cu    Cu3+1 0.062130 0.000020 0.562160 0.946597
Cu6   Cu    Cu3+1 0.937870 0.000080 0.437940 0.956252
O21   O     O_R   0.052960 0.909890 0.462790 -0.586136
O22   O     O_R   0.948020 0.909940 0.357900 -0.578325
O23   O     O_R   0.962290 0.909850 0.552490 -0.588534
O24   O     O_R   0.857360 0.909910 0.447600 -0.582919
C43   C     C_R   0.000369 0.881134 0.381733 0.795578
C44   C     C_R   0.880881 0.881493 0.500206 0.789937
C45   C     C_R   0.000980 0.244957 0.817926 0.126338
C46   C     C_R   0.996915 0.315259 0.812039 -0.084349
C47   C     C_R   0.993457 0.320667 0.738359 -0.215473
H29   H     H_    0.989884 0.374198 0.730521 0.149752
C48   C     C_R   0.993220 0.255469 0.673494 -0.210080
H30   H     H_    0.989655 0.260032 0.616871 0.156467
C49   C     C_R   0.999409 0.186048 0.683351 -0.089828
C50   C     C_R   0.003987 0.184333 0.757453 0.126157
C51   C     C_3   0.010492 0.134732 0.804222 -0.465046
C52   C     C_3   0.008290 0.204714 0.873937 -0.482372
H31   H     H_    0.951503 0.069143 0.767937 0.194625
H32   H     H_    0.074110 0.136038 0.827284 0.207589
H33   H     H_    0.948491 0.179465 0.878644 0.207864
H34   H     H_    0.071025 0.246889 0.936777 0.189717
C53   C     C_R   0.922077 0.687281 0.172672 0.213136
C54   C     C_R   0.999221 0.687297 0.182790 -0.085514
C55   C     C_R   0.079345 0.758671 0.254946 -0.208263
H35   H     H_    0.140599 0.762781 0.262019 0.150348
C56   C     C_R   0.080353 0.822419 0.321170 -0.212317
H36   H     H_    0.142287 0.875293 0.378081 0.153681
C57   C     C_R   0.001271 0.816382 0.314011 -0.095758
C58   C     C_R   0.923200 0.751411 0.236781 0.155692
C59   C     C_3   0.840210 0.688035 0.223987 -0.520993
C60   C     C_3   0.838950 0.617674 0.153270 -0.451651
H37   H     H_    0.850127 0.679619 0.281448 0.188006
H38   H     H_    0.786078 0.701216 0.198766 0.217839
H39   H     H_    0.847600 0.568329 0.169627 0.200129
H40   H     H_    0.784389 0.590600 0.087130 0.233843
N1    N     N_3   0.217464 0.179513 0.280331 -0.565624
H41   H     H_    0.168738 0.194656 0.281458 0.228840
H42   H     H_    0.267766 0.234050 0.290113 0.232767
N2    N     N_R   0.832994 0.639073 0.923215 0.109234
O25   O     O_R   0.907351 0.705087 0.989518 -0.369725
O26   O     O_R   0.764589 0.615337 0.932194 -0.401642

loop_
_geom_bond_atom_site_label_1
_geom_bond_atom_site_label_2
_geom_bond_distance
_ccdc_geom_bond_type
C29   C36   1.491191 S    
C5    C6    1.540386 S    
O13   C39   1.295815 A    
C27   C28   1.541133 S    
C31   C32   1.401411 A    
O20   C42   1.291695 A    
H6    C11   1.113557 S    
C18   C19   1.488279 S    
C14   C15   1.416138 A    
O11   Cu3   1.976024 S    
C8    H8    1.112436 S    
Cu3   Cu4   2.686399 S    
C57   C58   1.396545 A    
C25   C26   1.387133 A    
Cu1   O7    1.974706 S    
C47   C48   1.410323 A    
C43   C57   1.449992 S    
C45   C50   1.348875 A    
O4    C2    1.294391 A    
C7    C11   1.542710 S    
C10   C11   1.550040 S    
C53   C58   1.381039 A    
C8    H7    1.113525 S    
C13   C14   1.389650 A    
C12   H9    1.115311 S    
O7    C4    1.291784 A    
Cu5   O23   1.969683 S    
C5    C9    1.546304 S    
C2    C9    1.486651 S    
C32   C33   1.407819 A    
C60   H40   1.111537 S    
C5    H1    1.113391 S    
C11   H11   1.113247 S    
C5    H2    1.113228 S    
C6    H3    1.110183 S    
C35   H25   1.111519 S    
O5    C3    1.294424 A    
C50   C51   1.488539 S    
C54   C55   1.407046 A    
C3    C30   1.443900 S    
Cu5   Cu6   2.691717 S    
C34   C35   1.493477 S    
C23   C24   1.412088 A    
Cu6   O22   1.969905 S    
C36   H28   1.112126 S    
C59   H38   1.111611 S    
C48   H30   1.083216 S    
O14   C39   1.291392 A    
O17   C41   1.294904 A    
C53   C60   1.491354 S    
C48   C49   1.412140 A    
C35   C36   1.519939 S    
C13   C18   1.351179 A    
C19   H14   1.111558 S    
O3    Cu1   1.974873 S    
O19   C42   1.291220 A    
C46   C47   1.410976 A    
Cu3   O13   1.969347 S    
C55   C56   1.401878 A    
H5    C7    1.113054 S    
O16   C40   1.292867 A    
C33   C34   1.397792 A    
Cu1   Cu2   2.685368 S    
C6    C10   1.559600 S    
C8    C9    1.554709 S    
C39   C54   1.447893 S    
O3    C2    1.294739 A    
O10   Cu4   1.969155 S    
O9    Cu3   1.970847 S    
C4    C22   1.439679 S    
C60   H39   1.112065 S    
C12   N2    1.469837 S    
Cu4   O16   1.976025 S    
O19   Cu5   1.972070 S    
C24   H18   1.083051 S    
C45   C52   1.488335 S    
O1    C1    1.295419 A    
C19   H15   1.111936 S    
O17   Cu5   1.969903 S    
C35   H26   1.110489 S    
C30   C31   1.404290 A    
O12   Cu4   1.973593 S    
C21   C22   1.384359 A    
C1    C14   1.449371 S    
Cu2   O8    1.974873 S    
O21   C43   1.298228 A    
C36   H27   1.111617 S    
O24   C44   1.296450 A    
O11   C38   1.293547 A    
C51   H31   1.111718 S    
O10   C37   1.290719 A    
O9    C37   1.292562 A    
C56   H36   1.083241 S    
C21   C26   1.349720 A    
C17   C18   1.382459 A    
O8    C4    1.291149 A    
C25   C40   1.447738 S    
C32   H24   1.083119 S    
O20   Cu6   1.969682 S    
Cu4   O14   1.970966 S    
C27   H19   1.111472 S    
C59   C60   1.519089 S    
O12   C38   1.294861 A    
C19   C20   1.544750 S    
N1    H41   1.046770 S    
C52   H34   1.111079 S    
O15   C40   1.294662 A    
Cu1   O5    1.970058 S    
C26   C27   1.489128 S    
C15   H12   1.082854 S    
C51   C52   1.541787 S    
O1    Cu1   1.971577 S    
O2    Cu2   1.970058 S    
C13   C20   1.497072 S    
C17   C42   1.431922 S    
N1    H42   1.045009 S    
O6    C3    1.290179 A    
O4    Cu2   1.974706 S    
N2    O26   1.301386 A    
C55   H35   1.083357 S    
Cu5   O21   1.970312 S    
O18   Cu6   1.970308 S    
N2    O25   1.301048 A    
O22   C43   1.293084 A    
C47   H29   1.083351 S    
C28   H21   1.111443 S    
C7    H10   1.113075 S    
C41   C49   1.441248 S    
C20   N1    1.463949 S    
O2    C1    1.292286 A    
C10   C12   1.563494 S    
C49   C50   1.385575 A    
C16   C17   1.406630 A    
C29   C34   1.381214 A    
O18   C41   1.292514 A    
C16   H13   1.083415 S    
C22   C23   1.410135 A    
Cu6   O24   1.972072 S    
C15   C16   1.409024 A    
C51   H32   1.111510 S    
C6    H4    1.113463 S    
C7    C9    1.557404 S    
C29   C30   1.392553 A    
C10   C38   1.486629 S    
C20   H16   1.112220 S    
C8    C12   1.548966 S    
C56   C57   1.404609 A    
C31   H23   1.083560 S    
C28   H22   1.111198 S    
O23   C44   1.297437 A    
Cu2   O6    1.971578 S    
C23   H17   1.083288 S    
C27   H20   1.110524 S    
C45   C46   1.385239 A    
C59   H37   1.111855 S    
C21   C28   1.487362 S    
C37   C46   1.439290 S    
C24   C25   1.414386 A    
C53   C54   1.393231 A    
C52   H33   1.111476 S    
Cu3   O15   1.973573 S    
C33   C44   1.455305 S    
C58   C59   1.493355 S    
