data_mof_unit_52666.cif
_audit_creation_date              2012-12-11T15:37:17-0500
_audit_creation_method            fapswitch 2.2
_symmetry_space_group_name_H-M    P1
_symmetry_Int_Tables_number       1
_space_group_crystal_system       triclinic
_cell_length_a                    8.624546
_cell_length_b                    17.286535
_cell_length_c                    18.897848
_cell_angle_alpha                 97.751444
_cell_angle_beta                  94.477934
_cell_angle_gamma                 99.02624
_cell_volume                      2742.92402355

loop_
_atom_site_label
_atom_site_type_symbol
_atom_type_description
_atom_site_fract_x
_atom_site_fract_y
_atom_site_fract_z
_atom_type_partial_charge
Ba1   Ba    Ba6+2 0.162080 0.538580 0.468810 1.757282
Ba2   Ba    Ba6+2 0.648090 0.461410 0.531130 1.701302
C1    C     C_3   0.395580 0.771807 0.224487 0.506254
C2    C     C_3   0.379871 0.735066 0.295117 0.345052
C3    C     C_3   0.576957 0.716271 0.677496 0.695530
C4    C     C_3   0.660039 0.789393 0.730328 0.513145
C5    C     C_3   0.859979 0.230967 0.698552 0.352037
C6    C     C_3   0.834329 0.156857 0.740522 0.058883
C7    C     C_3   0.356556 0.263735 0.715951 0.334648
C8    C     C_3   0.320107 0.210830 0.775747 0.983700
C9    C     C_2   0.749288 0.724736 0.491326 -0.305275
C10   C     C_3   0.628539 0.779225 0.498717 0.012035
C11   C     C_2   0.699989 0.864359 0.499076 -0.199213
C12   C     C_3   0.920747 0.750319 0.285650 0.363686
C13   C     C_2   0.857980 0.887443 0.509972 -0.066715
C14   C     C_2   0.958966 0.826902 0.526262 0.502322
C15   C     C_1   0.894271 0.750736 0.522767 0.062249
C16   C     C_R   0.105226 0.137776 0.518035 -0.140395
C17   C     C_R   0.163627 0.218865 0.534127 0.008104
C18   C     C_R   0.925780 0.247789 0.471442 0.013432
C19   C     C_R   0.867687 0.165943 0.455701 -0.125347
C20   C     C_R   0.954996 0.109714 0.480224 0.014036
C21   C     C_2   0.929554 0.972759 0.513191 -0.019176
C22   C     C_2   0.887434 0.022536 0.467194 0.043358
C23   C     C_3   0.911007 0.802606 0.224720 -0.124634
C24   C     C_R   0.073366 0.273644 0.511574 -0.271199
C25   C     C_R   0.616207 0.528056 0.301461 0.308997
C26   C     C_R   0.460033 0.493805 0.277594 0.002978
C27   C     C_R   0.405759 0.487960 0.204890 -0.231286
C28   C     C_R   0.511475 0.507359 0.154251 -0.010776
C29   C     C_R   0.672454 0.534082 0.178603 -0.234885
C30   C     C_R   0.723203 0.546942 0.252205 -0.030704
C31   C     C_R   0.485594 0.566101 0.038488 0.030471
C32   C     C_R   0.425855 0.559721 0.966357 -0.077863
C33   C     C_R   0.333014 0.489878 0.930000 0.022295
C34   C     C_3   0.721654 0.359725 0.310904 0.378524
C35   C     C_R   0.299235 0.425418 0.966937 -0.091635
C36   C     C_R   0.359294 0.428957 0.038736 0.044933
C37   C     C_R   0.452905 0.500337 0.076358 0.089945
C38   C     C_R   0.132358 0.439501 0.822332 -0.091393
C39   C     C_R   0.089490 0.428233 0.747978 0.016259
C40   C     C_R   0.347519 0.501215 0.731597 0.019761
C41   C     C_R   0.387099 0.514187 0.805877 -0.123984
C42   C     C_R   0.281883 0.482079 0.851958 -0.002284
C43   C     C_R   0.199113 0.457459 0.702669 -0.266415
C44   C     C_3   0.628818 0.322956 0.238154 0.524915
C45   C     C_3   0.001445 0.643397 0.700256 0.355318
C46   C     C_3   0.913957 0.655379 0.767365 -0.303776
C47   C     C_3   0.174087 0.294992 0.322404 0.381474
C48   C     C_3   0.081785 0.280784 0.248332 -0.353708
H1    H     H_    0.255144 0.718108 0.303182 0.032485
H2    H     H_    0.534822 0.357418 0.227862 -0.053400
H3    H     H_    0.950927 0.584489 0.668845 0.076970
H4    H     H_    0.959014 0.714471 0.799522 0.099799
H5    H     H_    0.929512 0.609172 0.801678 0.071167
H6    H     H_    0.786698 0.649341 0.753249 0.156608
H7    H     H_    0.110560 0.326363 0.363069 0.024398
H8    H     H_    0.053665 0.337493 0.234000 0.097356
H9    H     H_    0.971086 0.238325 0.248237 0.113865
H10   H     H_    0.152390 0.255536 0.207053 0.128576
H11   H     H_    0.429541 0.679340 0.289940 -0.008493
H12   H     H_    0.740547 0.773132 0.771948 0.018112
H13   H     H_    0.730883 0.831835 0.701179 -0.007678
H14   H     H_    0.820376 0.771251 0.181009 0.171175
H15   H     H_    0.988289 0.250355 0.698417 0.023128
H16   H     H_    0.243416 0.279830 0.695709 -0.044399
H17   H     H_    0.180189 0.097070 0.533624 0.096172
H18   H     H_    0.018239 0.995463 0.558068 0.114318
H19   H     H_    0.621832 0.907353 0.494773 0.124046
H20   H     H_    0.753206 0.146805 0.425443 0.096219
H21   H     H_    0.709937 0.662388 0.471300 0.162987
H22   H     H_    0.121329 0.336234 0.522477 0.066379
H23   H     H_    0.501465 0.548126 0.827223 0.075158
H24   H     H_    0.451665 0.610268 0.938372 0.080499
H25   H     H_    0.282926 0.464285 0.187314 0.112053
H26   H     H_    0.230938 0.370348 0.938699 0.097514
H27   H     H_    0.047427 0.417239 0.857146 0.067428
H28   H     H_    0.757179 0.547515 0.140793 0.105671
H29   H     H_    0.164310 0.451658 0.645683 0.054004
H30   H     H_    0.021452 0.808289 0.198970 0.084150
H31   H     H_    0.636190 0.380895 0.346563 0.041772
H32   H     H_    0.811505 0.411293 0.304966 -0.064925
O1    O     O_2   0.166667 0.691630 0.546720 -0.474714
O2    O     O_3   0.324987 0.336357 0.318055 -0.617759
O3    O     O_3   0.985925 0.684063 0.255390 -0.632470
O4    O     O_2   0.643630 0.308330 0.453260 -0.432893
O5    O     O_3   0.916470 0.406310 0.458240 -0.479105
O6    O     O_3   0.419940 0.355340 0.582140 -0.480590
O7    O     O_3   0.797380 0.303043 0.339045 -0.630619
O8    O     O_3   0.383960 0.539280 0.585630 -0.468498
O9    O     O_3   0.845010 0.394580 0.619730 -0.480272
O10   O     O_2   0.782420 0.446543 0.747955 -0.498415
O11   O     O_3   0.793201 0.294898 0.731324 -0.610841
O12   O     O_3   0.893830 0.593690 0.541700 -0.443264
O13   O     O_3   0.426330 0.460710 0.414310 -0.396430
O14   O     O_2   0.638540 0.536570 0.671920 -0.417701
O15   O     O_3   0.500977 0.660481 0.716969 -0.666473
O16   O     O_2   0.478430 0.218115 0.523728 -0.477751
O17   O     O_3   0.422441 0.222981 0.658652 -0.595749
O18   O     O_3   0.390350 0.644650 0.417800 -0.474214
O19   O     O_2   0.308713 0.780752 0.467605 -0.421030
O20   O     O_3   0.998104 0.706718 0.660804 -0.581434
O21   O     O_3   0.457620 0.789069 0.354535 -0.645608
O22   O     O_2   0.171750 0.463380 0.328050 -0.483020
O23   O     O_3   0.965290 0.605410 0.380210 -0.427601
O24   O     O_2   0.041596 0.541773 0.252636 -0.485913
P1    P     P_3+3 0.992230 0.679190 0.566750 1.124099
P2    P     P_3+3 0.339610 0.439630 0.337240 1.032075
P3    P     P_3+3 0.927458 0.593205 0.286107 0.998860
P4    P     P_3+3 0.818060 0.320800 0.433200 1.024365
P5    P     P_3+3 0.881860 0.388559 0.711243 0.915558
P6    P     P_3+3 0.446992 0.747394 0.434415 0.960522
P7    P     P_3+3 0.469892 0.560080 0.675674 0.999239
P8    P     P_3+3 0.368206 0.253034 0.575475 0.960445
F1    F     F_    0.556772 0.246046 0.240684 -0.673990
C49   C     C_3   0.728350 0.324270 0.174740 -0.370501
H33   H     H_    0.649929 0.315412 0.123880 0.112715
H34   H     H_    0.808689 0.381874 0.178538 0.043762
H35   H     H_    0.796541 0.275147 0.171350 0.139914
C50   C     C_3   0.169994 0.645854 0.725933 -0.351168
H36   H     H_    0.226406 0.706686 0.751022 0.172986
H37   H     H_    0.180837 0.606175 0.766461 0.056077
H38   H     H_    0.223328 0.627757 0.676969 0.065152
C51   C     C_3   0.194081 0.215276 0.345164 -0.324381
H39   H     H_    0.266217 0.225071 0.397777 0.114213
H40   H     H_    0.077608 0.179539 0.349618 0.053229
H41   H     H_    0.255829 0.181258 0.305409 0.164991
C52   C     C_3   0.289316 0.719112 0.161693 -0.379587
H42   H     H_    0.312223 0.657295 0.157670 0.112197
H43   H     H_    0.163401 0.717718 0.167868 0.109599
H44   H     H_    0.313200 0.741159 0.110397 0.134838
F2    F     F_    0.547073 0.775170 0.206260 -0.772364
F3    F     F_    0.686676 0.685802 0.637637 -0.773386
C53   C     C_3   0.456406 0.742626 0.627763 -0.165569
H45   H     H_    0.430550 0.697349 0.579316 0.118184
H46   H     H_    0.349104 0.750316 0.654466 0.128500
H47   H     H_    0.501106 0.801198 0.612701 0.046863
F4    F     F_    0.550718 0.827113 0.765058 -0.708525
C54   C     C_3   0.366266 0.857808 0.231860 -0.231929
H48   H     H_    0.250303 0.864521 0.249397 0.025765
H49   H     H_    0.457306 0.896526 0.271532 0.139007
H50   H     H_    0.374976 0.880190 0.179645 0.114058
C55   C     C_3   0.789068 0.206764 0.620815 -0.328806
H51   H     H_    0.808584 0.256512 0.590582 0.126248
H52   H     H_    0.842319 0.157605 0.595691 0.043452
H53   H     H_    0.661387 0.186271 0.617070 0.181814
C56   C     C_3   0.662415 0.111798 0.728335 -0.312239
H54   H     H_    0.632011 0.077496 0.673583 0.125447
H55   H     H_    0.640726 0.069017 0.766902 0.152020
H56   H     H_    0.581596 0.154281 0.734716 0.192352
C57   C     C_3   0.938507 0.095943 0.712167 -0.285526
H57   H     H_    0.964762 0.057043 0.752183 0.164051
H58   H     H_    0.880336 0.056134 0.663043 0.071573
H59   H     H_    0.049323 0.125754 0.695570 0.191366
C58   C     C_3   0.875861 0.184072 0.823051 -0.207093
H60   H     H_    0.771212 0.176380 0.853451 0.062370
H61   H     H_    0.958205 0.149263 0.847213 0.158707
H62   H     H_    0.929254 0.247703 0.836066 0.164049
C59   C     C_3   0.463860 0.340895 0.747817 -0.376826
H63   H     H_    0.491082 0.379774 0.707336 0.169507
H64   H     H_    0.404583 0.369710 0.790509 0.054505
H65   H     H_    0.574743 0.331835 0.774770 0.161905
F5    F     F_    0.179330 0.224823 0.798836 -0.797411
C60   C     C_3   0.435507 0.226302 0.844566 -0.276090
H66   H     H_    0.407103 0.178009 0.877130 0.144121
H67   H     H_    0.424189 0.282737 0.878019 0.068534
H68   H     H_    0.559258 0.229600 0.833309 0.035001
C61   C     C_3   0.028021 0.795173 0.352236 -0.289193
H69   H     H_    0.047018 0.754099 0.390897 0.136265
H70   H     H_    0.143696 0.822813 0.339030 0.111706
H71   H     H_    0.973657 0.843394 0.379657 0.060455
F6    F     F_    0.304310 0.131513 0.747429 -0.709852
C62   C     C_3   0.771627 0.992345 0.401302 -0.396834
H72   H     H_    0.812380 0.020951 0.355303 0.119064
H73   H     H_    0.761164 0.927751 0.384977 0.123362
H74   H     H_    0.653510 0.006486 0.411624 0.126981
F7    F     F_    0.113634 0.851865 0.550553 -0.680100
C63   C     C_3   0.755837 0.728557 0.308590 -0.293816
H75   H     H_    0.678192 0.692203 0.263177 0.127769
H76   H     H_    0.755692 0.694783 0.354006 0.051309
H77   H     H_    0.712115 0.783484 0.327003 0.145533
C64   C     C_3   0.584811 0.644165 0.071864 -0.396628
H78   H     H_    0.539941 0.694172 0.050559 0.146177
H79   H     H_    0.582641 0.654913 0.130620 0.179120
H80   H     H_    0.708479 0.645089 0.059107 0.110429
C65   C     C_3   0.324443 0.353412 0.070560 -0.410779
H81   H     H_    0.352264 0.303136 0.033331 0.128363
H82   H     H_    0.395205 0.354973 0.121871 0.128249
H83   H     H_    0.197370 0.341332 0.078851 0.115950
F8    F     F_    0.667465 0.538418 0.372282 -0.719473
C66   C     C_3   0.878407 0.886769 0.245896 -0.424853
H84   H     H_    0.760014 0.886087 0.264567 0.188210
H85   H     H_    0.970333 0.921441 0.287403 0.118261
H86   H     H_    0.880923 0.917572 0.197995 0.142467

loop_
_geom_bond_atom_site_label_1
_geom_bond_atom_site_label_2
_ccdc_geom_bond_type
C34   O7    S    
C41   H23   S    
C55   H53   S    
C52   H44   S    
Ba1   O5    S    
C8    F5    S    
C58   H61   S    
C23   H30   S    
C24   H22   S    
C56   H54   S    
C10   P6    S    
C52   H42   S    
C53   H47   S    
C5    C55   S    
C63   H75   S    
C5    C6    S    
O5    P4    S    
C62   H72   S    
C14   F7    S    
O19   P6    D    
C46   H4    S    
C60   H67   S    
C31   C37   A    
C11   H19   S    
C44   F1    S    
C3    C4    S    
C48   H9    S    
C47   O2    S    
O1    P1    D    
C60   H66   S    
O4    P4    D    
C35   C36   A    
Ba1   Ba2   S    
O3    P3    S    
C15   P1    S    
C36   C37   A    
C54   H50   S    
C9    H21   S    
C57   H59   S    
C7    C59   S    
C8    F6    S    
C13   C14   S    
C2    O21   S    
C44   H2    S    
C47   H7    S    
C49   H33   S    
Ba2   O8    S    
C32   C33   A    
O8    P7    S    
O9    P5    S    
C6    C58   S    
C17   C24   A    
C7    H16   S    
C64   H78   S    
C61   H71   S    
C9    C15   D    
C59   H63   S    
C34   H32   S    
C14   C15   D    
C21   C22   D    
C59   H64   S    
Ba2   O6    S    
C25   F8    S    
C7    C8    S    
C46   H6    S    
C50   H38   S    
C45   H3    S    
C61   H70   S    
C46   H5    S    
C7    O17   S    
C45   O20   S    
C19   C20   A    
C58   H62   S    
O17   P8    S    
C22   C62   S    
Ba1   O18   S    
C50   H37   S    
C62   H73   S    
C3    C53   S    
C5    O11   S    
C12   C61   S    
O12   P1    S    
C56   H55   S    
C30   P3    S    
C2    H1    S    
C66   H84   S    
C48   H8    S    
C45   C46   S    
C61   H69   S    
Ba2   O12   S    
C6    C57   S    
C23   C66   S    
C1    C52   S    
C16   C17   A    
C53   H46   S    
C17   P8    S    
C16   H17   S    
C36   C65   S    
C47   C51   S    
O7    P4    S    
C1    F2    S    
O21   P6    S    
C23   H14   S    
C21   H18   S    
C4    F4    S    
C3    F3    S    
C41   C42   A    
C66   H85   S    
C27   C28   A    
C5    H15   S    
C4    H13   S    
C40   P7    S    
C29   C30   A    
C34   H31   S    
Ba1   O13   S    
C56   H56   S    
C31   C32   A    
C59   H65   S    
Ba2   O5    S    
C43   H29   S    
C18   C19   A    
C34   C44   S    
C33   C42   S    
Ba1   O22   S    
C12   C63   S    
O11   P5    S    
C51   H41   S    
C18   P4    S    
C38   C39   A    
C35   H26   S    
C32   H24   S    
O18   P6    S    
C11   C13   D    
C20   C22   S    
O14   P7    D    
C6    C56   S    
C1    C54   S    
C40   C41   A    
O15   P7    S    
C1    C2    S    
Ba1   O8    S    
O20   P1    S    
O22   P2    D    
C50   H36   S    
C29   H28   S    
C51   H40   S    
C62   H74   S    
C55   H52   S    
O23   P3    S    
C26   C27   A    
C8    C60   S    
C33   C35   A    
C25   C30   A    
C16   C20   A    
C60   H68   S    
C12   O3    S    
C3    O15   S    
C52   H43   S    
Ba1   O12   S    
C63   H76   S    
C54   H48   S    
O10   P5    D    
C53   H45   S    
C27   H25   S    
C31   C64   S    
Ba1   O1    S    
C49   H35   S    
C44   C49   S    
C19   H20   S    
C48   H10   S    
C4    H12   S    
C65   H83   S    
Ba2   O14   S    
C66   H86   S    
C39   C43   A    
C54   H49   S    
C28   C29   A    
C18   C24   A    
C26   P2    S    
C2    H11   S    
C13   C21   S    
O2    P2    S    
C49   H34   S    
C28   C37   S    
Ba2   O4    S    
C57   H58   S    
C12   C23   S    
O6    P8    S    
Ba2   O9    S    
C64   H79   S    
C63   H77   S    
O16   P8    D    
O13   P2    S    
C40   C43   A    
Ba1   P2    S    
Ba1   P1    S    
C38   C42   A    
C10   C11   S    
C47   C48   S    
C39   P5    S    
C58   H60   S    
C45   C50   S    
C38   H27   S    
Ba2   O13   S    
C65   H81   S    
C65   H82   S    
C57   H57   S    
C64   H80   S    
C55   H51   S    
C9    C10   S    
Ba1   O23   S    
C51   H39   S    
C25   C26   A    
O24   P3    D    
Ba2   P4    S    
