data_mof_unit_32454.cif
_audit_creation_date              2012-12-11T15:43:42-0500
_audit_creation_method            fapswitch 2.2
_symmetry_space_group_name_H-M    P1
_symmetry_Int_Tables_number       1
_space_group_crystal_system       triclinic
_cell_length_a                    14.507067
_cell_length_b                    16.212977
_cell_length_c                    6.994542
_cell_angle_alpha                 90.024688
_cell_angle_beta                  99.065602
_cell_angle_gamma                 89.98339
_cell_volume                      1624.58519924

loop_
_atom_site_label
_atom_site_type_symbol
_atom_type_description
_atom_site_fract_x
_atom_site_fract_y
_atom_site_fract_z
_atom_type_partial_charge
O1    O     O_R   0.831700 0.662810 0.581550 -0.549341
O2    O     O_R   0.168300 0.337190 0.418450 -0.551839
O3    O     O_R   0.168300 0.162810 0.418450 -0.549040
O4    O     O_R   0.831700 0.837190 0.581550 -0.550690
O5    O     O_R   0.842890 0.834390 0.255500 -0.550872
O6    O     O_R   0.157110 0.165610 0.744500 -0.546900
O7    O     O_R   0.157110 0.334390 0.744500 -0.551503
O8    O     O_R   0.842890 0.665610 0.255500 -0.547062
O9    O     O_R   0.661690 0.835580 0.024130 -0.552663
O10   O     O_R   0.338310 0.164420 0.975870 -0.553532
O11   O     O_R   0.338310 0.335580 0.975870 -0.556045
O12   O     O_R   0.661690 0.664420 0.024130 -0.549792
C1    C     C_R   0.863820 0.865542 0.429703 0.699089
C2    C     C_R   0.132988 0.136872 0.568852 0.708902
C3    C     C_R   0.136142 0.365513 0.570314 0.692340
C4    C     C_R   0.866991 0.636858 0.431107 0.702335
C5    C     C_R   0.060625 0.069927 0.536367 -0.170224
C6    C     C_R   0.930359 0.936971 0.459931 -0.166515
C7    C     C_R   0.939313 0.569881 0.463584 -0.173374
C8    C     C_R   0.069555 0.436908 0.540073 -0.167782
H1    H     H_    0.059109 0.068730 0.231619 0.163400
H2    H     H_    0.930051 0.939570 0.763980 0.162109
H3    H     H_    0.940712 0.568727 0.768311 0.164019
H4    H     H_    0.069910 0.439411 0.236027 0.162541
C9    C     C_R   0.962559 0.979629 0.307188 0.304120
C10   C     C_R   0.016829 0.036036 0.685201 0.309948
C11   C     C_R   0.037295 0.479585 0.692791 0.300632
C12   C     C_R   0.983127 0.535939 0.314783 0.304015
O13   O     O_3   0.687240 0.750000 0.366320 -0.343057
O14   O     O_3   0.312760 0.250000 0.633680 -0.337452
V1    V     V_3+5 0.757720 0.750000 0.115230 1.437857
V2    V     V_3+5 0.242280 0.250000 0.884770 1.435029
O15   O     O_R   0.650500 0.664000 0.690740 -0.509356
O16   O     O_R   0.349500 0.336000 0.309260 -0.486803
O17   O     O_R   0.349500 0.164000 0.309260 -0.495834
O18   O     O_R   0.650500 0.836000 0.690740 -0.491194
C13   C     C_R   0.625312 0.638623 0.852647 0.653596
C14   C     C_R   0.374449 0.361893 0.147352 0.650913
C15   C     C_R   0.374369 0.138343 0.147171 0.668837
C16   C     C_R   0.625673 0.862109 0.852784 0.684447
C17   C     C_R   0.031100 0.040889 0.348292 -0.184012
C18   C     C_R   0.957865 0.967514 0.647214 -0.182966
C19   C     C_R   0.968764 0.540859 0.651656 -0.196372
C20   C     C_R   0.042078 0.467403 0.352780 -0.191490
V3    V     V_3+5 0.735670 0.750000 0.607790 1.580755
V4    V     V_3+5 0.264330 0.250000 0.392210 1.605620
O19   O     O_3   0.806150 0.750000 0.906560 -0.396080
O20   O     O_3   0.193850 0.250000 0.093440 -0.397756
H5    H     H_    0.390273 0.008822 0.930677 0.169898
H6    H     H_    0.596469 0.968509 0.119391 0.193738
H7    H     H_    0.606868 0.514462 0.081510 0.166247
H8    H     H_    0.401470 0.471506 0.886775 0.174494
C21   C     C_2   0.545938 0.921423 0.843794 0.216293
C22   C     C_2   0.456677 0.082732 0.156520 0.264842
C23   C     C_2   0.454418 0.420770 0.156963 0.299816
C24   C     C_2   0.543379 0.582532 0.842888 0.285826
C25   C     C_2   0.538621 0.969228 0.000840 -0.152708
C26   C     C_2   0.455743 0.021190 0.024399 -0.161876
C27   C     C_2   0.460322 0.470833 0.003111 -0.141903
C28   C     C_2   0.542733 0.523740 0.981218 -0.135407
N1    N     N_2   0.922113 0.967490 0.111723 -0.518481
H9    H     H_    0.928311 0.908204 0.063016 0.257997
C29   C     C_3   0.830319 0.004132 0.059416 -0.414494
H10   H     H_    0.805868 0.996605 0.901945 0.174025
H11   H     H_    0.832904 0.071018 0.094130 0.220383
H12   H     H_    0.778756 0.974562 0.138865 0.188460
N2    N     N_2   0.025068 0.072598 0.870630 -0.505821
H13   H     H_    0.092515 0.076459 0.942221 0.261554
C30   C     C_3   0.969147 0.146420 0.877933 -0.455675
H14   H     H_    0.973985 0.167982 0.029709 0.177321
H15   H     H_    0.894794 0.133353 0.820429 0.209855
H16   H     H_    0.993373 0.196872 0.790938 0.176364
N3    N     N_2   0.077677 0.467450 0.888270 -0.519349
H17   H     H_    0.071443 0.408169 0.936843 0.255036
C31   C     C_3   0.169487 0.504021 0.940709 -0.407803
H18   H     H_    0.193905 0.496503 0.098181 0.174130
H19   H     H_    0.166963 0.570899 0.906035 0.220779
H20   H     H_    0.221045 0.474390 0.861282 0.184890
N4    N     N_2   0.974913 0.572466 0.129393 -0.511447
H21   H     H_    0.907468 0.576326 0.057788 0.257070
C32   C     C_3   0.030801 0.646286 0.122215 -0.429462
H22   H     H_    0.026000 0.667815 0.970462 0.177733
H23   H     H_    0.105149 0.633230 0.179819 0.212805
H24   H     H_    0.006528 0.696762 0.209196 0.178619
S1    S     S_3+6 0.561355 0.112830 0.308234 0.022263
O21   O     O_2   0.543961 0.184506 0.434167 -0.296422
O22   O     O_2   0.600127 0.042219 0.435047 -0.319479
O23   O     O_3   0.640768 0.140397 0.169164 -0.497283
H25   H     H_    0.611179 0.186157 0.087838 0.354958
S2    S     S_3+6 0.455679 0.918380 0.638915 0.100063
O24   O     O_2   0.491465 0.884048 0.464929 -0.270223
O25   O     O_2   0.379435 0.863141 0.687054 -0.263267
O26   O     O_3   0.410108 0.012472 0.583327 -0.491344
H26   H     H_    0.460611 0.052077 0.629473 0.357586
S3    S     S_3+6 0.441369 0.607663 0.676728 0.075549
O27   O     O_2   0.405559 0.533289 0.559719 -0.321854
O28   O     O_2   0.367042 0.636363 0.788720 -0.304469
O29   O     O_3   0.462903 0.683798 0.526367 -0.433051
H27   H     H_    0.488350 0.655944 0.419869 0.370246
S4    S     S_3+6 0.546936 0.414153 0.356546 0.042820
O30   O     O_2   0.579670 0.498958 0.422363 -0.353834
O31   O     O_2   0.516435 0.368873 0.523352 -0.279627
O32   O     O_3   0.635985 0.362734 0.283990 -0.497735
H28   H     H_    0.685256 0.360953 0.399369 0.370396

loop_
_geom_bond_atom_site_label_1
_geom_bond_atom_site_label_2
_ccdc_geom_bond_type
C24   S3    S    
O6    V2    S    
C29   H11   S    
C5    C10   A    
O26   H26   S    
C23   C27   D    
O11   C14   A    
O15   V3    S    
N3    H17   S    
S3    O27   D    
C32   H22   S    
S2    O24   D    
S3    O29   S    
S1    O21   D    
O2    V4    S    
C1    C6    S    
C10   N2    S    
C6    C18   A    
C15   C22   S    
O12   C13   A    
H3    C19   S    
C30   H15   S    
O4    C1    A    
N1    C29   S    
C12   N4    S    
C8    C20   A    
C13   C24   S    
C14   C23   S    
C23   S4    S    
O16   V4    S    
O5    C1    A    
O7    C3    A    
C29   H12   S    
C27   C28   S    
O8    C4    A    
V1    O19   S    
V2    O20   S    
C2    C5    S    
N1    H9    S    
C6    C9    A    
C32   H23   S    
C7    C19   A    
O4    V3    S    
V3    O19   S    
C3    C8    S    
V4    O20   S    
S1    O22   D    
N2    H13   S    
O18   C16   A    
C9    C17   A    
N4    C32   S    
C21   C25   D    
C12   C20   A    
S4    O32   S    
O15   C13   A    
H5    C26   S    
C24   C28   D    
O13   V3    S    
O10   C15   A    
N2    C30   S    
C30   H16   S    
O17   C15   A    
C31   H18   S    
C7    C12   A    
H8    C27   S    
O10   V2    S    
O6    C2    A    
S2    O25   D    
S4    O31   D    
O18   V3    S    
O1    C4    A    
C9    N1    S    
O2    C3    A    
C31   H19   S    
O3    C2    A    
H1    C17   S    
O11   V2    S    
O29   H27   S    
O12   V1    S    
H4    C20   S    
N3    C31   S    
C21   S2    S    
C32   H24   S    
C10   C18   A    
S2    O26   S    
C22   C26   D    
S1    O23   S    
O7    V2    S    
O16   C14   A    
O8    V1    S    
O14   V4    S    
C29   H10   S    
C22   S1    S    
S3    O28   D    
C8    C11   A    
O3    V4    S    
O13   V1    S    
O14   V2    S    
H6    C25   S    
O1    V3    S    
C25   C26   S    
H2    C18   S    
C4    C7    S    
S4    O30   D    
O9    C16   A    
C30   H14   S    
C31   H20   S    
C5    C17   A    
O9    V1    S    
N4    H21   S    
C11   C19   A    
O23   H25   S    
C16   C21   S    
O32   H28   S    
H7    C28   S    
C11   N3    S    
O17   V4    S    
O5    V1    S    
