data_mof_unit_44710.cif
_audit_creation_date              2012-12-11T20:53:27-0500
_audit_creation_method            fapswitch 2.2
_symmetry_space_group_name_H-M    P1
_symmetry_Int_Tables_number       1
_space_group_crystal_system       triclinic
_cell_length_a                    8.266757
_cell_length_b                    22.933086
_cell_length_c                    26.999563
_cell_angle_alpha                 95.839544
_cell_angle_beta                  92.541728
_cell_angle_gamma                 90.093014
_cell_volume                      5086.96928538

loop_
_atom_site_label
_atom_site_type_symbol
_atom_type_description
_atom_site_fract_x
_atom_site_fract_y
_atom_site_fract_z
_atom_type_partial_charge
Ba1   Ba    Ba6+2 0.848110 0.472730 0.522970 1.664165
Ba2   Ba    Ba6+2 0.341700 0.527220 0.477020 1.671808
C1    C     C_3   0.678795 0.263348 0.670742 -0.210101
C2    C     C_R   0.960662 0.565125 0.181543 0.589550
C3    C     C_2   0.782706 0.548469 0.274341 -0.091963
C4    C     C_3   0.134221 0.332098 0.656290 0.332892
C5    C     C_3   0.761966 0.563645 0.329544 -0.103039
C6    C     C_1   0.981174 0.493526 0.343644 0.031035
C7    C     C_2   0.019773 0.490248 0.296020 -0.087618
C8    C     C_2   0.913757 0.517833 0.258119 0.215854
C9    C     C_R   0.030452 0.508541 0.103972 -0.081592
C10   C     C_R   0.025847 0.457097 0.128527 -0.031828
C11   C     C_R   0.055334 0.402978 0.101144 -0.061792
C12   C     C_3   0.656079 0.317685 0.642823 0.379403
C13   C     C_R   0.994479 0.562698 0.130502 -0.027383
C14   C     C_2   0.859286 0.525243 0.361685 -0.266902
C15   C     C_2   0.335768 0.478319 0.639269 -0.276434
C16   C     C_3   0.125300 0.306007 0.705615 -0.367521
C17   C     C_R   0.175280 0.450169 0.977966 0.019453
C18   C     C_R   0.085512 0.552624 0.974839 0.023781
C19   C     C_R   0.145199 0.499429 0.950589 0.033114
C20   C     C_R   0.264258 0.402247 0.954609 0.045389
C21   C     C_R   0.285803 0.398349 0.903203 -0.057317
C22   C     C_R   0.241568 0.444280 0.874762 -0.042742
C23   C     C_3   0.543426 0.607770 0.628289 0.293049
C24   C     C_R   0.177739 0.495851 0.898731 -0.084083
C25   C     C_R   0.147252 0.543882 0.870893 -0.030003
C26   C     C_R   0.182571 0.539756 0.819625 0.595084
C27   C     C_R   0.268433 0.440352 0.823176 0.586604
C28   C     C_3   0.154329 0.349913 0.416453 0.305098
C29   C     C_2   0.414742 0.456494 0.726118 -0.091276
C30   C     C_3   0.429617 0.438817 0.671052 -0.069079
C31   C     C_1   0.208161 0.506994 0.656723 0.032475
C32   C     C_2   0.166201 0.507800 0.704045 -0.094911
C33   C     C_2   0.278863 0.483870 0.742660 0.196017
C34   C     C_3   0.545118 0.620917 0.684636 -0.351540
C35   C     C_R   0.118031 0.451643 0.027382 0.020608
C36   C     C_R   0.070268 0.505788 0.052718 0.049758
C37   C     C_R   0.060070 0.556987 0.027125 0.019616
C38   C     C_R   0.097278 0.400275 0.051455 -0.112231
C39   C     C_R   0.993348 0.613549 0.105502 -0.060922
C40   C     C_3   0.144433 0.283675 0.404629 -0.365344
C41   C     C_R   0.053074 0.599674 0.945701 -0.099321
C42   C     C_R   0.083550 0.595352 0.895040 -0.059210
C43   C     C_R   0.023488 0.610762 0.054910 -0.102689
C44   C     C_R   0.366210 0.335365 0.520225 -0.290640
C45   C     C_3   0.013745 0.674441 0.350153 0.356647
C46   C     C_R   0.502642 0.929315 0.494265 -0.036746
C47   C     C_R   0.546817 0.869661 0.486796 0.584716
C48   C     C_R   0.823739 0.897460 0.479224 0.582490
C49   C     C_R   0.778789 0.956742 0.480086 -0.020157
C50   C     C_R   0.619331 0.972958 0.490154 -0.050780
C51   C     C_R   0.344987 0.946455 0.506584 -0.063565
C52   C     C_3   0.033325 0.651635 0.586736 0.312375
C53   C     C_R   0.303792 0.005751 0.513116 -0.089435
C54   C     C_R   0.417096 0.049535 0.505995 -0.022405
C55   C     C_R   0.576628 0.033142 0.496171 -0.049620
C56   C     C_3   0.998443 0.705779 0.303208 -0.334323
C57   C     C_R   0.891586 0.000496 0.472517 -0.089728
C58   C     C_R   0.851154 0.059692 0.479913 -0.065031
C59   C     C_R   0.694148 0.076695 0.492886 -0.030825
C60   C     C_R   0.652274 0.136209 0.502611 0.570129
C61   C     C_R   0.373694 0.109174 0.507764 0.585470
C62   C     C_2   0.890103 0.769365 0.460427 -0.094608
C63   C     C_3   0.956127 0.712460 0.476021 -0.055434
C64   C     C_3   0.019999 0.716576 0.604326 -0.375227
C65   C     C_1   0.699045 0.693770 0.508748 0.016909
C66   C     C_2   0.663784 0.750653 0.512404 -0.061820
C67   C     C_3   0.546535 0.678995 0.336361 0.336475
C68   C     C_2   0.756573 0.791950 0.483328 0.196106
C69   C     C_R   0.314448 0.236770 0.539768 -0.104289
C70   C     C_R   0.268257 0.295529 0.540556 -0.043782
C71   C     C_R   0.496500 0.315827 0.492378 0.030377
C72   C     C_R   0.531672 0.255845 0.486004 -0.096339
C73   C     C_R   0.446704 0.215168 0.511618 0.190377
C74   C     C_2   0.818073 0.671532 0.481858 -0.282499
C75   C     C_3   0.654502 0.403325 0.373355 0.298636
C76   C     C_3   0.649594 0.389918 0.316967 -0.343681
C77   C     C_3   0.597132 0.209702 0.642178 -0.486907
C78   C     C_3   0.465644 0.732574 0.317533 -0.328301
C79   C     C_3   0.363462 0.360064 0.983133 -0.416434
C80   C     C_R   0.986503 0.460630 0.179376 0.591747
H1    H     H_    0.710741 0.310244 0.605868 0.094578
H2    H     H_    0.780567 0.412926 0.386785 0.005142
H3    H     H_    0.577836 0.442084 0.382986 0.085933
H4    H     H_    0.809543 0.254161 0.676222 0.150265
H5    H     H_    0.730860 0.352680 0.306293 0.131627
H6    H     H_    0.689804 0.428726 0.299382 0.078325
H7    H     H_    0.524109 0.378409 0.302942 0.135073
H8    H     H_    0.524107 0.323973 0.636573 -0.083690
H9    H     H_    0.417356 0.597346 0.614533 0.018350
H10   H     H_    0.621528 0.569137 0.619348 0.077151
H11   H     H_    0.464833 0.658574 0.694936 0.133788
H12   H     H_    0.219155 0.269655 0.372412 0.122218
H13   H     H_    0.501392 0.582072 0.701653 0.074649
H14   H     H_    0.670292 0.631622 0.699446 0.133464
H15   H     H_    0.626021 0.271402 0.707927 0.119227
H16   H     H_    0.226534 0.323369 0.731184 0.147103
H17   H     H_    0.042760 0.627735 0.339556 0.056521
H18   H     H_    0.896332 0.678201 0.368762 -0.120269
H19   H     H_    0.110882 0.700264 0.282304 0.144999
H20   H     H_    0.895567 0.687519 0.278903 0.128207
H21   H     H_    0.977001 0.753186 0.313189 0.101252
H22   H     H_    0.656346 0.670635 0.314706 -0.038293
H23   H     H_    0.189558 0.261677 0.437166 0.075704
H24   H     H_    0.580853 0.689002 0.376731 0.019880
H25   H     H_    0.555263 0.768820 0.318867 0.063383
H26   H     H_    0.364931 0.747587 0.341207 0.168385
H27   H     H_    0.101729 0.379302 0.661765 0.053524
H28   H     H_    0.418945 0.722213 0.278437 0.114670
H29   H     H_    0.130123 0.468304 0.284331 0.118460
H30   H     H_    0.045012 0.362182 0.117970 0.121787
H31   H     H_    0.504584 0.440678 0.752024 0.119653
H32   H     H_    0.348038 0.360345 0.885945 0.122971
H33   H     H_    0.108038 0.357050 0.031785 0.083635
H34   H     H_    0.016747 0.269984 0.395495 0.137077
H35   H     H_    0.702138 0.568442 0.248164 0.101568
H36   H     H_    0.966906 0.656044 0.124939 0.118476
H37   H     H_    0.000273 0.640321 0.960828 0.068836
H38   H     H_    0.260683 0.327449 0.644633 -0.063251
H39   H     H_    0.056409 0.632872 0.874701 0.121251
H40   H     H_    0.049181 0.524987 0.714794 0.134545
H41   H     H_    0.021192 0.651996 0.038828 0.069122
H42   H     H_    0.843105 0.531995 0.401506 0.078925
H43   H     H_    0.358835 0.474516 0.599826 0.080156
H44   H     H_    0.942063 0.092122 0.474504 0.173035
H45   H     H_    0.911726 0.633994 0.575096 0.006810
H46   H     H_    0.011164 0.988812 0.460439 0.118341
H47   H     H_    0.183998 0.017544 0.524918 0.115981
H48   H     H_    0.244708 0.208676 0.560615 0.136104
H49   H     H_    0.254328 0.914096 0.512391 0.171651
H50   H     H_    0.008705 0.317702 0.722927 0.137449
H51   H     H_    0.578680 0.767855 0.539608 0.100560
H52   H     H_    0.956943 0.792646 0.434900 0.140186
H53   H     H_    0.624136 0.241406 0.460519 0.121548
H54   H     H_    0.333044 0.381149 0.522576 0.076278
H55   H     H_    0.797117 0.633490 0.455245 0.061361
H56   H     H_    0.113647 0.646081 0.554806 0.048737
H57   H     H_    0.136741 0.257505 0.699712 0.113700
H58   H     H_    0.282218 0.362942 0.424250 0.002716
H59   H     H_    0.082977 0.362352 0.449738 0.067577
H60   H     H_    0.617755 0.170941 0.663085 0.147181
H61   H     H_    0.464735 0.216760 0.637609 0.128152
H62   H     H_    0.648973 0.200735 0.605029 0.174871
H63   H     H_    0.485553 0.353958 0.967350 0.119746
H64   H     H_    0.387284 0.377315 0.022687 0.129703
H65   H     H_    0.302456 0.316346 0.980145 0.117164
H66   H     H_    0.939911 0.722654 0.636358 0.136192
H67   H     H_    0.968634 0.741198 0.574239 0.058061
H68   H     H_    0.141787 0.734859 0.616115 0.128362
N1    N     N_R   0.954525 0.514374 0.205592 -0.422889
N2    N     N_R   0.242164 0.488122 0.795808 -0.419622
N3    N     N_R   0.708236 0.853589 0.481915 -0.424221
N4    N     N_R   0.491176 0.152847 0.507548 -0.425624
O1    O     O_2   0.919820 0.530450 0.618560 -0.456032
O2    O     O_2   0.290063 0.702872 0.465510 -0.420507
O3    O     O_3   0.140430 0.700479 0.380664 -0.583497
O4    O     O_3   0.151800 0.530410 0.558380 -0.491129
O5    O     O_3   0.542410 0.431140 0.474010 -0.490089
O6    O     O_2   0.406930 0.639920 0.526240 -0.454931
O7    O     O_3   0.601264 0.656924 0.607314 -0.645598
O8    O     O_2   0.447836 0.515890 0.324948 -0.487188
O9    O     O_3   0.441388 0.630322 0.328586 -0.561770
O10   O     O_2   0.979094 0.415728 0.200060 -0.597673
O11   O     O_2   0.314493 0.393799 0.802626 -0.628031
O12   O     O_3   0.597520 0.354386 0.394358 -0.635954
O13   O     O_2   0.938135 0.612774 0.204713 -0.624619
O14   O     O_2   0.162631 0.582605 0.796573 -0.599123
O15   O     O_2   0.440750 0.832211 0.484194 -0.571806
O16   O     O_3   0.654050 0.426350 0.586890 -0.479542
O17   O     O_2   0.967278 0.885547 0.477954 -0.614594
O18   O     O_2   0.760374 0.172977 0.507657 -0.572435
O19   O     O_2   0.230376 0.121708 0.507939 -0.610394
O20   O     O_2   0.750969 0.480975 0.675930 -0.486800
O21   O     O_3   0.097812 0.623425 0.626492 -0.626552
O22   O     O_3   0.731531 0.366310 0.670840 -0.595473
O23   O     O_3   0.025989 0.301999 0.621091 -0.591302
O24   O     O_2   0.782760 0.360070 0.473730 -0.459318
O25   O     O_3   0.056430 0.397060 0.562000 -0.490009
O26   O     O_2   0.933163 0.292785 0.527083 -0.432352
O27   O     O_2   0.269870 0.469530 0.381410 -0.452909
O28   O     O_3   0.037890 0.469550 0.441610 -0.496488
O29   O     O_3   0.535640 0.573600 0.413100 -0.462611
O30   O     O_3   0.093165 0.376203 0.375069 -0.625879
O31   O     O_3   0.647280 0.568810 0.525990 -0.476338
O32   O     O_3   0.133260 0.602900 0.438000 -0.480608
P1    P     P_3+3 0.092730 0.547450 0.611370 0.998147
P2    P     P_3+3 0.606840 0.368620 0.459370 0.989342
P3    P     P_3+3 0.070718 0.321054 0.562238 0.980842
P4    P     P_3+3 0.096970 0.452510 0.388620 0.995483
P5    P     P_3+3 0.127727 0.679415 0.440611 1.014761
P6    P     P_3+3 0.642721 0.429928 0.651677 0.957523
P7    P     P_3+3 0.592099 0.641677 0.542382 0.958121
P8    P     P_3+3 0.546592 0.569901 0.348188 0.966054

loop_
_geom_bond_atom_site_label_1
_geom_bond_atom_site_label_2
_ccdc_geom_bond_type
C76   H5    S    
C7    H29   S    
C69   C73   A    
C53   C54   A    
C16   H16   S    
C68   N3    S    
C71   C72   A    
C42   H39   S    
C16   H50   S    
C34   H13   S    
C19   C24   A    
C1    C77   S    
O4    P1    S    
C71   P2    S    
Ba2   O32   S    
C75   C76   S    
C43   H41   S    
C78   H25   S    
C24   C25   A    
C28   H59   S    
O12   P2    S    
C47   N3    Am   
C66   H51   S    
C17   C19   A    
C22   C24   A    
Ba1   Ba2   S    
C11   H30   S    
O26   P3    D    
C36   C37   A    
O22   P6    S    
C77   H60   S    
C48   N3    Am   
O16   P6    S    
Ba1   O16   S    
O29   P8    S    
C45   H17   S    
C54   C55   A    
C30   P6    S    
C32   C33   S    
Ba2   O28   S    
C27   O11   D    
O32   P5    S    
Ba1   O1    S    
C1    H15   S    
C22   C27   A    
C12   H8    S    
C11   C38   A    
C12   O22   S    
C17   C35   A    
C9    C13   A    
C25   C42   A    
C77   H61   S    
C63   P5    S    
C23   O7    S    
C6    C7    D    
C53   H47   S    
Ba1   O24   S    
C21   C22   A    
C48   O17   D    
C56   H20   S    
C62   C68   D    
C39   H36   S    
C7    C8    S    
C64   H66   S    
C80   N1    Am   
C37   C43   A    
O24   P2    D    
C66   C68   S    
C51   C53   A    
C75   H3    S    
C57   C58   A    
C32   H40   S    
C1    H4    S    
C16   H57   S    
C15   C31   D    
C12   H1    S    
C56   H21   S    
C34   H11   S    
C4    H38   S    
C61   O19   D    
Ba1   P1    S    
C76   H7    S    
C46   C51   A    
C4    C16   S    
C62   H52   S    
C23   H9    S    
O23   P3    S    
C72   C73   A    
O7    P7    S    
C65   C66   D    
C20   C79   S    
Ba2   P4    S    
Ba1   O5    S    
C17   C20   A    
C28   H58   S    
C13   C39   A    
C64   H67   S    
C6    P4    S    
C3    C5    S    
C18   C37   A    
Ba2   O5    S    
O9    P8    S    
C79   H65   S    
C75   O12   S    
C74   H55   S    
C44   H54   S    
C44   C70   A    
C45   H18   S    
C49   C50   A    
C3    H35   S    
C58   C59   A    
Ba2   O27   S    
O5    P2    S    
C9    C36   A    
C41   C42   A    
O3    P5    S    
C35   C36   A    
C8    N1    S    
O27   P4    D    
C34   H14   S    
C77   H62   S    
O25   P3    S    
Ba2   O4    S    
C72   H53   S    
O8    P8    D    
C31   C32   D    
C54   C61   A    
C10   C80   A    
C31   P1    S    
C56   H19   S    
C10   C11   A    
C5    P8    S    
C55   C59   A    
C63   C74   S    
C52   O21   S    
C1    C12   S    
C51   H49   S    
C40   H34   S    
C46   C47   A    
Ba1   P2    S    
C26   N2    Am   
C79   H63   S    
C4    O23   S    
C4    H27   S    
O30   P4    S    
C49   C57   A    
C33   N2    S    
Ba2   O6    S    
C41   H37   S    
C70   P3    S    
C18   C41   A    
C21   H32   S    
C45   O3    S    
C67   H22   S    
C76   H6    S    
C2    N1    Am   
Ba1   O4    S    
C23   H10   S    
C39   C43   A    
C27   N2    Am   
C40   H12   S    
C28   O30   S    
C29   C30   S    
C5    C14   S    
C67   O9    S    
C61   N4    Am   
O31   P7    S    
C67   H24   S    
C64   H68   S    
C52   C64   S    
Ba1   O31   S    
C35   C38   A    
C60   O18   D    
C52   H45   S    
C78   H26   S    
C75   H2    S    
C2    O13   D    
C62   C63   S    
C2    C13   A    
C58   H44   S    
C57   H46   S    
Ba2   O31   S    
C3    C8    D    
O1    P1    D    
C45   C56   S    
C47   O15   D    
Ba1   O25   S    
C73   N4    S    
C15   H43   S    
C52   H56   S    
C80   O10   D    
C29   C33   D    
Ba2   O29   S    
C14   H42   S    
C59   C60   A    
C40   H23   S    
Ba1   O28   S    
C50   C55   A    
C26   O14   D    
C23   C34   S    
O21   P1    S    
C38   H33   S    
O2    P5    D    
C60   N4    Am   
C46   C50   A    
C69   C70   A    
C18   C19   A    
C6    C14   D    
C79   H64   S    
C78   H28   S    
C25   C26   A    
C15   C30   S    
C48   C49   A    
C20   C21   A    
C28   C40   S    
C67   C78   S    
C65   C74   D    
O28   P4    S    
C65   P7    S    
C29   H31   S    
C44   C71   A    
C9    C10   A    
O20   P6    D    
O6    P7    D    
C69   H48   S    
