data_mof_unit_51344.cif
_audit_creation_date              2012-12-10T16:53:28-0500
_audit_creation_method            fapswitch 2.2
_symmetry_space_group_name_H-M    P1
_symmetry_Int_Tables_number       1
_space_group_crystal_system       triclinic
_cell_length_a                    7.815041
_cell_length_b                    8.575724
_cell_length_c                    13.61101
_cell_angle_alpha                 92.247569
_cell_angle_beta                  78.345761
_cell_angle_gamma                 93.896594
_cell_volume                      891.030730173

loop_
_atom_site_label
_atom_site_type_symbol
_atom_type_description
_atom_site_fract_x
_atom_site_fract_y
_atom_site_fract_z
_atom_type_partial_charge
C1    C     C_R   0.546267 0.794714 0.497477 0.961222
C2    C     C_1   0.568567 0.481509 0.119861 -0.060052
C3    C     C_2   0.570495 0.958336 0.495996 -0.383052
C4    C     C_2   0.429514 0.041650 0.503950 -0.382151
C5    C     C_3   0.242886 0.475912 0.054067 -0.412271
C6    C     C_3   0.200579 0.643126 0.090482 -0.351157
C7    C     C_3   0.030255 0.644244 0.168337 -0.836814
C8    C     C_3   0.751305 0.477071 0.945306 -0.409066
C9    C     C_3   0.816274 0.645216 0.916683 -0.351635
C10   C     C_3   0.987428 0.648536 0.839395 -0.846985
C11   C     C_R   0.453737 0.205280 0.502500 0.960951
C12   C     C_R   0.469803 0.502042 0.687134 0.909112
C13   C     C_R   0.530016 0.496892 0.312877 0.909121
C14   C     C_1   0.552075 0.489317 0.208338 -0.209280
C15   C     C_1   0.445107 0.493610 0.791477 -0.206317
C16   C     C_2   0.573378 0.473476 0.015363 0.095491
C17   C     C_2   0.420406 0.474109 0.983827 0.097094
C18   C     C_1   0.426641 0.484432 0.879676 -0.060259
H1    H     H_    0.703518 0.009680 0.488386 0.180158
H2    H     H_    0.140241 0.425042 0.014379 0.192070
H3    H     H_    0.238965 0.400329 0.119110 0.206387
H4    H     H_    0.089266 0.592935 0.869552 0.268163
H5    H     H_    0.967987 0.585377 0.769288 0.268803
H6    H     H_    0.033208 0.771469 0.821462 0.241414
H7    H     H_    0.717087 0.702109 0.884563 0.227745
H8    H     H_    0.837120 0.713762 0.984750 0.223995
H9    H     H_    0.846897 0.424831 0.982695 0.191816
H10   H     H_    0.745298 0.403574 0.876815 0.210232
H11   H     H_    0.296493 0.990301 0.511556 0.180307
H12   H     H_    0.024654 0.378813 0.425769 0.187936
H13   H     H_    0.975399 0.621407 0.574070 0.188234
H14   H     H_    0.920800 0.588852 0.136198 0.264487
H15   H     H_    0.042087 0.579870 0.235688 0.273203
H16   H     H_    0.000533 0.766637 0.191506 0.241793
H17   H     H_    0.307711 0.699038 0.124806 0.230758
H18   H     H_    0.188393 0.713633 0.025705 0.223029
N1    N     N_2   0.954190 0.457600 0.473930 -0.175348
N2    N     N_2   0.045810 0.542400 0.526070 -0.174801
O1    O     O_R   0.388300 0.738660 0.506400 -0.610687
O2    O     O_R   0.611700 0.261340 0.493600 -0.611271
O3    O     O_R   0.679920 0.711490 0.489690 -0.627964
O4    O     O_R   0.320080 0.288510 0.510310 -0.628241
O5    O     O_R   0.333200 0.515510 0.649910 -0.612465
O6    O     O_R   0.666800 0.484490 0.350090 -0.613666
O7    O     O_R   0.624820 0.488340 0.633200 -0.617894
O8    O     O_R   0.375180 0.511660 0.366800 -0.618192
Zn1   Zn    Zn3+2 0.305280 0.518140 0.511160 0.933328
Zn2   Zn    Zn3+2 0.694720 0.481860 0.488840 0.932721

loop_
_geom_bond_atom_site_label_1
_geom_bond_atom_site_label_2
_ccdc_geom_bond_type
C8    C9    S    
C15   C18   T    
H13   N2    S    
C3    H1    S    
C6    C7    S    
C10   H5    S    
C2    C16   S    
C9    C10   S    
C4    H11   S    
C12   C15   S    
C17   C18   S    
C9    H7    S    
C8    C16   S    
C5    H2    S    
C13   C14   S    
C10   H4    S    
C4    C11   S    
N1    Zn2   S    
C7    H15   S    
N2    Zn1   S    
N1    N2    D    
C8    H10   S    
C5    C6    S    
C1    O3    A    
O3    Zn2   S    
C6    H18   S    
C9    H8    S    
C12   O5    A    
O4    Zn1   S    
C11   O2    A    
C2    C14   T    
C7    H16   S    
C5    C17   S    
C1    O1    A    
C3    C4    D    
C5    H3    S    
C6    H17   S    
C11   O4    A    
O1    Zn1   S    
O7    Zn2   S    
O2    Zn2   S    
C8    H9    S    
C13   O8    A    
C16   C17   D    
C7    H14   S    
C10   H6    S    
O8    Zn1   S    
O5    Zn1   S    
C13   O6    A    
O6    Zn2   S    
H12   N1    S    
C12   O7    A    
C1    C3    S    
