data_mof_unit_62892.cif
_audit_creation_date              2012-12-10T17:52:54-0500
_audit_creation_method            fapswitch 2.2
_symmetry_space_group_name_H-M    P1
_symmetry_Int_Tables_number       1
_space_group_crystal_system       triclinic
_cell_length_a                    38.90924
_cell_length_b                    38.908531
_cell_length_c                    32.236146
_cell_angle_alpha                 89.978014
_cell_angle_beta                  89.983783
_cell_angle_gamma                 89.842868
_cell_volume                      48802.1565584

loop_
_atom_site_label
_atom_site_type_symbol
_atom_type_description
_atom_site_fract_x
_atom_site_fract_y
_atom_site_fract_z
_atom_type_partial_charge
C1    C     C_R   0.999952 0.566166 0.999964 0.776053
C2    C     C_R   0.566157 0.999948 0.000080 0.775043
C3    C     C_R   0.000052 0.433844 0.999920 0.775033
C4    C     C_R   0.433834 0.000048 0.000035 0.776084
C5    C     C_R   0.499952 0.066173 0.499964 0.776631
C6    C     C_R   0.066156 0.499948 0.500080 0.775034
C7    C     C_R   0.500052 0.933842 0.499919 0.775113
C8    C     C_R   0.933833 0.500048 0.500037 0.776188
C9    C     C_R   0.000168 0.896155 0.000095 -0.278618
C10   C     C_R   0.896083 0.000126 0.999968 -0.279040
C11   C     C_R   0.999865 0.103929 0.000024 -0.277635
C12   C     C_R   0.103834 0.999829 0.999909 -0.278754
C13   C     C_R   0.500147 0.396172 0.500094 -0.278892
C14   C     C_R   0.396069 0.500138 0.499970 -0.277976
C15   C     C_R   0.499883 0.603910 0.500026 -0.278933
C16   C     C_R   0.603829 0.499852 0.499905 -0.280026
C17   C     C_R   0.020698 0.767898 0.971944 -0.056701
C18   C     C_R   0.768331 0.977264 0.973668 -0.064592
C19   C     C_R   0.976932 0.232164 0.973790 -0.063836
C20   C     C_R   0.231650 0.020413 0.970355 -0.062150
C21   C     C_R   0.022788 0.231675 0.026221 -0.064209
C22   C     C_R   0.767853 0.022987 0.026315 -0.064109
C23   C     C_R   0.979388 0.768346 0.029392 -0.062037
C24   C     C_R   0.232094 0.979468 0.028230 -0.056403
C25   C     C_R   0.519756 0.267931 0.470876 -0.057956
C26   C     C_R   0.268322 0.477202 0.473793 -0.064192
C27   C     C_R   0.477167 0.732143 0.473508 -0.064038
C28   C     C_R   0.731653 0.520297 0.470211 -0.062176
C29   C     C_R   0.522635 0.731668 0.526463 -0.064526
C30   C     C_R   0.267837 0.523095 0.526171 -0.063846
C31   C     C_R   0.480286 0.268352 0.530301 -0.062338
C32   C     C_R   0.732084 0.479688 0.528428 -0.056515
C33   C     C_R   0.020164 0.731686 0.971680 -0.065645
C34   C     C_R   0.732071 0.976965 0.973750 -0.069011
C35   C     C_R   0.977678 0.268428 0.973364 -0.068340
C36   C     C_R   0.267959 0.020776 0.970396 -0.071295
C37   C     C_R   0.023094 0.267934 0.026140 -0.069045
C38   C     C_R   0.731587 0.022242 0.026739 -0.068377
C39   C     C_R   0.979045 0.732040 0.029381 -0.071163
C40   C     C_R   0.268307 0.979993 0.028491 -0.065597
C41   C     C_R   0.519193 0.231714 0.470622 -0.066078
C42   C     C_R   0.232064 0.476895 0.473874 -0.069048
C43   C     C_R   0.477911 0.768408 0.473086 -0.068285
C44   C     C_R   0.767962 0.520652 0.470251 -0.071255
C45   C     C_R   0.522931 0.767927 0.526380 -0.068994
C46   C     C_R   0.231573 0.522349 0.526598 -0.068356
C47   C     C_R   0.479963 0.232049 0.530325 -0.071346
C48   C     C_R   0.768297 0.480210 0.528688 -0.065594
C49   C     C_R   0.999464 0.713749 0.000491 -0.105091
C50   C     C_R   0.713709 0.999439 0.000263 -0.107092
C51   C     C_R   0.000553 0.286300 0.999733 -0.107328
C52   C     C_R   0.286246 0.000527 0.999490 -0.104393
C53   C     C_R   0.499446 0.213772 0.500450 -0.104917
C54   C     C_R   0.213699 0.499453 0.500256 -0.107327
C55   C     C_R   0.500582 0.786288 0.499717 -0.107176
C56   C     C_R   0.786242 0.500567 0.499513 -0.104509
C57   C     C_R   0.000237 0.786189 0.000659 -0.034092
C58   C     C_R   0.786151 0.000282 0.999969 -0.035400
C59   C     C_R   0.999701 0.213862 0.000028 -0.035813
C60   C     C_R   0.213802 0.999745 0.999299 -0.033293
C61   C     C_R   0.500208 0.286211 0.500578 -0.033467
C62   C     C_R   0.286137 0.500308 0.499960 -0.035804
C63   C     C_R   0.499744 0.713844 0.500011 -0.035338
C64   C     C_R   0.713798 0.499799 0.499323 -0.033175
C65   C     C_R   0.015599 0.657579 0.032667 -0.083837
C66   C     C_R   0.657547 0.985597 0.033889 -0.079158
C67   C     C_R   0.986845 0.342356 0.033776 -0.082559
C68   C     C_R   0.342270 0.016664 0.031857 -0.081571
C69   C     C_R   0.014322 0.342463 0.966057 -0.079061
C70   C     C_R   0.657648 0.013231 0.966274 -0.082650
C71   C     C_R   0.983361 0.657728 0.968108 -0.081280
C72   C     C_R   0.342421 0.984361 0.967348 -0.084188
C73   C     C_R   0.516903 0.157622 0.531786 -0.084474
C74   C     C_R   0.157542 0.485697 0.533947 -0.079055
C75   C     C_R   0.486659 0.842343 0.533640 -0.082727
C76   C     C_R   0.842273 0.516911 0.531703 -0.081586
C77   C     C_R   0.514530 0.842460 0.466170 -0.079168
C78   C     C_R   0.157639 0.513142 0.466206 -0.082533
C79   C     C_R   0.482054 0.157747 0.468954 -0.081858
C80   C     C_R   0.842407 0.484152 0.467534 -0.084239
C81   C     C_R   0.016092 0.621705 0.032258 -0.161766
C82   C     C_R   0.621682 0.985570 0.033740 -0.162165
C83   C     C_R   0.986364 0.378226 0.033601 -0.162348
C84   C     C_R   0.378149 0.016742 0.031840 -0.163048
C85   C     C_R   0.014350 0.378327 0.966205 -0.162219
C86   C     C_R   0.621777 0.013714 0.966452 -0.162308
C87   C     C_R   0.983281 0.621854 0.968131 -0.162971
C88   C     C_R   0.378301 0.983877 0.967759 -0.161795
C89   C     C_R   0.517410 0.121747 0.531356 -0.161628
C90   C     C_R   0.121678 0.485668 0.533802 -0.162227
C91   C     C_R   0.486172 0.878213 0.533466 -0.162318
C92   C     C_R   0.878151 0.516979 0.531677 -0.162992
C93   C     C_R   0.514551 0.878325 0.466324 -0.162153
C94   C     C_R   0.121769 0.513621 0.466383 -0.162340
C95   C     C_R   0.481962 0.121873 0.469009 -0.162703
C96   C     C_R   0.878286 0.483656 0.467946 -0.161793
C97   C     C_R   0.999816 0.603736 0.000086 -0.015327
C98   C     C_R   0.603699 0.999790 0.000119 -0.012341
C99   C     C_R   0.000210 0.396305 0.999881 -0.012195
C100  C     C_R   0.396261 0.000183 0.999909 -0.015276
C101  C     C_R   0.499816 0.103758 0.500075 -0.016375
C102  C     C_R   0.103695 0.499790 0.500116 -0.012189
C103  C     C_R   0.500212 0.896300 0.499874 -0.012450
C104  C     C_R   0.896257 0.500185 0.499919 -0.015591
C105  C     C_R   0.999379 0.675731 0.000482 0.141852
C106  C     C_R   0.675688 0.999305 0.000084 0.143093
C107  C     C_R   0.000691 0.324320 0.999913 0.143245
C108  C     C_R   0.324271 0.000611 0.999507 0.141773
C109  C     C_R   0.499377 0.175758 0.500459 0.142396
C110  C     C_R   0.175680 0.499313 0.500079 0.143230
C111  C     C_R   0.500706 0.824310 0.499900 0.143220
C112  C     C_R   0.824266 0.500636 0.499525 0.141773
C113  C     C_R   0.933715 0.000029 0.999997 0.939436
C114  C     C_R   0.999969 0.066289 0.000000 0.940257
C115  C     C_R   0.066259 0.999958 0.999987 0.947252
C116  C     C_R   0.000043 0.933736 0.000015 0.947463
C117  C     C_R   0.433710 0.500031 0.499998 0.940905
C118  C     C_R   0.499973 0.566283 0.500001 0.941254
C119  C     C_R   0.566257 0.499963 0.499986 0.949329
C120  C     C_R   0.500040 0.433742 0.500015 0.948770
C121  C     C_R   0.000004 0.499999 0.920456 0.814007
C122  C     C_R   0.500001 0.000006 0.920455 0.814391
C123  C     C_R   0.999996 0.499999 0.079544 0.814345
C124  C     C_R   0.500000 0.999994 0.079544 0.814055
C125  C     C_R   0.500004 0.999999 0.420456 0.814384
C126  C     C_R   0.000001 0.500006 0.420455 0.814427
C127  C     C_R   0.499996 0.999998 0.579544 0.814731
C128  C     C_R   0.000001 0.499994 0.579544 0.814084
C129  C     C_R   0.977962 0.522033 0.728279 -0.156175
C130  C     C_R   0.521972 0.022003 0.728258 -0.156183
C131  C     C_R   0.022053 0.477934 0.728286 -0.156331
C132  C     C_R   0.478009 0.978014 0.728307 -0.156329
C133  C     C_R   0.978004 0.478028 0.271742 -0.156225
C134  C     C_R   0.522055 0.977937 0.271720 -0.156311
C135  C     C_R   0.021983 0.522000 0.271693 -0.156343
C136  C     C_R   0.477965 0.022036 0.271714 -0.156144
C137  C     C_R   0.477961 0.022031 0.228280 -0.156201
C138  C     C_R   0.021979 0.521997 0.228258 -0.156232
C139  C     C_R   0.522053 0.977934 0.228286 -0.156312
C140  C     C_R   0.978002 0.478023 0.228307 -0.156353
C141  C     C_R   0.478011 0.978020 0.771742 -0.156217
C142  C     C_R   0.022055 0.477937 0.771721 -0.156329
C143  C     C_R   0.521976 0.022006 0.771693 -0.156355
C144  C     C_R   0.977966 0.522038 0.771714 -0.156193
C145  C     C_R   0.000006 0.499981 0.706414 0.143389
C146  C     C_R   0.499989 0.000007 0.706415 0.143422
C147  C     C_R   0.999995 0.500017 0.293585 0.143406
C148  C     C_R   0.500012 0.999988 0.293586 0.143409
C149  C     C_R   0.500005 0.999980 0.206414 0.143394
C150  C     C_R   0.999989 0.500008 0.206415 0.143403
C151  C     C_R   0.499995 0.000016 0.793585 0.143407
C152  C     C_R   0.000013 0.499990 0.793586 0.143387
C153  C     C_1   0.000004 0.499979 0.661642 -0.046450
C154  C     C_1   0.499986 0.000002 0.661642 -0.046413
C155  C     C_1   0.999998 0.500020 0.338358 -0.046478
C156  C     C_1   0.500014 0.999992 0.338358 -0.046384
C157  C     C_1   0.500004 0.999979 0.161642 -0.046454
C158  C     C_1   0.999986 0.500004 0.161642 -0.046498
C159  C     C_1   0.499998 0.000019 0.838358 -0.046482
C160  C     C_1   0.000015 0.499993 0.838358 -0.046468
C161  C     C_1   0.000013 0.499996 0.875829 -0.149349
C162  C     C_1   0.500000 0.000017 0.875829 -0.149557
C163  C     C_1   0.999987 0.500001 0.124171 -0.149566
C164  C     C_1   0.500002 0.999982 0.124171 -0.149342
C165  C     C_1   0.500013 0.999995 0.375829 -0.149243
C166  C     C_1   0.000000 0.500017 0.375829 -0.149543
C167  C     C_1   0.499987 1.000000 0.624171 -0.149459
C168  C     C_1   0.000003 0.499982 0.624171 -0.149327
C169  C     C_R   0.972337 0.878061 0.983122 0.578779
C170  C     C_R   0.877974 0.026149 0.978720 0.580493
C171  C     C_R   0.025410 0.122040 0.978319 0.587275
C172  C     C_R   0.121869 0.971526 0.983719 0.583591
C173  C     C_R   0.974224 0.122041 0.021714 0.580805
C174  C     C_R   0.877984 0.974187 0.021226 0.586493
C175  C     C_R   0.028054 0.878098 0.017215 0.584784
C176  C     C_R   0.121914 0.028077 0.015928 0.578279
C177  C     C_R   0.471769 0.378101 0.484477 0.577618
C178  C     C_R   0.377957 0.525739 0.478199 0.581138
C179  C     C_R   0.525993 0.622001 0.479155 0.587777
C180  C     C_R   0.621876 0.471438 0.484029 0.584543
C181  C     C_R   0.473701 0.622021 0.520892 0.579935
C182  C     C_R   0.377956 0.474635 0.521757 0.587593
C183  C     C_R   0.528558 0.378103 0.515874 0.584819
C184  C     C_R   0.621895 0.528233 0.515593 0.579145
C185  C     C_R   0.972338 0.842191 0.983581 -0.158916
C186  C     C_R   0.842081 0.026395 0.979138 -0.151915
C187  C     C_R   0.025428 0.157913 0.978645 -0.157569
C188  C     C_R   0.157768 0.971389 0.983857 -0.156997
C189  C     C_R   0.973965 0.157932 0.021306 -0.151469
C190  C     C_R   0.842110 0.974170 0.020891 -0.158096
C191  C     C_R   0.028210 0.842207 0.017043 -0.156254
C192  C     C_R   0.157794 0.028055 0.015470 -0.159915
C193  C     C_R   0.471772 0.342233 0.484912 -0.157712
C194  C     C_R   0.342066 0.526002 0.478607 -0.151512
C195  C     C_R   0.526011 0.657875 0.479478 -0.158544
C196  C     C_R   0.657774 0.471317 0.484169 -0.157544
C197  C     C_R   0.473467 0.657914 0.520479 -0.151856
C198  C     C_R   0.342083 0.474618 0.521426 -0.157633
C199  C     C_R   0.528693 0.342214 0.515694 -0.156504
C200  C     C_R   0.657774 0.528221 0.515146 -0.160055
C201  C     C_R   0.000324 0.824178 0.000372 -0.063601
C202  C     C_R   0.824088 0.000360 0.000059 -0.054767
C203  C     C_R   0.999620 0.175928 0.999934 -0.056888
C204  C     C_R   0.175799 0.999669 0.999601 -0.063042
C205  C     C_R   0.500284 0.324199 0.500339 -0.061854
C206  C     C_R   0.324070 0.500388 0.500055 -0.056990
C207  C     C_R   0.499664 0.675904 0.499929 -0.054872
C208  C     C_R   0.675794 0.499720 0.499605 -0.062830
Cu1   Cu    Cu3+1 0.034230 0.500000 0.000000 1.010244
Cu2   Cu    Cu3+1 0.500000 0.965770 0.000000 1.010206
Cu3   Cu    Cu3+1 0.965770 0.500000 0.000000 1.010669
Cu4   Cu    Cu3+1 0.500000 0.034230 0.000000 1.010636
Cu5   Cu    Cu3+1 0.534230 1.000000 0.500000 1.009843
Cu6   Cu    Cu3+1 0.000000 0.465770 0.500000 1.010162
Cu7   Cu    Cu3+1 0.465770 1.000000 0.500000 1.010281
Cu8   Cu    Cu3+1 0.000000 0.534230 0.500000 1.010625
Cu9   Cu    Cu3+1 0.000000 0.000000 0.958960 1.156382
Cu10  Cu    Cu3+1 0.000000 1.000000 0.041040 1.156342
Cu11  Cu    Cu3+1 0.500000 0.500000 0.458960 1.155073
Cu12  Cu    Cu3+1 0.500000 0.500000 0.541040 1.154882
H1    H     H_    0.960802 0.539211 0.788214 0.148351
H2    H     H_    0.539096 0.039135 0.788175 0.148331
H3    H     H_    0.039222 0.460767 0.788226 0.148290
H4    H     H_    0.460893 0.960895 0.788262 0.148316
H5    H     H_    0.960877 0.460899 0.211825 0.148341
H6    H     H_    0.539220 0.960763 0.211785 0.148289
H7    H     H_    0.039101 0.539118 0.211738 0.148315
H8    H     H_    0.460791 0.039199 0.211774 0.148339
H9    H     H_    0.460799 0.039208 0.288214 0.148326
H10   H     H_    0.039109 0.539123 0.288175 0.148347
H11   H     H_    0.539223 0.960767 0.288226 0.148285
H12   H     H_    0.960880 0.460908 0.288262 0.148312
H13   H     H_    0.460890 0.960884 0.711825 0.148340
H14   H     H_    0.039219 0.460763 0.711786 0.148292
H15   H     H_    0.539089 0.039130 0.711738 0.148291
H16   H     H_    0.960794 0.539201 0.711774 0.148353
H17   H     H_    0.950597 0.828392 0.970887 0.191572
H18   H     H_    0.828263 0.046762 0.963096 0.188709
H19   H     H_    0.045487 0.171734 0.962351 0.190540
H20   H     H_    0.171517 0.949310 0.971645 0.193206
H21   H     H_    0.953896 0.171749 0.037708 0.189118
H22   H     H_    0.828295 0.953815 0.036824 0.190178
H23   H     H_    0.049974 0.828442 0.029963 0.193018
H24   H     H_    0.171585 0.050105 0.027449 0.191420
H25   H     H_    0.449636 0.328446 0.473239 0.191337
H26   H     H_    0.328251 0.546042 0.462142 0.189167
H27   H     H_    0.546489 0.671684 0.463835 0.190208
H28   H     H_    0.671533 0.449153 0.472203 0.193200
H29   H     H_    0.452981 0.671734 0.536227 0.188623
H30   H     H_    0.328262 0.454591 0.537781 0.190581
H31   H     H_    0.550855 0.328435 0.527566 0.192268
H32   H     H_    0.671555 0.550366 0.526880 0.191424
H33   H     H_    0.027913 0.671220 0.057928 0.146534
H34   H     H_    0.671197 0.975022 0.060317 0.145218
H35   H     H_    0.976327 0.328653 0.060183 0.146559
H36   H     H_    0.328497 0.029033 0.057036 0.148150
H37   H     H_    0.024836 0.328814 0.939590 0.145215
H38   H     H_    0.671348 0.023808 0.939905 0.146564
H39   H     H_    0.971021 0.671508 0.942914 0.148026
H40   H     H_    0.328788 0.972018 0.942099 0.146559
H41   H     H_    0.530218 0.171276 0.556390 0.146578
H42   H     H_    0.171195 0.475197 0.560421 0.145215
H43   H     H_    0.475996 0.828636 0.559954 0.146553
H44   H     H_    0.828505 0.529462 0.556753 0.148166
H45   H     H_    0.525199 0.828816 0.439795 0.145197
H46   H     H_    0.171337 0.523649 0.439790 0.146562
H47   H     H_    0.468700 0.171522 0.444410 0.147982
H48   H     H_    0.828766 0.471638 0.442416 0.146587
H49   H     H_    0.028642 0.607971 0.057343 0.138747
H50   H     H_    0.608005 0.974925 0.060074 0.135998
H51   H     H_    0.975664 0.391844 0.059999 0.136182
H52   H     H_    0.391748 0.029193 0.057034 0.138871
H53   H     H_    0.024934 0.392007 0.939831 0.135920
H54   H     H_    0.608158 0.024476 0.940095 0.136256
H55   H     H_    0.970852 0.608250 0.942928 0.138820
H56   H     H_    0.392030 0.971308 0.942685 0.138795
H57   H     H_    0.530980 0.108030 0.555783 0.140059
H58   H     H_    0.108002 0.475094 0.560185 0.135903
H59   H     H_    0.475321 0.891826 0.559772 0.136368
H60   H     H_    0.891756 0.529606 0.556737 0.139128
H61   H     H_    0.525284 0.892008 0.440046 0.136097
H62   H     H_    0.108147 0.524309 0.439979 0.136165
H63   H     H_    0.468510 0.108267 0.444474 0.140104
H64   H     H_    0.892009 0.470905 0.443001 0.139052
O1    O     O_R   0.028910 0.549920 0.999960 -0.572876
O2    O     O_R   0.549920 0.971090 0.999960 -0.572567
O3    O     O_R   0.971090 0.450080 0.999960 -0.571704
O4    O     O_R   0.450080 0.028910 0.999960 -0.573132
O5    O     O_R   0.028910 0.450080 0.000040 -0.572551
O6    O     O_R   0.549920 0.028910 0.000040 -0.571724
O7    O     O_R   0.971090 0.549920 0.000040 -0.573111
O8    O     O_R   0.450080 0.971090 0.000040 -0.572910
O9    O     O_R   0.528910 0.049920 0.499960 -0.573416
O10   O     O_R   0.049920 0.471090 0.499960 -0.572549
O11   O     O_R   0.471090 0.950080 0.499960 -0.571758
O12   O     O_R   0.950080 0.528910 0.499960 -0.573215
O13   O     O_R   0.528910 0.950080 0.500040 -0.572601
O14   O     O_R   0.049920 0.528910 0.500040 -0.571694
O15   O     O_R   0.471090 0.049920 0.500040 -0.573637
O16   O     O_R   0.950080 0.471090 0.500040 -0.573002
O17   O     O_R   0.028910 0.500000 0.940120 -0.573053
O18   O     O_R   0.500000 0.971090 0.940120 -0.573596
O19   O     O_R   0.971090 0.500000 0.940120 -0.573545
O20   O     O_R   0.500000 0.028910 0.940120 -0.572893
O21   O     O_R   0.028910 0.500000 0.059880 -0.573598
O22   O     O_R   0.500000 0.028910 0.059880 -0.573544
O23   O     O_R   0.971090 0.500000 0.059880 -0.572884
O24   O     O_R   0.500000 0.971090 0.059880 -0.573063
O25   O     O_R   0.528910 0.000000 0.440120 -0.572950
O26   O     O_R   1.000000 0.471090 0.440120 -0.573638
O27   O     O_R   0.471090 0.000000 0.440120 -0.573684
O28   O     O_R   1.000000 0.528910 0.440120 -0.572851
O29   O     O_R   0.528910 0.000000 0.559880 -0.573739
O30   O     O_R   0.000000 0.528910 0.559880 -0.573584
O31   O     O_R   0.471090 0.000000 0.559880 -0.572779
O32   O     O_R   1.000000 0.471090 0.559880 -0.573027
O33   O     O_R   0.950050 0.000070 0.965410 -0.555983
O34   O     O_R   0.000070 0.049950 0.965410 -0.553910
O35   O     O_R   0.049950 0.999930 0.965410 -0.560659
O36   O     O_R   0.999930 0.950050 0.965410 -0.561261
O37   O     O_R   0.950050 0.999930 0.034590 -0.554644
O38   O     O_R   0.000070 0.950050 0.034590 -0.559659
O39   O     O_R   0.049950 0.000070 0.034590 -0.561970
O40   O     O_R   0.999930 0.049950 0.034590 -0.555615
O41   O     O_R   0.450050 0.500070 0.465410 -0.555631
O42   O     O_R   0.500070 0.549950 0.465410 -0.554981
O43   O     O_R   0.549950 0.499930 0.465410 -0.560934
O44   O     O_R   0.499930 0.450050 0.465410 -0.562621
O45   O     O_R   0.450050 0.499930 0.534590 -0.553853
O46   O     O_R   0.500070 0.450050 0.534590 -0.560945
O47   O     O_R   0.549950 0.500070 0.534590 -0.562822
O48   O     O_R   0.499930 0.549950 0.534590 -0.556883
F1    F     F_    0.944957 0.895120 0.966946 -0.612207
F2    F     F_    0.895030 0.051714 0.958526 -0.612688
F3    F     F_    0.050745 0.104999 0.957766 -0.606837
F4    F     F_    0.104755 0.943813 0.968665 -0.605122
F5    F     F_    0.949028 0.104990 0.042353 -0.612780
F6    F     F_    0.895041 0.948490 0.041327 -0.607314
F7    F     F_    0.055385 0.895208 0.033205 -0.604283
F8    F     F_    0.104861 0.055837 0.031197 -0.612563
F9    F     F_    0.443911 0.395187 0.469585 -0.612716
F10   F     F_    0.395008 0.550897 0.457483 -0.612393
F11   F     F_    0.551838 0.604935 0.459431 -0.605610
F12   F     F_    0.604775 0.443612 0.469267 -0.602550
F13   F     F_    0.447979 0.604966 0.540712 -0.613070
F14   F     F_    0.394995 0.449339 0.542393 -0.606453
F15   F     F_    0.556379 0.395207 0.530581 -0.602856
F16   F     F_    0.604825 0.556102 0.530540 -0.611065
C209  C     C_2   0.043897 0.786626 0.943225 0.901201
O49   O     O_2   0.032048 0.807231 0.918303 -0.539388
O50   O     O_R   0.079334 0.780571 0.945155 -0.729876
H65   H     H_    0.092680 0.794554 0.924076 0.357942
C210  C     C_2   0.787740 0.952827 0.946785 0.907832
O51   O     O_2   0.809683 0.963448 0.922865 -0.544539
O52   O     O_R   0.780813 0.917600 0.949079 -0.727816
H66   H     H_    0.795601 0.903517 0.929462 0.358459
C211  C     C_2   0.951118 0.213470 0.948194 0.909200
O53   O     O_2   0.960090 0.189943 0.925459 -0.544548
O54   O     O_R   0.916476 0.222943 0.950380 -0.729662
H67   H     H_    0.901241 0.208517 0.931765 0.357903
C212  C     C_2   0.212249 0.042476 0.940802 0.907640
O55   O     O_2   0.190645 0.029829 0.917933 -0.543617
O56   O     O_R   0.218715 0.077820 0.939500 -0.728602
H68   H     H_    0.203793 0.090169 0.918435 0.358295
C213  C     C_2   0.047305 0.212262 0.052959 0.908440
O57   O     O_2   0.036763 0.190341 0.076947 -0.544776
O58   O     O_R   0.082518 0.219164 0.050457 -0.727837
H69   H     H_    0.096661 0.204381 0.069997 0.358490
C214  C     C_2   0.786553 0.048718 0.052058 0.908536
O59   O     O_2   0.810093 0.039664 0.074740 -0.544445
O60   O     O_R   0.777075 0.083379 0.050064 -0.729602
H70   H     H_    0.791512 0.098552 0.068759 0.357873
C215  C     C_2   0.957100 0.787755 0.058654 0.908191
O61   O     O_2   0.969549 0.809414 0.081605 -0.543932
O62   O     O_R   0.921765 0.781231 0.059602 -0.728543
H71   H     H_    0.909256 0.796162 0.080509 0.358284
C216  C     C_2   0.213366 0.956486 0.057230 0.900824
O63   O     O_2   0.193128 0.968567 0.082375 -0.538710
O64   O     O_R   0.219005 0.921008 0.055285 -0.730289
H72   H     H_    0.205076 0.907808 0.076559 0.357993
C217  C     C_2   0.542051 0.286659 0.441047 0.898432
O65   O     O_2   0.529414 0.307987 0.417396 -0.540059
O66   O     O_R   0.577575 0.279790 0.440491 -0.728423
H73   H     H_    0.590246 0.293914 0.418914 0.357648
C218  C     C_2   0.287734 0.452665 0.447085 0.908496
O67   O     O_2   0.309650 0.463189 0.423082 -0.544852
O68   O     O_R   0.280835 0.417453 0.449634 -0.727838
H74   H     H_    0.295616 0.403295 0.430110 0.358454
C219  C     C_2   0.451570 0.713443 0.447583 0.908429
O69   O     O_2   0.460737 0.689903 0.424974 -0.544535
O70   O     O_R   0.416905 0.722917 0.449323 -0.729642
H75   H     H_    0.401826 0.708474 0.430531 0.357895
C220  C     C_2   0.712262 0.542198 0.440477 0.907640
O71   O     O_2   0.690666 0.529428 0.417698 -0.543701
O72   O     O_R   0.718729 0.577533 0.438901 -0.728564
H76   H     H_    0.703813 0.589769 0.417735 0.358306
C221  C     C_2   0.546938 0.712263 0.553519 0.907878
O73   O     O_2   0.536205 0.690316 0.577356 -0.544697
O74   O     O_R   0.582170 0.719196 0.551478 -0.727779
H77   H     H_    0.596157 0.704405 0.571187 0.358479
C222  C     C_2   0.286533 0.548930 0.551734 0.909279
O75   O     O_2   0.310062 0.539977 0.574479 -0.544607
O76   O     O_R   0.277058 0.583571 0.549505 -0.729629
H78   H     H_    0.291484 0.598821 0.568102 0.357907
C223  C     C_2   0.458882 0.287740 0.560567 0.907281
O77   O     O_2   0.472036 0.309366 0.583014 -0.544128
O78   O     O_R   0.423557 0.281224 0.563043 -0.728343
H79   H     H_    0.411670 0.296137 0.584514 0.358110
C224  C     C_2   0.713352 0.456881 0.557624 0.900765
O79   O     O_2   0.693015 0.469097 0.582562 -0.539139
O80   O     O_R   0.719094 0.421404 0.556103 -0.730223
H80   H     H_    0.705139 0.408334 0.577468 0.357919
C225  C     C_2   0.040245 0.712511 0.940014 0.878691
O81   O     O_2   0.061183 0.690751 0.950635 -0.553823
O82   O     O_R   0.034577 0.719227 0.897951 -0.738719
H81   H     H_    0.049068 0.704080 0.879266 0.348587
C226  C     C_2   0.713178 0.953681 0.945240 0.887914
O83   O     O_2   0.691520 0.933980 0.958886 -0.555782
O84   O     O_R   0.720245 0.954663 0.902697 -0.738134
H82   H     H_    0.705783 0.937727 0.886491 0.349741
C227  C     C_2   0.955322 0.287757 0.944129 0.889466
O85   O     O_2   0.936722 0.310880 0.956794 -0.556512
O86   O     O_R   0.955952 0.279503 0.901951 -0.738137
H83   H     H_    0.939939 0.294553 0.885057 0.349656
C228  C     C_2   0.286825 0.041802 0.939336 0.887868
O87   O     O_2   0.308887 0.062074 0.950641 -0.556060
O88   O     O_R   0.279322 0.038160 0.897137 -0.737442
H84   H     H_    0.293834 0.053705 0.879024 0.349718
C229  C     C_2   0.046461 0.286820 0.054539 0.887979
O89   O     O_2   0.066110 0.308486 0.040822 -0.555852
O90   O     O_R   0.045621 0.279734 0.097061 -0.738287
H85   H     H_    0.062605 0.294191 0.113188 0.349779
C230  C     C_2   0.712262 0.044519 0.056085 0.889359
O91   O     O_2   0.689148 0.063175 0.043486 -0.556417
O92   O     O_R   0.720509 0.043746 0.098290 -0.737927
H86   H     H_    0.705462 0.059716 0.115262 0.349611
C231  C     C_2   0.957876 0.713178 0.060273 0.887965
O93   O     O_2   0.937719 0.691051 0.048841 -0.556223
O94   O     O_R   0.961242 0.720754 0.102472 -0.737459
H87   H     H_    0.945613 0.706232 0.120465 0.349733
C232  C     C_2   0.287474 0.960049 0.060325 0.877483
O95   O     O_2   0.309138 0.938970 0.049843 -0.553703
O96   O     O_R   0.280863 0.966021 0.102367 -0.738454
H88   H     H_    0.295997 0.951616 0.121171 0.348543
C233  C     C_2   0.538163 0.212528 0.437919 0.880992
O97   O     O_2   0.559434 0.190719 0.447457 -0.553680
O98   O     O_R   0.531068 0.219292 0.396155 -0.738866
H89   H     H_    0.544896 0.204130 0.376725 0.348329
C234  C     C_2   0.213176 0.453508 0.445501 0.887956
O99   O     O_2   0.191513 0.433867 0.459239 -0.555860
O100  O     O_R   0.220259 0.454320 0.402977 -0.738299
H90   H     H_    0.205802 0.437325 0.386869 0.349775
C235  C     C_2   0.455777 0.787732 0.443586 0.889384
O101  O     O_2   0.437057 0.810839 0.456050 -0.556441
O102  O     O_R   0.456756 0.779491 0.401397 -0.738007
H91   H     H_    0.440871 0.794539 0.384315 0.349590
C236  C     C_2   0.786836 0.541492 0.439019 0.887878
O103  O     O_2   0.808909 0.561816 0.450155 -0.556113
O104  O     O_R   0.779329 0.537618 0.396853 -0.737482
H92   H     H_    0.793847 0.553056 0.378613 0.349677
C237  C     C_2   0.546083 0.786824 0.555036 0.887967
O105  O     O_2   0.565837 0.808486 0.541520 -0.555809
O106  O     O_R   0.544916 0.779756 0.597565 -0.738218
H93   H     H_    0.561773 0.794225 0.613877 0.349725
C238  C     C_2   0.212246 0.544725 0.555808 0.889468
O107  O     O_2   0.189121 0.563315 0.543121 -0.556501
O108  O     O_R   0.220504 0.544126 0.597986 -0.738158
H94   H     H_    0.205456 0.560151 0.614861 0.349655
C239  C     C_2   0.459804 0.213171 0.562248 0.887699
O109  O     O_2   0.439316 0.190991 0.551795 -0.556330
O110  O     O_R   0.464498 0.220798 0.604286 -0.737063
H95   H     H_    0.449456 0.206262 0.623033 0.349476
C240  C     C_2   0.787462 0.460462 0.560698 0.877849
O111  O     O_2   0.809128 0.439320 0.550407 -0.553746
O112  O     O_R   0.780846 0.466690 0.602684 -0.738552
H96   H     H_    0.795980 0.452399 0.621616 0.348502

loop_
_geom_bond_atom_site_label_1
_geom_bond_atom_site_label_2
_ccdc_geom_bond_type
C10   C174  A    
O104  H92   S    
C11   C171  A    
C211  O53   D    
C198  C206  A    
C228  O87   D    
C9    C169  A    
O88   H84   S    
C29   C221  S    
C12   C172  A    
C179  C195  A    
C231  O93   D    
C189  C203  A    
C121  O19   A    
C26   C218  S    
C177  C193  A    
C122  O20   A    
C78   H46   S    
C21   C59   A    
C137  H8    S    
C221  O74   S    
C219  O70   S    
C130  C146  A    
C178  F10   S    
C22   C38   A    
C130  H15   S    
C184  F16   S    
C186  C202  A    
C30   C222  S    
C236  O103  D    
Cu5   O25   S    
C35   C227  S    
C18   C58   A    
Cu7   O11   S    
Cu8   O12   S    
C65   H33   S    
C23   C215  S    
C21   C213  S    
C147  C155  S    
C129  C145  A    
C180  C196  A    
C94   H62   S    
C12   C115  S    
C55   C111  S    
C143  C151  A    
C72   C88   A    
C225  O82   S    
C196  H28   S    
C76   C112  A    
C82   C98   A    
Cu10  O37   S    
Cu2   O8    S    
C210  O52   S    
C182  F14   S    
Cu5   Cu7   S    
C75   H43   S    
C11   C173  A    
C79   C109  A    
O106  H93   S    
C84   C100  A    
C25   C41   A    
C115  O39   A    
C239  O109  D    
C195  H27   S    
C28   C44   A    
C29   C45   A    
C74   C110  A    
C188  H20   S    
C175  F7    S    
C66   C82   A    
C212  O56   S    
O52   H66   S    
Cu6   O10   S    
C197  H29   S    
Cu7   O15   S    
C80   C112  A    
C192  C204  A    
C127  C167  S    
C96   H64   S    
Cu4   O22   S    
C8    C104  S    
C36   C228  S    
C10   C113  S    
C196  C208  A    
C95   H63   S    
C96   C104  A    
C153  C168  T    
C35   C51   A    
C219  O69   D    
Cu2   O2    S    
C154  C167  T    
Cu2   O24   S    
O68   H74   S    
C180  F12   S    
C136  H9    S    
C7    O13   A    
C53   C109  S    
C89   C101  A    
C122  O18   A    
C9    C116  S    
C91   C103  A    
C22   C58   A    
Cu7   O31   S    
O62   H71   S    
C16   C184  A    
C220  O71   D    
C15   C118  S    
C19   C59   A    
C74   C90   A    
C191  H23   S    
C19   C35   A    
C213  O57   D    
C78   C94   A    
C6    C102  S    
C233  O97   D    
C121  O17   A    
C92   C104  A    
C58   C202  S    
C51   C107  S    
C194  H26   S    
O54   H67   S    
C191  C201  A    
C224  O79   D    
C236  O104  S    
C62   C206  S    
C200  H32   S    
Cu12  O45   S    
Cu1   O17   S    
C218  O68   S    
C127  O31   A    
C67   C83   A    
C209  O49   D    
C15   C179  A    
C124  O22   A    
O84   H82   S    
C199  C205  A    
C181  C197  A    
C93   C103  A    
C222  O75   D    
C69   C107  A    
C129  C144  A    
C229  O89   D    
C139  H6    S    
Cu11  O44   S    
Cu7   O27   S    
C44   C236  S    
C128  O30   A    
Cu8   O28   S    
C142  C152  A    
O74   H77   S    
C132  C146  A    
C54   C110  S    
C235  O102  S    
C20   C212  S    
C90   C102  A    
C60   C204  S    
C185  H17   S    
C8    O16   A    
C184  C200  A    
C135  H10   S    
C45   C237  S    
Cu9   O34   S    
C133  C147  A    
C125  O27   A    
C46   C238  S    
C126  O28   A    
C36   C52   A    
Cu3   O23   S    
C12   C176  A    
C14   C117  S    
C76   H44   S    
C7    C103  S    
C19   C211  S    
C87   H55   S    
C47   C239  S    
C65   C105  A    
C226  O84   S    
C73   H41   S    
C193  C205  A    
C32   C224  S    
Cu10  O40   S    
C32   C64   A    
C134  C139  A    
Cu6   O26   S    
C190  C202  A    
C183  F15   S    
C13   C183  A    
Cu9   Cu10  S    
C188  C204  A    
C151  C159  S    
C92   H60   S    
C125  C165  S    
C85   C99   A    
C27   C43   A    
O90   H85   S    
C34   C226  S    
C89   H57   S    
C195  C207  A    
C136  C148  A    
C91   H59   S    
C157  C164  T    
C41   C53   A    
C144  H1    S    
C14   C178  A    
Cu12  O47   S    
C158  C163  T    
C117  O45   A    
C43   C55   A    
C127  O29   A    
Cu2   Cu4   S    
C124  O24   A    
C142  H3    S    
C172  F4    S    
C13   C120  S    
C69   C85   A    
C26   C42   A    
C69   H37   S    
C132  C141  A    
C23   C57   A    
C193  H25   S    
C39   C49   A    
C80   H48   S    
Cu11  O42   S    
C30   C46   A    
C136  C137  A    
C240  O112  S    
C120  O46   A    
C135  C147  A    
C122  C162  S    
C47   C53   A    
C2    O6    A    
C133  H12   S    
Cu1   O21   S    
C144  C152  A    
C221  O73   D    
C238  O108  S    
Cu9   O36   S    
C85   H53   S    
C9    C175  A    
C138  H7    S    
C118  O48   A    
C216  O64   S    
O100  H90   S    
C3    C99   S    
C117  O41   A    
C45   C55   A    
C200  C208  A    
C234  O99   D    
C57   C201  S    
C63   C207  S    
C40   C232  S    
C113  O37   A    
C16   C180  A    
C61   C205  S    
C214  O60   S    
C29   C63   A    
C225  O81   D    
C140  C150  A    
C42   C234  S    
C113  O33   A    
C31   C61   A    
Cu10  O38   S    
C115  O35   A    
C143  H2    S    
C1    O1    A    
C210  O51   D    
C116  O36   A    
O64   H72   S    
C43   C235  S    
C3    O3    A    
C178  C194  A    
C39   C231  S    
C215  O62   S    
C232  O96   S    
C33   C49   A    
O60   H70   S    
C187  C203  A    
C185  C201  A    
C77   C111  A    
Cu3   O7    S    
C14   C182  A    
C28   C220  S    
C66   H34   S    
C230  O92   S    
O56   H68   S    
C20   C60   A    
C132  H13   S    
C239  O110  S    
O102  H91   S    
C211  O54   S    
C31   C47   A    
C228  O88   S    
C17   C33   A    
C24   C216  S    
C5    C101  S    
C231  O94   S    
Cu8   O14   S    
C129  H16   S    
C37   C229  S    
O98   H89   S    
C68   C84   A    
Cu2   O18   S    
Cu1   O1    S    
C70   C106  A    
Cu11  Cu12  S    
C49   C105  S    
C8    O12   A    
C237  O105  D    
C139  C149  A    
C83   C99   A    
O94   H87   S    
C4    O8    A    
C79   C95   A    
C5    O9    A    
C220  O72   S    
C44   C56   A    
C65   C81   A    
C46   C54   A    
C81   H49   S    
C159  C162  T    
C120  O44   A    
C25   C61   A    
C83   H51   S    
C88   C100  A    
C27   C63   A    
C174  C190  A    
C71   C87   A    
C74   H42   S    
C190  H22   S    
C71   C105  A    
C197  C207  A    
Cu12  O46   S    
C218  O67   D    
C150  C158  S    
Cu1   O5    S    
C22   C214  S    
C126  C166  S    
C187  H19   S    
O72   H76   S    
C73   C109  A    
C67   H35   S    
C10   C170  A    
C75   C111  A    
C82   H50   S    
C90   H58   S    
Cu11  O43   S    
C223  O78   S    
C5    O15   A    
C73   C89   A    
C174  F6    S    
C42   C54   A    
C32   C48   A    
C156  C165  T    
C13   C177  A    
C15   C181  A    
C77   C93   A    
C77   H45   S    
Cu6   Cu8   S    
C48   C240  S    
C227  O85   D    
C88   H56   S    
C86   C98   A    
C169  C185  A    
C20   C36   A    
C59   C203  S    
C70   H38   S    
C21   C37   A    
C133  C140  A    
O80   H80   S    
C217  O66   S    
Cu9   O33   S    
C148  C156  S    
C149  C157  S    
Cu5   O13   S    
C17   C57   A    
C124  C164  S    
C135  C138  A    
C152  C160  S    
C192  H24   S    
O76   H78   S    
C182  C198  A    
O110  H95   S    
C116  O38   A    
C93   H61   S    
C226  O83   D    
Cu4   O4    S    
C119  O47   A    
O70   H75   S    
C138  C150  A    
Cu6   O32   S    
C64   C208  S    
C1    O7    A    
C140  H5    S    
C4    O4    A    
C177  F9    S    
C86   H54   S    
Cu3   O19   S    
C213  O58   S    
C175  C191  A    
C37   C51   A    
C23   C39   A    
C176  C192  A    
C17   C209  S    
C155  C166  T    
C123  C163  S    
C123  O23   A    
C119  O43   A    
C11   C114  S    
C198  H30   S    
C24   C40   A    
C186  H18   S    
O86   H83   S    
C146  C154  S    
C79   H47   S    
O78   H79   S    
C131  C145  A    
C114  O34   A    
C50   C106  S    
C80   C96   A    
Cu12  O48   S    
C41   C233  S    
C2    O2    A    
Cu5   O9    S    
Cu8   O30   S    
C121  C161  S    
C209  O50   S    
Cu5   O29   S    
C170  C186  A    
C114  O40   A    
C66   C106  A    
C222  O76   S    
C237  O106  S    
C131  H14   S    
C169  F1    S    
C194  C206  A    
C34   C50   A    
C126  O26   A    
C84   H52   S    
C229  O90   S    
C171  F3    S    
Cu11  O41   S    
O108  H94   S    
C72   C108  A    
Cu3   O3    S    
C6    O14   A    
C16   C119  S    
C1    C97   S    
O112  H96   S    
C7    O11   A    
C234  O100  S    
C240  O111  D    
C40   C52   A    
C183  C199  A    
C128  O32   A    
C118  O42   A    
O58   H69   S    
C68   H36   S    
O82   H81   S    
C24   C60   A    
C238  O107  D    
Cu9   O35   S    
C78   C110  A    
C134  H11   S    
C130  C143  A    
C18   C34   A    
C2    C98   S    
C216  O63   D    
C131  C142  A    
C76   C92   A    
Cu6   O16   S    
C199  H31   S    
C137  C149  A    
C72   H40   S    
C4    C100  S    
C224  O80   S    
C3    O5    A    
C71   H39   S    
C134  C148  A    
C70   C86   A    
C28   C64   A    
Cu4   O6    S    
C141  C151  A    
C214  O59   D    
C179  F11   S    
C48   C56   A    
C25   C217  S    
Cu10  O39   S    
C176  F8    S    
C6    O10   A    
C38   C50   A    
C18   C210  S    
C75   C91   A    
C233  O98   S    
C212  O55   D    
C171  C187  A    
C123  O21   A    
C160  C161  T    
C30   C62   A    
C26   C62   A    
C145  C153  S    
O96   H88   S    
C38   C230  S    
C215  O61   D    
C189  H21   S    
O50   H65   S    
C67   C107  A    
C232  O95   D    
C217  O65   D    
C81   C97   A    
C172  C188  A    
C31   C223  S    
C173  C189  A    
Cu1   Cu3   S    
C33   C225  S    
C170  F2    S    
C223  O77   D    
C181  F13   S    
C235  O101  D    
C141  H4    S    
O92   H86   S    
C27   C219  S    
C95   C101  A    
C52   C108  S    
C227  O86   S    
C230  O91   D    
C128  C168  S    
C68   C108  A    
Cu4   O20   S    
C125  O25   A    
C56   C112  S    
C173  F5    S    
O66   H73   S    
C94   C102  A    
C87   C97   A    
