data_mof_unit_59741.cif
_audit_creation_date              2012-10-26T18:50:46-0400
_audit_creation_method            fapswitch 2.2
_symmetry_space_group_name_H-M    P1
_symmetry_Int_Tables_number       1
_space_group_crystal_system       triclinic
_cell_length_a                    12.324388
_cell_length_b                    13.207133
_cell_length_c                    17.339804
_cell_angle_alpha                 105.376848
_cell_angle_beta                  74.483425
_cell_angle_gamma                 116.610353
_cell_volume                      2396.60613866

loop_
_atom_site_label
_atom_site_type_symbol
_atom_type_description
_atom_site_fract_x
_atom_site_fract_y
_atom_site_fract_z
_atom_type_partial_charge
C1    C     C_R   0.144642 0.713536 0.506235 0.521788
C2    C     C_R   0.011860 0.483450 0.260936 0.013908
C3    C     C_R   0.737384 0.973038 0.403868 -0.156002
C4    C     C_R   0.986963 0.503143 0.652171 0.529955
C5    C     C_R   0.774344 0.164227 0.478548 -0.003289
C6    C     C_R   0.177138 0.918254 0.545545 -0.138127
C7    C     C_R   0.252820 0.034703 0.553399 -0.163919
C8    C     C_R   0.379538 0.071040 0.528688 -0.098506
C9    C     C_R   0.433368 0.990711 0.494715 0.034703
C10   C     C_R   0.354034 0.873915 0.474020 0.012799
C11   C     C_R   0.563119 0.022791 0.476876 0.033696
C12   C     C_R   0.875737 0.510508 0.794595 -0.139009
C13   C     C_R   0.610277 0.942724 0.425521 0.012503
C14   C     C_R   0.530274 0.833230 0.395635 -0.142213
C15   C     C_R   0.404354 0.799378 0.419308 -0.129370
C16   C     C_R   0.855818 0.286384 0.490391 0.558434
C17   C     C_R   0.647973 0.129657 0.510692 0.246714
C18   C     C_R   0.818924 0.083967 0.428988 -0.187826
C19   C     C_R   0.226266 0.836361 0.506796 -0.004170
C20   C     C_R   0.641118 0.674691 0.630438 -0.153367
C21   C     C_R   0.251484 0.352623 0.387936 0.438091
C22   C     C_R   0.354554 0.323754 0.364503 -0.163496
C23   C     C_R   0.902310 0.465152 0.157562 -0.131020
C24   C     C_R   0.451579 0.378753 0.407339 -0.189133
C25   C     C_R   0.451196 0.465889 0.474232 -0.018597
C26   C     C_R   0.346813 0.494905 0.496394 0.131861
C27   C     C_R   0.551205 0.525815 0.519347 -0.000883
C28   C     C_R   0.011785 0.494869 0.347489 0.549193
C29   C     C_R   0.545130 0.614232 0.585347 0.038605
C30   C     C_R   0.443367 0.641876 0.606043 -0.173840
C31   C     C_R   0.346558 0.583487 0.562834 -0.102693
C32   C     C_R   0.657924 0.502314 0.502027 0.054668
C33   C     C_R   0.743065 0.647463 0.610307 0.036713
C34   C     C_R   0.909438 0.481660 0.238645 -0.182016
C35   C     C_R   0.978445 0.503374 0.737800 0.012137
C36   C     C_R   0.072956 0.496028 0.763389 -0.137755
C37   C     C_R   0.064284 0.494406 0.844495 -0.110601
C38   C     C_R   0.960174 0.498810 0.900942 0.042275
C39   C     C_R   0.867116 0.508825 0.875868 -0.122449
C40   C     C_3   0.636946 0.196353 0.648059 0.021964
C41   C     C_3   0.534191 0.096009 0.687850 -0.274346
C42   C     C_3   0.558354 0.096489 0.769792 -0.487563
C43   C     C_3   0.141293 0.198004 0.292491 -0.001972
C44   C     C_3   0.209408 0.217541 0.206013 -0.250957
C45   C     C_R   0.108515 0.468547 0.199731 0.262803
C46   C     C_3   0.218156 0.107771 0.153715 -0.500587
C47   C     C_3   0.300963 0.577275 0.232704 0.028471
C48   C     C_3   0.387799 0.613171 0.153779 -0.287055
C49   C     C_3   0.499326 0.725154 0.170870 -0.484839
C50   C     C_R   0.098259 0.448342 0.118317 -0.101132
C51   C     C_R   0.997763 0.450333 0.097017 -0.003511
C52   C     C_2   0.948738 0.497361 0.986864 -0.134935
C53   C     C_2   0.997312 0.440793 0.011063 -0.137399
Cu1   Cu    Cu3+1 0.900140 0.524980 0.518800 0.940464
Cu2   Cu    Cu3+1 0.099860 0.475020 0.481200 0.979250
H1    H     H_    0.154013 0.492276 0.720959 0.125631
H2    H     H_    0.817360 0.693977 0.644910 0.117732
H3    H     H_    0.833237 0.491339 0.283869 0.132638
H4    H     H_    0.438221 0.709599 0.656533 0.104246
H5    H     H_    0.637283 0.742642 0.680996 0.088094
H6    H     H_    0.670356 0.436443 0.453122 0.121292
H7    H     H_    0.526646 0.351844 0.385750 0.105010
H8    H     H_    0.363183 0.259679 0.312491 0.095500
H9    H     H_    0.273334 0.611319 0.583918 0.183076
H10   H     H_    0.045726 0.392941 0.966847 0.114377
H11   H     H_    0.787102 0.513818 0.919036 0.096909
H12   H     H_    0.171091 0.434557 0.071562 0.103908
H13   H     H_    0.821210 0.462545 0.142568 0.112101
H14   H     H_    0.801711 0.516517 0.776258 0.122587
H15   H     H_    0.900405 0.545443 0.030857 0.114827
H16   H     H_    0.140080 0.491684 0.862878 0.100222
H17   H     H_    0.643843 0.277947 0.690119 0.159609
H18   H     H_    0.727806 0.191947 0.639574 0.115223
H19   H     H_    0.444608 0.102423 0.696767 0.175857
H20   H     H_    0.528022 0.013294 0.647691 0.162916
H21   H     H_    0.646658 0.088253 0.762027 0.148762
H22   H     H_    0.482663 0.022866 0.796969 0.145293
H23   H     H_    0.916537 0.107625 0.408476 0.139930
H24   H     H_    0.562487 0.177393 0.811865 0.146912
H25   H     H_    0.042255 0.148271 0.288361 0.137748
H26   H     H_    0.166091 0.142842 0.317084 0.100344
H27   H     H_    0.158510 0.245292 0.177730 0.201182
H28   H     H_    0.303616 0.286489 0.206836 0.177003
H29   H     H_    0.272074 0.079930 0.179195 0.146459
H30   H     H_    0.265208 0.123817 0.091161 0.146698
H31   H     H_    0.124606 0.038131 0.150832 0.146740
H32   H     H_    0.355560 0.575668 0.273657 0.158263
H33   H     H_    0.262314 0.642412 0.264620 0.108839
H34   H     H_    0.565193 0.772676 0.354519 0.103054
H35   H     H_    0.419997 0.544529 0.120366 0.166089
H36   H     H_    0.337938 0.625617 0.114797 0.150556
H37   H     H_    0.469299 0.794565 0.205893 0.153915
H38   H     H_    0.557898 0.751290 0.112596 0.145805
H39   H     H_    0.555121 0.713325 0.205784 0.139915
H40   H     H_    0.773659 0.912092 0.365023 0.114412
H41   H     H_    0.079697 0.892419 0.569631 0.130844
H42   H     H_    0.432644 0.162500 0.533364 0.179540
H43   H     H_    0.213328 0.097302 0.580267 0.119382
H44   H     H_    0.347781 0.715480 0.391153 0.136940
N1    N     N_R   0.749710 0.562810 0.547300 -0.232923
N2    N     N_R   0.249640 0.437820 0.453210 -0.230271
O1    O     O_R   0.025490 0.682370 0.523640 -0.507527
O2    O     O_3   0.153596 0.303643 0.344921 -0.499969
O3    O     O_3   0.209103 0.464790 0.217957 -0.559593
O4    O     O_R   0.194150 0.640180 0.491890 -0.540428
O5    O     O_R   0.905900 0.523560 0.631310 -0.509843
O6    O     O_R   0.074570 0.481370 0.599560 -0.533609
O7    O     O_R   0.805850 0.359820 0.508110 -0.463495
O8    O     O_R   0.974510 0.317630 0.476360 -0.476214
O9    O     O_R   0.925430 0.518630 0.400440 -0.531830
O10   O     O_R   0.094100 0.476440 0.368690 -0.415607
O11   O     O_3   0.608659 0.200489 0.575260 -0.583489

loop_
_geom_bond_atom_site_label_1
_geom_bond_atom_site_label_2
_ccdc_geom_bond_type
C12   H14   S    
C7    H43   S    
C27   C29   A    
C41   C42   S    
C35   C36   A    
C43   C44   S    
C44   H28   S    
C7    C8    A    
C40   O11   S    
C6    C19   A    
C29   C30   A    
Cu2   O4    S    
C36   C37   A    
C32   H6    S    
C44   H27   S    
C10   C15   A    
C26   N2    A    
C38   C39   A    
C38   C52   S    
C40   H18   S    
Cu1   O9    S    
C3    C18   A    
C5    C16   S    
C22   H8    S    
C8    C9    A    
C48   H36   S    
C33   H2    S    
C49   H39   S    
C20   H5    S    
C53   H10   S    
C9    C10   A    
C3    C13   A    
C46   H30   S    
C21   N2    A    
C2    C34   A    
C41   H19   S    
C4    C35   S    
C42   H24   S    
C2    C45   A    
C48   H35   S    
C21   C22   A    
Cu2   O8    S    
Cu1   N1    S    
C44   C46   S    
C16   O8    A    
C20   C29   A    
C28   O10   A    
C4    O6    A    
C1    C19   S    
Cu1   O5    S    
C24   C25   A    
C5    C18   A    
C28   O9    A    
C25   C26   A    
C4    O5    A    
C32   N1    A    
Cu2   O6    S    
C51   C53   S    
C47   H32   S    
C23   H13   S    
C8    H42   S    
C14   H34   S    
C37   C38   A    
C36   H1    S    
C45   O3    S    
C41   H20   S    
C23   C51   A    
C47   C48   S    
C10   C19   A    
C18   H23   S    
C23   C34   A    
C30   H4    S    
C50   C51   A    
C12   C35   A    
C9    C11   A    
C46   H29   S    
C20   C33   A    
C40   C41   S    
C6    H41   S    
C37   H16   S    
C43   H26   S    
C39   H11   S    
C22   C24   A    
C49   H37   S    
C17   O11   S    
C52   C53   D    
C50   H12   S    
Cu1   Cu2   S    
C11   C17   A    
C24   H7    S    
C47   O3    S    
C40   H17   S    
Cu2   O10   S    
C27   C32   A    
C31   H9    S    
Cu1   O1    S    
C15   H44   S    
C3    H40   S    
C6    C7    A    
C25   C27   A    
Cu2   N2    S    
C42   H21   S    
Cu1   O7    S    
C33   N1    A    
C47   H33   S    
C12   C39   A    
C43   H25   S    
C11   C13   A    
C30   C31   A    
C45   C50   A    
C48   C49   S    
C43   O2    S    
C52   H15   S    
C16   O7    A    
C21   O2    S    
C26   C31   A    
C5    C17   A    
C42   H22   S    
C34   H3    S    
C14   C15   A    
C2    C28   S    
C49   H38   S    
C13   C14   A    
C1    O1    A    
C1    O4    A    
C46   H31   S    
