data_mof_unit_33830.cif
_audit_creation_date              2012-12-10T17:53:05-0500
_audit_creation_method            fapswitch 2.2
_symmetry_space_group_name_H-M    P1
_symmetry_Int_Tables_number       1
_space_group_crystal_system       triclinic
_cell_length_a                    14.734089
_cell_length_b                    14.686713
_cell_length_c                    27.805565
_cell_angle_alpha                 76.008473
_cell_angle_beta                  102.294022
_cell_angle_gamma                 115.013607
_cell_volume                      5248.78109315

loop_
_atom_site_label
_atom_site_type_symbol
_atom_type_description
_atom_site_fract_x
_atom_site_fract_y
_atom_site_fract_z
_atom_type_partial_charge
C1    C     C_R   0.880649 0.312063 0.507016 0.804958
C2    C     C_R   0.119370 0.688261 0.492299 0.827090
C3    C     C_R   0.996395 0.500992 0.897461 -0.045209
C4    C     C_R   0.003826 0.500127 0.102230 -0.044388
C5    C     C_R   0.951703 0.408849 0.878568 -0.021828
C6    C     C_R   0.038604 0.592572 0.120104 -0.029185
C7    C     C_R   0.908323 0.317154 0.910523 -0.150329
C8    C     C_R   0.071726 0.684801 0.087059 -0.149223
C9    C     C_R   0.039436 0.593273 0.864884 -0.021184
C10   C     C_R   0.970648 0.407409 0.135837 -0.019857
C11   C     C_R   0.998407 0.499950 0.645263 -0.095880
C12   C     C_R   0.001736 0.500293 0.354776 -0.066474
C13   C     C_R   0.963648 0.406296 0.033215 0.041476
C14   C     C_R   0.040818 0.594797 0.966897 0.041570
C15   C     C_R   0.038820 0.594736 0.017801 0.041841
C16   C     C_R   0.957400 0.406688 0.981452 0.041810
C17   C     C_R   0.002141 0.500393 0.050873 0.068512
C18   C     C_R   0.998165 0.500834 0.948810 0.068045
C19   C     C_R   0.933382 0.314681 0.068308 -0.205583
C20   C     C_R   0.084765 0.685864 0.933223 -0.204855
C21   C     C_R   0.936707 0.315459 0.118495 -0.148693
C22   C     C_R   0.083843 0.684889 0.883305 -0.146571
C23   C     C_R   0.999406 0.499983 0.592395 0.804040
C24   C     C_R   0.000709 0.500203 0.407612 0.818207
C25   C     C_R   0.910846 0.315875 0.960881 -0.204871
C26   C     C_R   0.071741 0.686100 0.036960 -0.203144
C27   C     C_R   0.813579 0.204580 0.505075 -0.083488
C28   C     C_R   0.185980 0.797549 0.489310 -0.096963
C29   C     C_R   0.775549 0.038592 0.485991 -0.254756
C30   C     C_R   0.220476 0.972969 0.492818 -0.253921
C31   C     C_R   0.846535 0.134615 0.494875 0.253432
C32   C     C_R   0.151127 0.872624 0.491162 0.254072
C33   C     C_R   0.710992 0.175895 0.507415 -0.300292
C34   C     C_R   0.288602 0.825816 0.487206 -0.296009
C35   C     C_R   0.638185 0.082055 0.495732 0.093258
C36   C     C_R   0.358733 0.926832 0.487434 0.086751
C37   C     C_R   0.672435 0.012266 0.486057 0.121719
C38   C     C_R   0.323338 0.000067 0.491635 0.127162
C39   C     C_R   0.532612 0.055894 0.493191 0.080047
C40   C     C_R   0.463472 0.956012 0.485597 0.077329
C41   C     C_R   0.501095 0.889307 0.475519 -0.213102
C42   C     C_R   0.493663 0.127067 0.496459 -0.215724
C43   C     C_R   0.603494 0.917279 0.475644 -0.201068
C44   C     C_R   0.390947 0.099623 0.495182 -0.206901
C45   C     C_R   0.951329 0.410653 0.827834 0.536544
C46   C     C_R   0.038563 0.590592 0.170821 0.576744
C47   C     C_R   0.698679 0.633810 0.401250 0.152021
C48   C     C_R   0.284168 0.332401 0.586597 0.155573
C49   C     C_R   0.787786 0.618103 0.421670 -0.041568
C50   C     C_R   0.202677 0.363131 0.571750 -0.051926
C51   C     C_R   0.717191 0.517915 0.495790 0.503919
C52   C     C_R   0.285059 0.489743 0.506168 0.537649
C53   C     C_R   0.622171 0.524368 0.476256 -0.092006
C54   C     C_R   0.365838 0.455611 0.515236 -0.153973
C55   C     C_R   0.615178 0.586153 0.428895 0.023635
C56   C     C_R   0.364732 0.377029 0.556973 0.035930
C57   C     C_R   0.533961 0.471545 0.501996 0.129988
C58   C     C_R   0.447391 0.496346 0.485036 0.082224
C59   C     C_R   0.442306 0.553986 0.436742 -0.246989
C60   C     C_R   0.525323 0.388058 0.541098 -0.169569
C61   C     C_R   0.524101 0.598230 0.409612 -0.181697
C62   C     C_R   0.442777 0.341716 0.567540 -0.201757
C63   C     C_R   0.038169 0.591567 0.814487 0.524776
C64   C     C_R   0.971972 0.408812 0.186278 0.513401
C65   C     C_R   0.924729 0.522448 0.709377 -0.145367
C66   C     C_R   0.070155 0.469858 0.291041 -0.170774
C67   C     C_R   0.924914 0.521962 0.659384 -0.206810
C68   C     C_R   0.070071 0.470380 0.341065 -0.210082
C69   C     C_R   0.071624 0.478255 0.682064 -0.223642
C70   C     C_R   0.933824 0.530145 0.317575 -0.290606
C71   C     C_R   0.071585 0.477688 0.732515 0.303297
C72   C     C_R   0.932960 0.529055 0.267277 0.304977
C73   C     C_R   0.997593 0.500744 0.745996 0.298763
C74   C     C_R   0.002087 0.499079 0.253985 0.339273
Cu1   Cu    Cu3+1 0.081740 0.475690 0.513040 0.987040
Cu2   Cu    Cu3+1 0.918260 0.524310 0.486960 0.956756
H1    H     H_    0.129867 0.462908 0.671619 0.168141
H2    H     H_    0.880684 0.553685 0.327447 0.154230
H3    H     H_    0.312737 0.766278 0.487380 0.182078
H4    H     H_    0.690014 0.229265 0.518226 0.148075
H5    H     H_    0.801144 0.985158 0.478033 0.139745
H6    H     H_    0.193740 0.029694 0.495599 0.138762
H7    H     H_    0.453138 0.815821 0.465534 0.140986
H8    H     H_    0.540155 0.205917 0.498589 0.137744
H9    H     H_    0.514869 0.642772 0.373138 0.163080
H10   H     H_    0.440638 0.276512 0.596248 0.160295
H11   H     H_    0.137727 0.328849 0.591826 0.156935
H12   H     H_    0.851250 0.649361 0.400726 0.159224
H13   H     H_    0.373455 0.561591 0.417609 0.192839
H14   H     H_    0.578027 0.351516 0.549917 0.166012
H15   H     H_    0.872130 0.245419 0.896751 0.185131
H16   H     H_    0.097640 0.756939 0.099747 0.185211
H17   H     H_    0.123408 0.447246 0.368950 0.174535
H18   H     H_    0.867715 0.539159 0.631849 0.208273
H19   H     H_    0.123595 0.447128 0.280921 0.154527
H20   H     H_    0.867710 0.539648 0.719819 0.154703
H21   H     H_    0.912214 0.243135 0.143726 0.185679
H22   H     H_    0.118613 0.756759 0.859154 0.185481
H23   H     H_    0.908266 0.240475 0.058513 0.140283
H24   H     H_    0.122608 0.759666 0.944308 0.139795
H25   H     H_    0.873658 0.242074 0.982463 0.140254
H26   H     H_    0.096362 0.760539 0.014083 0.139775
H27   H     H_    0.628856 0.863961 0.467388 0.152863
H28   H     H_    0.364438 0.156628 0.497782 0.152249
N1    N     N_R   0.995129 0.501043 0.797191 -0.470244
N2    N     N_R   0.004523 0.499540 0.202594 -0.454587
N3    N     N_R   0.795430 0.560780 0.467350 -0.221697
N4    N     N_R   0.204570 0.439220 0.532650 -0.201836
O1    O     O_R   0.977900 0.338120 0.517190 -0.553845
O2    O     O_R   0.022100 0.661880 0.482810 -0.550311
O3    O     O_R   0.839850 0.379180 0.495160 -0.613835
O4    O     O_R   0.160150 0.620820 0.504840 -0.534599
O5    O     O_R   0.069030 0.479490 0.580750 -0.599420
O6    O     O_R   0.930970 0.520510 0.419250 -0.603171
O7    O     O_R   0.930970 0.520550 0.558720 -0.555900
O8    O     O_R   0.069030 0.479450 0.441280 -0.538786
O9    O     O_2   0.907837 0.322918 0.809233 -0.549962
O10   O     O_2   0.072523 0.678885 0.188333 -0.539789
O11   O     O_2   0.939515 0.320243 0.218646 -0.548893
O12   O     O_2   0.080211 0.679425 0.783062 -0.538369
N5    N     N_2   0.047833 0.847240 0.494208 -0.402452
H29   H     H_    0.037814 0.879620 0.520683 0.246486
C75   C     C_3   0.989983 0.865101 0.446551 -0.661699
H30   H     H_    0.016840 0.948084 0.431274 0.210680
H31   H     H_    0.909117 0.836262 0.451522 0.224490
H32   H     H_    0.996799 0.824352 0.419497 0.232998
N6    N     N_2   0.949797 0.161490 0.491140 -0.409764
H33   H     H_    0.960135 0.139002 0.461012 0.245523
C76   C     C_3   0.005155 0.130215 0.536925 -0.664972
H34   H     H_    0.976774 0.045628 0.546015 0.213027
H35   H     H_    0.997157 0.159968 0.568229 0.229962
H36   H     H_    0.086438 0.161082 0.532406 0.228158
O13   O     O_3   0.287531 0.576880 0.473364 -0.723762
H37   H     H_    0.356654 0.629379 0.478966 0.287872
O14   O     O_3   0.733822 0.476892 0.544959 -0.751351
H38   H     H_    0.756037 0.422069 0.545280 0.338543
N7    N     N_2   0.689545 0.691715 0.352300 -0.429466
H39   H     H_    0.632243 0.651686 0.327466 0.252603
C77   C     C_3   0.779478 0.763068 0.330107 -0.697024
H40   H     H_    0.758198 0.811944 0.296387 0.241104
H41   H     H_    0.816828 0.721491 0.318521 0.210391
H42   H     H_    0.832341 0.813296 0.356757 0.233600
N8    N     N_2   0.287881 0.259240 0.631022 -0.426580
H43   H     H_    0.356146 0.280126 0.653613 0.259369
C78   C     C_3   0.202158 0.207150 0.658935 -0.697049
H44   H     H_    0.217451 0.150039 0.690176 0.240496
H45   H     H_    0.133855 0.165779 0.634680 0.230055
H46   H     H_    0.189143 0.262383 0.674903 0.214164
N9    N     N_2   0.148394 0.458149 0.768931 -0.427649
H47   H     H_    0.159569 0.482762 0.802245 0.259520
C79   C     C_3   0.146227 0.356413 0.775828 -0.660811
H48   H     H_    0.210288 0.349984 0.803834 0.227382
H49   H     H_    0.153930 0.339895 0.740350 0.219028
H50   H     H_    0.074539 0.299090 0.789542 0.256653
N10   N     N_2   0.863773 0.559728 0.230111 -0.415332
H51   H     H_    0.846094 0.614117 0.238963 0.251865
C80   C     C_3   0.774473 0.476144 0.213871 -0.667579
H52   H     H_    0.726832 0.506691 0.183655 0.228583
H53   H     H_    0.729952 0.431869 0.245516 0.223446
H54   H     H_    0.795085 0.424867 0.198927 0.250264

loop_
_geom_bond_atom_site_label_1
_geom_bond_atom_site_label_2
_ccdc_geom_bond_type
C66   C68   A    
C24   O6    A    
C80   H52   S    
C22   H22   S    
C70   H2    S    
C8    C26   A    
C14   C18   A    
C69   H1    S    
C31   N6    S    
C78   H44   S    
C44   H28   S    
O14   H38   S    
C49   N3    A    
C27   C33   A    
C38   C44   A    
C62   H10   S    
C2    O4    A    
Cu1   O4    S    
C64   O11   S    
C35   C37   A    
N9    C79   S    
C77   H42   S    
C9    C22   A    
C75   H31   S    
N10   C80   S    
N8    H43   S    
C41   H7    S    
C55   C61   A    
Cu2   O7    S    
C65   C73   A    
C46   O10   S    
C3    C18   A    
C60   C62   A    
C59   H13   S    
C79   H50   S    
C69   C71   A    
C1    O1    A    
C51   O14   S    
C65   H20   S    
C45   N1    A    
C65   C67   A    
C67   H18   S    
Cu2   O6    S    
C79   H48   S    
C8    H16   S    
C63   N1    A    
C48   C56   A    
C76   H36   S    
C52   C54   A    
C48   C50   A    
C28   C34   A    
Cu1   N4    S    
C80   H53   S    
C72   N10   S    
C50   N4    A    
C52   O13   S    
C41   C43   A    
C49   H12   S    
C42   C44   A    
C51   N3    A    
C28   C32   A    
C78   H45   S    
C11   C67   A    
C39   C42   A    
C53   C55   A    
C10   C21   A    
C54   C56   A    
C59   C61   A    
Cu1   O1    S    
C13   C19   A    
C27   C31   A    
C14   C20   A    
C75   H30   S    
C42   H8    S    
C47   C49   A    
C39   C40   A    
C5    C7    A    
C19   H23   S    
C15   C26   A    
C6    C8    A    
C3    C5    A    
C58   C59   A    
C5    C45   A    
C48   N8    S    
C51   C53   A    
C30   H6    S    
C35   C39   A    
Cu1   Cu2   S    
N6    C76   S    
C29   H5    S    
C3    C9    A    
C34   H3    S    
C23   O5    A    
C21   H21   S    
C73   N1    S    
C20   H24   S    
C36   C40   A    
C7    H15   S    
C47   N7    S    
N7    C77   S    
N5    H29   S    
C61   H9    S    
C50   H11   S    
Cu1   O5    S    
C4    C17   A    
C72   C74   A    
C40   C41   A    
C20   C22   A    
C24   O8    A    
C80   H54   S    
O13   H37   S    
C29   C37   A    
C56   C62   A    
C37   C43   A    
C4    C6    A    
C4    C10   A    
N6    H33   S    
C78   H46   S    
C47   C55   A    
C76   H34   S    
C54   C58   A    
C45   O9    S    
C16   C25   A    
N8    C78   S    
C12   C70   A    
C2    O2    A    
C53   C57   A    
C6    C46   A    
C19   C21   A    
C9    C63   A    
C32   N5    S    
C10   C64   A    
C75   H32   S    
C70   C72   A    
C77   H40   S    
C11   C69   A    
C33   H4    S    
C64   N2    A    
C60   H14   S    
Cu2   N3    S    
N7    H39   S    
C12   C24   S    
C68   H17   S    
C7    C25   A    
Cu2   O2    S    
C13   C17   A    
C12   C68   A    
C36   C38   A    
C29   C31   A    
N9    H47   S    
C26   H26   S    
C30   C32   A    
C63   O12   S    
C77   H41   S    
C25   H25   S    
C57   C58   A    
C71   N9    S    
Cu2   O3    S    
C46   N2    A    
C11   C23   S    
C33   C35   A    
C34   C36   A    
C74   N2    S    
C79   H49   S    
C43   H27   S    
N5    C75   S    
C23   O7    A    
C57   C60   A    
C52   N4    A    
C16   C18   A    
C13   C16   A    
C71   C73   A    
N10   H51   S    
C1    C27   S    
C14   C15   A    
C2    C28   S    
Cu1   O8    S    
C30   C38   A    
C15   C17   A    
C1    O3    A    
C66   H19   S    
C76   H35   S    
C66   C74   A    
