data_mof_unit_7527.cif
_audit_creation_date              2012-12-11T15:44:51-0500
_audit_creation_method            fapswitch 2.2
_symmetry_space_group_name_H-M    P1
_symmetry_Int_Tables_number       1
_space_group_crystal_system       triclinic
_cell_length_a                    6.918932
_cell_length_b                    16.814008
_cell_length_c                    17.16622
_cell_angle_alpha                 100.372832
_cell_angle_beta                  89.037857
_cell_angle_gamma                 90.904255
_cell_volume                      1963.95202611

loop_
_atom_site_label
_atom_site_type_symbol
_atom_type_description
_atom_site_fract_x
_atom_site_fract_y
_atom_site_fract_z
_atom_type_partial_charge
O1    O     O_R   0.494370 0.415690 0.413450 -0.524215
O2    O     O_R   0.819420 0.429360 0.578420 -0.531739
O3    O     O_R   0.994280 0.584310 0.586550 -0.561519
C1    C     C_R   0.647999 0.412647 0.604302 0.787263
O4    O     O_R   0.823790 0.406230 0.413570 -0.507201
O5    O     O_R   0.998670 0.561000 0.420530 -0.523938
C2    C     C_R   0.655294 0.383016 0.384854 0.845276
O6    O     O_R   0.489970 0.439000 0.579470 -0.524077
O7    O     O_3   0.662300 0.550810 0.502470 -0.381124
V1    V     V_3+5 0.935380 0.490570 0.499540 1.626689
O8    O     O_R   0.328650 0.570640 0.421580 -0.546643
C3    C     C_R   0.160823 0.586473 0.395241 0.780633
O9    O     O_R   0.324290 0.593770 0.586430 -0.519684
C4    C     C_R   0.154984 0.617015 0.614837 0.752133
V2    V     V_3+5 0.435930 0.509430 0.500460 1.599938
O10   O     O_3   0.159140 0.449190 0.497530 -0.341101
C5    C     C_R   0.278062 0.750766 0.691034 0.341574
C6    C     C_R   0.266089 0.815270 0.755894 0.330778
C7    C     C_R   0.118355 0.816397 0.814299 -0.285763
C8    C     C_R   0.979132 0.752476 0.804670 0.209277
C9    C     C_R   0.994244 0.687243 0.741394 0.210885
C10   C     C_R   0.143231 0.685640 0.683286 -0.289179
C11   C     C_R   0.148767 0.636395 0.331953 -0.214620
C12   C     C_R   0.113894 0.864353 0.168639 -0.295070
C13   C     C_R   0.204997 0.854734 0.303623 0.427797
C14   C     C_R   0.174852 0.901052 0.244236 0.250627
C15   C     C_R   0.077116 0.780456 0.152521 0.351776
C16   C     C_R   0.091884 0.732858 0.213503 -0.070443
C17   C     C_R   0.168741 0.769241 0.288712 -0.107511
C18   C     C_R   0.204376 0.719033 0.346279 0.137315
C19   C     C_R   0.059144 0.603260 0.260553 0.279894
C20   C     C_R   0.030628 0.650251 0.201786 0.214398
C21   C     C_R   0.626876 0.358516 0.664419 -0.161475
C22   C     C_R   0.640831 0.135709 0.832160 -0.064877
C23   C     C_R   0.844300 0.173471 0.726191 0.224600
C24   C     C_R   0.802601 0.123432 0.781501 -0.185947
C25   C     C_R   0.517456 0.199422 0.826754 -0.190285
C26   C     C_R   0.557395 0.251439 0.772390 0.022193
C27   C     C_R   0.719584 0.238526 0.719658 0.074516
C28   C     C_R   0.749325 0.291129 0.663353 0.299639
C29   C     C_R   0.472779 0.371448 0.720325 0.180847
C30   C     C_R   0.437592 0.317376 0.772039 -0.183475
H1    H     H_    0.316173 0.327980 0.813218 0.141990
H2    H     H_    0.901174 0.074901 0.785622 0.144398
H3    H     H_    0.394378 0.210455 0.867015 0.140568
C31   C     C_R   0.782249 0.252860 0.302074 0.370787
C32   C     C_R   0.768743 0.190464 0.236265 -0.159204
H4    H     H_    0.874482 0.142706 0.228821 0.207994
C33   C     C_R   0.619278 0.187419 0.181542 -0.196040
C34   C     C_R   0.482830 0.250398 0.192695 0.371878
C35   C     C_R   0.496138 0.314184 0.258619 0.125174
C36   C     C_R   0.644905 0.315641 0.314736 -0.163024
O11   O     O_R   0.774880 0.061150 0.920630 -0.553026
O12   O     O_R   0.440980 0.093710 0.086500 -0.503930
O13   O     O_R   0.266190 0.938890 0.079390 -0.531500
C37   C     C_R   0.609580 0.117998 0.113953 0.798658
O14   O     O_R   0.445420 0.070740 0.921670 -0.534494
O15   O     O_R   0.270660 0.915760 0.913380 -0.516789
C38   C     C_R   0.616894 0.085925 0.894852 0.757153
O16   O     O_R   0.770400 0.084270 0.086640 -0.548037
O17   O     O_3   0.602590 0.949210 0.997500 -0.373742
V3    V     V_3+5 0.329470 0.009420 0.000470 1.620227
O18   O     O_R   0.940650 0.906250 0.913470 -0.555852
C39   C     C_R   0.109344 0.883898 0.884131 0.789059
O19   O     O_R   0.936210 0.929220 0.078300 -0.535689
C40   C     C_R   0.103913 0.913741 0.104886 0.872725
V4    V     V_3+5 0.828930 0.990510 0.999490 1.547052
O20   O     O_3   0.105680 0.050790 0.002500 -0.367225
Cl1   Cl    Cl    0.459294 0.755354 0.617682 -0.553537
Cl2   Cl    Cl    0.039419 0.736587 0.052060 -0.645033
Cl3   Cl    Cl    0.923711 0.269556 0.585700 -0.501866
N1    N     N_3   0.350364 0.440272 0.725103 -0.649059
H5    H     H_    0.207945 0.419476 0.715527 0.244430
H6    H     H_    0.357593 0.473848 0.782529 0.238806
N2    N     N_3   0.019578 0.159216 0.680585 -0.546132
H7    H     H_    0.014951 0.099995 0.648839 0.288868
H8    H     H_    0.135403 0.164039 0.719612 0.230417
Cl4   Cl    Cl    0.970609 0.246620 0.368542 -0.484506
Cl5   Cl    Cl    0.299075 0.253713 0.122796 -0.632131
Cl6   Cl    Cl    0.431016 0.897622 0.759245 -0.578007
N3    N     N_3   0.361483 0.379350 0.267522 -0.589202
H9    H     H_    0.372656 0.406946 0.217680 0.289970
H10   H     H_    0.221694 0.355540 0.270808 0.311276
N4    N     N_3   0.817904 0.751603 0.858245 -0.567523
H11   H     H_    0.724746 0.798420 0.852391 0.268862
H12   H     H_    0.867391 0.759229 0.916130 0.282792
N5    N     N_3   0.856314 0.622080 0.739081 -0.589282
H13   H     H_    0.762573 0.621771 0.691942 0.262742
H14   H     H_    0.929094 0.567183 0.732505 0.214237
N6    N     N_3   0.296261 0.751380 0.419657 -0.522583
H15   H     H_    0.424809 0.720445 0.423085 0.262888
H16   H     H_    0.204455 0.742901 0.466574 0.253448
Cl7   Cl    Cl    0.979797 0.500836 0.243522 -0.682394
Cl8   Cl    Cl    0.278851 0.909208 0.396879 -0.401020
N7    N     N_3   0.926012 0.614766 0.132413 -0.538789
H17   H     H_    0.789229 0.596272 0.149588 0.267817
H18   H     H_    0.000833 0.564242 0.103148 0.290073
Cl9   Cl    Cl    0.216282 0.007171 0.264311 -0.512830

loop_
_geom_bond_atom_site_label_1
_geom_bond_atom_site_label_2
_ccdc_geom_bond_type
O15   V3    S    
N5    H13   S    
C9    N5    S    
C5    Cl1   S    
C28   Cl3   S    
C22   C25   A    
C29   C30   A    
O2    C1    A    
C7    C8    A    
C12   C15   A    
C18   N6    S    
C34   Cl5   S    
N3    H9    S    
O11   C38   A    
O14   V3    S    
C32   C33   A    
C3    C11   S    
C23   N2    S    
C17   C18   A    
C16   C17   A    
C12   C14   A    
C2    C36   S    
C26   C30   A    
O5    C3    A    
C26   C27   A    
O14   C38   A    
V2    O10   S    
O13   V3    S    
C31   C36   A    
C6    C7    A    
C1    O6    A    
C1    C21   S    
O8    V2    S    
N7    H17   S    
O16   V4    S    
O19   V4    S    
O1    V2    S    
O7    V1    S    
C35   N3    S    
C12   C40   S    
C13   Cl8   S    
O9    C4    A    
O15   C39   A    
N3    H10   S    
C34   C35   A    
O12   C37   A    
C13   C17   A    
O18   V4    S    
C21   C28   A    
V4    O20   S    
C11   C18   A    
C16   C20   A    
N4    H11   S    
N1    H6    S    
C27   C28   A    
O4    C2    A    
O12   V3    S    
C13   C14   A    
C19   Cl7   S    
C35   C36   A    
C23   C24   A    
C11   C19   A    
C23   C27   A    
N2    H7    S    
C25   C26   A    
O17   V4    S    
N6    H16   S    
C32   H4    S    
C7    C39   S    
C5    C6    A    
N2    H8    S    
C15   Cl2   S    
C14   Cl9   S    
C29   N1    S    
O19   C40   A    
O6    V2    S    
O9    V2    S    
C22   C38   S    
C24   H2    S    
C30   H1    S    
C25   H3    S    
O2    V1    S    
O13   C40   A    
C31   Cl4   S    
C31   C32   A    
O1    C2    A    
C19   C20   A    
N4    H12   S    
N1    H5    S    
O5    V1    S    
O8    C3    A    
N7    H18   S    
O3    C4    A    
C33   C37   S    
C5    C10   A    
V3    O20   S    
C21   C29   A    
C4    C10   S    
C8    N4    S    
O7    V2    S    
O4    V1    S    
O3    V1    S    
V1    O10   S    
N6    H15   S    
C22   C24   A    
O17   V3    S    
O11   V4    S    
O18   C39   A    
C37   O16   A    
C20   N7    S    
C8    C9    A    
C6    Cl6   S    
C33   C34   A    
C15   C16   A    
N5    H14   S    
C9    C10   A    
