data_mof_unit_25206.cif
_audit_creation_date              2012-12-10T18:43:09-0500
_audit_creation_method            fapswitch 2.2
_symmetry_space_group_name_H-M    P1
_symmetry_Int_Tables_number       1
_space_group_crystal_system       triclinic
_cell_length_a                    10.682679
_cell_length_b                    9.849982
_cell_length_c                    10.750986
_cell_angle_alpha                 89.996104
_cell_angle_beta                  89.966475
_cell_angle_gamma                 90.831569
_cell_volume                      1131.14451414

loop_
_atom_site_label
_atom_site_type_symbol
_atom_type_description
_atom_site_fract_x
_atom_site_fract_y
_atom_site_fract_z
_atom_type_partial_charge
C1    C     C_R   0.260303 0.498971 0.503147 0.906023
C2    C     C_R   0.934894 0.405357 0.437563 -0.239546
C3    C     C_R   0.872944 0.504601 0.505346 -0.087105
C4    C     C_R   0.128178 0.497024 0.511364 -0.078101
C5    C     C_R   0.937890 0.601633 0.578346 0.142041
C6    C     C_R   0.067718 0.592216 0.586884 0.162145
C7    C     C_R   0.549753 0.072643 0.597378 -0.077717
C8    C     C_R   0.449608 0.071115 0.402931 -0.077128
C9    C     C_R   0.549060 0.928882 0.597676 -0.079761
C10   C     C_R   0.449783 0.927343 0.402849 -0.073263
C11   C     C_3   0.867143 0.833451 0.586637 -0.756468
C12   C     C_R   0.740090 0.501328 0.501950 0.903489
C13   C     C_3   0.169135 0.605703 0.787189 -0.791400
C14   C     C_R   0.502693 0.499883 0.262587 0.925279
C15   C     C_R   0.497798 0.499831 0.737432 0.935768
C16   C     C_2   0.503168 0.385409 0.933099 -0.161151
C17   C     C_2   0.495614 0.385431 0.066947 -0.162215
C18   C     C_2   0.486557 0.499680 0.868892 -0.339771
C19   C     C_2   0.514452 0.499885 0.131160 -0.331079
C20   C     C_R   0.062817 0.402921 0.438988 -0.248038
H1    H     H_    0.521151 0.289245 0.887358 0.164730
H2    H     H_    0.409362 0.872477 0.325177 0.127977
H3    H     H_    0.899004 0.709069 0.739110 0.219186
H4    H     H_    0.962416 0.876059 0.570187 0.217589
H5    H     H_    0.815567 0.905307 0.646555 0.221292
H6    H     H_    0.818328 0.825340 0.495804 0.267570
H7    H     H_    0.105850 0.770545 0.687032 0.231420
H8    H     H_    0.082728 0.582810 0.841304 0.226938
H9    H     H_    0.231546 0.672246 0.843814 0.237078
H10   H     H_    0.218793 0.509660 0.767984 0.241827
H11   H     H_    0.475514 0.289159 0.112707 0.163416
H12   H     H_    0.460785 0.594985 0.911501 0.146906
H13   H     H_    0.542097 0.595458 0.088600 0.146054
H14   H     H_    0.110934 0.329311 0.382000 0.164324
H15   H     H_    0.884186 0.331832 0.381069 0.169251
H16   H     H_    0.589947 0.127458 0.675199 0.124119
H17   H     H_    0.409015 0.124732 0.325347 0.120915
H18   H     H_    0.587969 0.875193 0.676042 0.137790
N1    N     N_R   0.500000 0.857200 0.500000 -0.076598
N2    N     N_R   0.500000 0.142810 0.500000 -0.076588
N3    N     N_2   0.872394 0.702049 0.647139 -0.302970
N4    N     N_2   0.138072 0.673948 0.672383 -0.293798
O1    O     O_R   0.316770 0.614620 0.499990 -0.594044
O2    O     O_R   0.683230 0.614620 0.500010 -0.598465
O3    O     O_R   0.316800 0.385290 0.500000 -0.628404
O4    O     O_R   0.683200 0.385290 0.500000 -0.626147
O5    O     O_R   0.500000 0.614630 0.319080 -0.633646
O6    O     O_R   0.500000 0.614630 0.680920 -0.615755
O7    O     O_R   0.500030 0.385300 0.319080 -0.625564
O8    O     O_R   0.499970 0.385300 0.680920 -0.626468
Zn1   Zn    Zn3+2 0.500000 0.653120 0.500000 0.957358
Zn2   Zn    Zn3+2 0.500000 0.346880 0.500000 0.940704

loop_
_geom_bond_atom_site_label_1
_geom_bond_atom_site_label_2
_ccdc_geom_bond_type
C2    H15   S    
C15   C18   S    
N1    Zn1   S    
C7    N2    A    
C13   H8    S    
C14   O5    A    
C7    H16   S    
C11   H4    S    
O8    Zn2   S    
H3    N3    S    
O7    Zn2   S    
C1    O3    A    
O3    Zn2   S    
C1    C4    S    
C2    C3    A    
C20   H14   S    
C12   O2    A    
C10   H2    S    
H7    N4    S    
O1    Zn1   S    
C16   H1    S    
C15   O6    A    
O2    Zn1   S    
C4    C6    A    
C9    H18   S    
C17   C19   D    
C11   N3    S    
O6    Zn1   S    
C6    N4    S    
C5    C6    A    
C17   H11   S    
C14   O7    A    
C18   H12   S    
C8    H17   S    
C11   H5    S    
C2    C20   A    
C4    C20   A    
O4    Zn2   S    
C13   H10   S    
C9    N1    A    
C16   C18   D    
C19   H13   S    
C15   O8    A    
C13   H9    S    
C7    C9    A    
C5    N3    S    
C13   N4    S    
O5    Zn1   S    
C3    C12   S    
C8    N2    A    
C11   H6    S    
N2    Zn2   S    
C14   C19   S    
C1    O1    A    
C8    C10   A    
C16   C17   S    
C10   N1    A    
C3    C5    A    
C12   O4    A    
