data_mof_unit_5172.cif
_audit_creation_date              2012-12-10T18:00:17-0500
_audit_creation_method            fapswitch 2.2
_symmetry_space_group_name_H-M    P1
_symmetry_Int_Tables_number       1
_space_group_crystal_system       triclinic
_cell_length_a                    10.816332
_cell_length_b                    9.521965
_cell_length_c                    10.662654
_cell_angle_alpha                 89.430017
_cell_angle_beta                  90.293159
_cell_angle_gamma                 90.05097
_cell_volume                      1098.10679495

loop_
_atom_site_label
_atom_site_type_symbol
_atom_type_description
_atom_site_fract_x
_atom_site_fract_y
_atom_site_fract_z
_atom_type_partial_charge
C1    C     C_R   0.871746 0.500028 0.500219 -0.001115
C2    C     C_R   0.128257 0.499969 0.499863 -0.008469
C3    C     C_R   0.262093 0.499968 0.499868 0.830129
C4    C     C_R   0.737907 0.500031 0.500185 0.837954
C5    C     C_R   0.498928 0.500877 0.259566 0.952046
C6    C     C_R   0.500868 0.499132 0.740440 0.953351
C7    C     C_3   0.484160 0.633234 0.037594 0.195448
C8    C     C_3   0.515444 0.366864 0.962415 0.215320
C9    C     C_3   0.592936 0.580330 0.957565 0.153905
C10   C     C_3   0.406579 0.419701 0.042448 0.122755
C11   C     C_3   0.392763 0.549563 0.956033 0.269823
C12   C     C_3   0.606722 0.450575 0.043987 0.330537
C13   C     C_3   0.500886 0.497197 0.876621 -0.372281
C14   C     C_3   0.498662 0.502872 0.123393 -0.377912
C15   C     C_R   0.418024 0.075121 0.427373 0.042126
C16   C     C_R   0.581971 0.924877 0.572633 0.039787
C17   C     C_R   0.582067 0.073674 0.572504 0.041838
C18   C     C_R   0.417931 0.926325 0.427498 0.043002
C19   C     C_R   0.063727 0.373551 0.485267 -0.127398
C20   C     C_R   0.936277 0.626448 0.514799 -0.114831
C21   C     C_R   0.935891 0.373578 0.485443 -0.101494
C22   C     C_R   0.064113 0.626420 0.514624 -0.096833
Cu1   Cu    Cu3+1 0.500000 0.640660 0.500000 1.039899
Cu2   Cu    Cu3+1 0.500000 0.359340 0.500000 1.041595
H1    H     H_    0.352390 0.131718 0.369111 0.158659
H2    H     H_    0.647598 0.868279 0.630905 0.156575
H3    H     H_    0.647878 0.129137 0.630541 0.153798
H4    H     H_    0.352119 0.870861 0.369462 0.151852
H5    H     H_    0.111749 0.274847 0.473209 0.163491
H6    H     H_    0.888253 0.725154 0.526840 0.162095
H7    H     H_    0.887558 0.274887 0.473455 0.169569
H8    H     H_    0.112446 0.725114 0.526594 0.170515
N1    N     N_R   0.500000 0.852070 0.500000 -0.181369
N2    N     N_R   0.500000 0.147930 0.500000 -0.181728
O1    O     O_R   0.319640 0.618740 0.499990 -0.591909
O2    O     O_R   0.680360 0.381260 0.500010 -0.590888
O3    O     O_R   0.680360 0.618740 0.500010 -0.596345
O4    O     O_R   0.319640 0.381260 0.499990 -0.595325
O5    O     O_R   0.499970 0.618770 0.316850 -0.564935
O6    O     O_R   0.500030 0.381230 0.683150 -0.563749
O7    O     O_R   0.500030 0.618770 0.683150 -0.546710
O8    O     O_R   0.499970 0.381230 0.316850 -0.542931
S1    S     S_3+6 0.249623 0.614822 0.894887 0.097422
O9    O     O_2   0.274197 0.737312 0.808652 -0.211077
O10   O     O_2   0.184870 0.501303 0.822834 -0.274400
O11   O     O_3   0.159367 0.668077 0.013185 -0.433724
H9    H     H_    0.132022 0.580654 0.055811 0.374950
S2    S     S_3+6 0.750377 0.386901 0.104823 0.078525
O12   O     O_2   0.809610 0.498864 0.183313 -0.290241
O13   O     O_2   0.728064 0.258063 0.184065 -0.243320
O14   O     O_3   0.843789 0.346757 0.984881 -0.457275
H10   H     H_    0.924362 0.323554 0.024481 0.398605
Br1   Br    Br    0.460857 0.826574 0.088165 -0.278447
Br2   Br    Br    0.539161 0.173592 0.911818 -0.275112
Br3   Br    Br    0.727951 0.694556 0.894033 -0.315849
Br4   Br    Br    0.272666 0.303851 0.106094 -0.409903

loop_
_geom_bond_atom_site_label_1
_geom_bond_atom_site_label_2
_ccdc_geom_bond_type
C2    C22   A    
C15   C18   A    
Cu2   O4    S    
S1    O9    D    
C4    O2    A    
C1    C21   A    
C8    C13   S    
C9    Br3   S    
C16   N1    A    
C18   N1    A    
C21   H7    S    
C15   N2    A    
C12   S2    S    
Cu1   O7    S    
C3    O1    A    
C8    C12   S    
C1    C4    S    
S2    O13   D    
C2    C3    S    
C20   C22   A    
C18   H4    S    
S1    O10   D    
C20   H6    S    
C6    C13   S    
C7    C11   S    
C11   C13   S    
C5    C14   S    
Cu2   O2    S    
C22   H8    S    
Cu1   O5    S    
S2    O12   D    
C19   C21   A    
C12   C14   S    
Cu1   O1    S    
C5    O5    A    
C16   H2    S    
S2    O14   S    
C9    C12   S    
C6    O6    A    
C11   S1    S    
S1    O11   S    
C15   H1    S    
C17   N2    A    
C7    Br1   S    
Cu1   Cu2   S    
O14   H10   S    
C19   H5    S    
Cu2   O8    S    
C4    O3    A    
C5    O8    A    
C8    C10   S    
C10   Br4   S    
C10   C11   S    
C8    Br2   S    
C7    C9    S    
C9    C13   S    
O11   H9    S    
C1    C20   A    
Cu2   O6    S    
C2    C19   A    
Cu1   O3    S    
C7    C14   S    
Cu2   N2    S    
C3    O4    A    
C10   C14   S    
C16   C17   A    
Cu1   N1    S    
C6    O7    A    
C17   H3    S    
