data_mof_unit_10627.cif
_audit_creation_date              2012-10-26T18:54:15-0400
_audit_creation_method            fapswitch 2.2
_symmetry_space_group_name_H-M    P1
_symmetry_Int_Tables_number       1
_space_group_crystal_system       triclinic
_cell_length_a                    14.813896
_cell_length_b                    14.856697
_cell_length_c                    23.420834
_cell_angle_alpha                 74.865689
_cell_angle_beta                  101.246418
_cell_angle_gamma                 115.669661
_cell_volume                      4464.79852464

loop_
_atom_site_label
_atom_site_type_symbol
_atom_type_description
_atom_site_fract_x
_atom_site_fract_y
_atom_site_fract_z
_atom_type_partial_charge
C1    C     C_R   0.880558 0.312481 0.509938 0.547094
C2    C     C_R   0.030513 0.432916 0.313353 -0.162866
C3    C     C_R   0.030854 0.438783 0.775167 -0.087230
C4    C     C_R   0.031067 0.434353 0.253819 -0.084085
C5    C     C_R   0.000322 0.506457 0.789549 0.255280
C6    C     C_R   0.001894 0.502716 0.209189 0.254557
C7    C     C_R   0.812711 0.204087 0.518944 0.003860
C8    C     C_R   0.187154 0.795920 0.481398 0.003074
C9    C     C_R   0.772255 0.031050 0.572813 -0.129889
C10   C     C_R   0.227428 0.969160 0.427952 -0.131097
C11   C     C_R   0.842694 0.130566 0.557481 -0.133279
C12   C     C_R   0.119422 0.687511 0.490132 0.545701
C13   C     C_R   0.157124 0.869503 0.442980 -0.134427
C14   C     C_R   0.713738 0.175820 0.492779 -0.127678
C15   C     C_R   0.285983 0.824240 0.507803 -0.128193
C16   C     C_R   0.999770 0.500763 0.608513 0.554602
C17   C     C_R   0.000536 0.499831 0.391427 0.550928
C18   C     C_R   0.639754 0.077045 0.509601 0.026506
C19   C     C_R   0.359860 0.923207 0.491292 0.026063
C20   C     C_R   0.670815 0.004711 0.550828 0.048594
C21   C     C_R   0.328791 0.995589 0.450121 0.049958
C22   C     C_R   0.535673 0.049736 0.489180 0.020718
C23   C     C_R   0.970012 0.574476 0.743988 0.053274
C24   C     C_R   0.463900 0.950625 0.511862 0.019091
C25   C     C_R   0.498797 0.881658 0.553398 -0.144989
C26   C     C_R   0.500740 0.118784 0.447754 -0.146201
C27   C     C_R   0.600194 0.907832 0.571507 -0.130897
C28   C     C_R   0.399355 0.092597 0.429632 -0.133827
C29   C     C_R   0.702442 0.635373 0.383679 -0.057577
C30   C     C_R   0.297621 0.363437 0.615606 -0.009071
C31   C     C_R   0.792242 0.625013 0.408887 0.036612
C32   C     C_R   0.207701 0.373985 0.590734 0.026353
C33   C     C_R   0.716265 0.517511 0.496724 0.112967
C34   C     C_R   0.971404 0.570946 0.224337 0.056540
C35   C     C_R   0.283723 0.483033 0.503180 0.107289
C36   C     C_R   0.628872 0.538372 0.476700 -0.023737
C37   C     C_R   0.371151 0.462279 0.522925 -0.040291
C38   C     C_R   0.615624 0.579633 0.415525 -0.019813
C39   C     C_R   0.384450 0.420803 0.583982 0.034613
C40   C     C_R   0.088605 0.560767 0.120810 0.437720
C41   C     C_R   0.915998 0.442733 0.879166 0.435867
C42   C     C_R   0.548761 0.506951 0.513093 0.003701
C43   C     C_R   0.451309 0.494020 0.486485 -0.014886
C44   C     C_R   0.435482 0.506376 0.424420 -0.103811
C45   C     C_R   0.970884 0.572151 0.684714 -0.192900
C46   C     C_R   0.564529 0.494589 0.575172 -0.151601
C47   C     C_R   0.515508 0.554594 0.388388 0.008424
C48   C     C_R   0.484636 0.446586 0.611065 0.008075
C49   C     C_R   0.917510 0.439234 0.119819 0.436027
C50   C     C_R   0.087070 0.564314 0.880132 0.436784
C51   C     C_R   0.915718 0.437841 0.060005 0.036966
C52   C     C_R   0.089608 0.563911 0.940325 0.035131
C53   C     C_R   0.002930 0.500261 0.030399 -0.023581
C54   C     C_R   0.002504 0.501238 0.969988 -0.024180
C55   C     C_R   0.090452 0.561972 0.061005 0.037318
C56   C     C_R   0.971409 0.568648 0.284450 -0.177441
C57   C     C_R   0.914885 0.439760 0.939337 0.038476
C58   C     C_R   0.828993 0.376405 0.029131 -0.120153
C59   C     C_R   0.176619 0.624649 0.971346 -0.119841
C60   C     C_R   0.828578 0.377362 0.969379 -0.118138
C61   C     C_R   0.177043 0.623676 0.031104 -0.117641
C62   C     C_2   0.490492 0.561551 0.323231 0.227086
C63   C     C_2   0.512132 0.440944 0.675852 0.232466
C64   C     C_R   0.293397 0.573976 0.454752 0.083989
C65   C     C_R   0.360768 0.670934 0.465380 -0.080704
C66   C     C_R   0.382401 0.756513 0.419084 -0.119344
C67   C     C_R   0.000059 0.503112 0.670621 0.000170
C68   C     C_R   0.336634 0.746570 0.361749 -0.098220
C69   C     C_R   0.271933 0.650484 0.350182 -0.073780
C70   C     C_R   0.252533 0.564634 0.396103 -0.057225
C71   C     C_R   0.706746 0.427047 0.545500 0.093084
C72   C     C_R   0.747665 0.437181 0.604054 -0.078090
C73   C     C_R   0.728004 0.351873 0.650347 -0.128988
C74   C     C_R   0.663397 0.255488 0.639181 -0.110215
C75   C     C_R   0.617910 0.244723 0.581878 -0.117566
C76   C     C_R   0.639522 0.329814 0.535263 -0.081193
C77   C     C_R   0.704717 0.710800 0.327401 -0.002436
C78   C     C_R   0.001494 0.500590 0.328951 -0.005707
C79   C     C_R   0.663710 0.782388 0.322289 -0.074740
C80   C     C_R   0.666227 0.853761 0.269489 -0.091954
C81   C     C_R   0.710172 0.854808 0.221541 -0.085691
C82   C     C_R   0.751764 0.784514 0.226304 -0.101876
C83   C     C_R   0.749344 0.712885 0.278978 -0.116718
C84   C     C_R   0.295685 0.285728 0.670798 0.056235
C85   C     C_R   0.247711 0.277888 0.719264 -0.055894
C86   C     C_R   0.245521 0.204006 0.770783 -0.092225
C87   C     C_R   0.290606 0.137072 0.774349 -0.084443
C88   C     C_R   0.337837 0.143737 0.726352 -0.102616
C89   C     C_R   0.031038 0.437206 0.716127 -0.143720
C90   C     C_R   0.340170 0.217388 0.674712 -0.092219
C91   C     C_2   0.937420 0.648877 0.755801 0.259253
C92   C     C_2   0.939175 0.645389 0.179580 0.260801
Cu1   Cu    Cu3+1 0.081740 0.475680 0.515360 0.940874
Cu2   Cu    Cu3+1 0.918260 0.524320 0.484640 0.936681
H1    H     H_    0.761090 0.327730 0.050943 0.166765
H2    H     H_    0.639566 0.528138 0.595951 0.092883
H3    H     H_    0.760386 0.329362 0.946799 0.168171
H4    H     H_    0.245231 0.671682 0.053684 0.169883
H5    H     H_    0.949936 0.625214 0.649330 0.100125
H6    H     H_    0.948871 0.620925 0.296735 0.096321
H7    H     H_    0.054210 0.383658 0.706000 0.116637
H8    H     H_    0.051353 0.378033 0.347159 0.121370
H9    H     H_    0.054271 0.387000 0.810080 0.122603
H10   H     H_    0.053616 0.381690 0.242127 0.128360
H11   H     H_    0.623218 0.852348 0.603382 0.120929
H12   H     H_    0.244514 0.673344 0.949530 0.168058
H13   H     H_    0.376316 0.148138 0.397830 0.113321
H14   H     H_    0.303624 0.765394 0.538857 0.121574
H15   H     H_    0.696141 0.234563 0.461585 0.118516
H16   H     H_    0.080551 0.849140 0.422580 0.126186
H17   H     H_    0.919352 0.150892 0.577729 0.125512
H18   H     H_    0.542401 0.562914 0.295890 0.128083
H19   H     H_    0.579845 0.429555 0.696065 0.114017
H20   H     H_    0.398472 0.679539 0.509352 0.104891
H21   H     H_    0.435527 0.830469 0.427454 0.126611
H22   H     H_    0.353208 0.812927 0.326051 0.125440
H23   H     H_    0.796257 0.975702 0.604021 0.112312
H24   H     H_    0.239073 0.642018 0.305349 0.161496
H25   H     H_    0.209049 0.490018 0.385612 0.114647
H26   H     H_    0.791211 0.512047 0.614175 0.106227
H27   H     H_    0.760711 0.360990 0.695121 0.143002
H28   H     H_    0.646722 0.189531 0.675144 0.126194
H29   H     H_    0.564940 0.170531 0.573788 0.127011
H30   H     H_    0.601879 0.320644 0.491344 0.095684
H31   H     H_    0.629896 0.782951 0.359177 0.120508
H32   H     H_    0.634234 0.908395 0.265789 0.118554
H33   H     H_    0.712069 0.910153 0.180705 0.122170
H34   H     H_    0.203414 0.024552 0.396805 0.110481
H35   H     H_    0.785733 0.785388 0.189113 0.121438
H36   H     H_    0.781053 0.658326 0.281697 0.096748
H37   H     H_    0.213307 0.329804 0.717559 0.106575
H38   H     H_    0.209000 0.198783 0.808017 0.117140
H39   H     H_    0.288850 0.079967 0.814289 0.127678
H40   H     H_    0.372490 0.091658 0.729096 0.119057
H41   H     H_    0.376433 0.220959 0.637749 0.104124
H42   H     H_    0.914059 0.698191 0.718795 0.085504
H43   H     H_    0.915596 0.694775 0.194253 0.077740
H44   H     H_    0.449941 0.806409 0.573674 0.111694
H45   H     H_    0.549533 0.194127 0.427580 0.103056
H46   H     H_    0.140926 0.333876 0.614385 0.114784
H47   H     H_    0.858839 0.664185 0.385049 0.124035
H48   H     H_    0.360288 0.472793 0.403880 0.140454
N1    N     N_R   0.002702 0.500868 0.148524 -0.369365
N2    N     N_R   0.000958 0.504920 0.850959 -0.367779
N3    N     N_R   0.795430 0.560810 0.461550 -0.247050
N4    N     N_R   0.204570 0.439190 0.538450 -0.245071
O1    O     O_R   0.977900 0.338110 0.520250 -0.507647
O2    O     O_2   0.832993 0.384483 0.848914 -0.503598
O3    O     O_2   0.834810 0.380246 0.149043 -0.493414
O4    O     O_2   0.169582 0.623749 0.850812 -0.486479
O5    O     O_2   0.410311 0.563965 0.299387 -0.503992
O6    O     O_2   0.463739 0.455493 0.706453 -0.482824
O7    O     O_2   0.936044 0.656705 0.806179 -0.468566
O8    O     O_2   0.938400 0.653230 0.126326 -0.470790
O9    O     O_R   0.022100 0.661890 0.479750 -0.507772
O10   O     O_R   0.839850 0.379180 0.494310 -0.491974
O11   O     O_R   0.160150 0.620820 0.505690 -0.491385
O12   O     O_R   0.069020 0.479430 0.595090 -0.501723
O13   O     O_R   0.930980 0.520570 0.404910 -0.505336
O14   O     O_R   0.930970 0.520500 0.569150 -0.501778
O15   O     O_R   0.069030 0.479500 0.430850 -0.506737
O16   O     O_2   0.171451 0.619376 0.150992 -0.485210

loop_
_geom_bond_atom_site_label_1
_geom_bond_atom_site_label_2
_ccdc_geom_bond_type
C14   H15   S    
C66   C68   A    
C87   C88   A    
C34   C56   A    
Cu1   Cu2   S    
C23   C45   A    
C16   O14   A    
C9    H23   S    
C65   H20   S    
C87   H39   S    
C36   C42   A    
C61   H4    S    
C75   C76   A    
C47   C62   S    
C81   C82   A    
C53   C54   A    
C15   C19   A    
Cu2   O13   S    
C75   H29   S    
C22   C24   A    
C35   C37   A    
C91   O7    D    
C71   C76   A    
C32   N4    A    
C27   H11   S    
C28   H13   S    
C58   C60   A    
C2    H8    S    
C4    H10   S    
C69   H24   S    
C67   C89   A    
C33   C36   A    
C56   C78   A    
C42   C46   A    
C55   C61   A    
C14   C18   A    
C7    C14   A    
C91   H42   S    
C50   N2    A    
Cu2   O9    S    
C49   C51   A    
C29   C38   A    
C45   C67   A    
C50   C52   A    
Cu1   O1    S    
C35   C64   S    
C64   C70   A    
C12   O11   A    
C44   C47   A    
C72   C73   A    
Cu2   N3    S    
C53   C55   A    
C79   H31   S    
C1    C7    S    
C81   H33   S    
Cu1   O12   S    
C84   C90   A    
C10   H34   S    
C92   H43   S    
C46   H2    S    
C52   C54   A    
C77   C79   A    
C10   C21   A    
C37   C39   A    
C46   C48   A    
C59   C61   A    
C59   H12   S    
C66   H21   S    
C11   H17   S    
C76   H30   S    
C24   C25   A    
C41   N2    A    
C4    C6    A    
C60   H3    S    
C74   C75   A    
C16   C67   S    
C86   C87   A    
C68   C69   A    
C48   C63   S    
C3    C5    A    
C85   C86   A    
C16   O12   A    
C82   C83   A    
C6    C34   A    
C51   C53   A    
C35   N4    A    
C63   H19   S    
C15   H14   S    
C37   C43   A    
C1    O10   A    
C7    C11   A    
C58   H1    S    
C40   O16   S    
C13   H16   S    
C2    C78   A    
C52   C59   A    
C50   O4    S    
C9    C20   A    
C5    C23   A    
Cu1   O15   S    
C70   H25   S    
C8    C12   S    
C40   C55   A    
C72   H26   S    
C29   C77   S    
Cu1   N4    S    
C51   C58   A    
C84   C85   A    
C82   H35   S    
Cu1   O11   S    
C9    C11   A    
C38   C47   A    
C17   O15   A    
C68   H22   S    
Cu2   O10   S    
C31   H47   S    
C74   H28   S    
C21   C28   A    
C88   C90   A    
C83   H36   S    
C26   H45   S    
C8    C15   A    
C73   H27   S    
C43   C44   A    
C45   H5    S    
C23   C91   S    
C1    O1    A    
C42   C43   A    
C56   H6    S    
C12   O9    A    
C73   C74   A    
C3    H9    S    
Cu2   O14   S    
C89   H7    S    
C18   C22   A    
C80   C81   A    
C5    N2    S    
C10   C13   A    
C32   H46   S    
C20   C27   A    
C62   O5    D    
C25   C27   A    
C26   C28   A    
C49   O3    S    
C3    C89   A    
C64   C65   A    
C36   C38   A    
C19   C24   A    
C88   H40   S    
C71   C72   A    
C29   C31   A    
C85   H37   S    
C30   C32   A    
C90   H41   S    
C86   H38   S    
C41   O2    S    
C80   H32   S    
C2    C4    A    
C49   N1    A    
C17   C78   S    
C30   C39   A    
C25   H44   S    
C18   C20   A    
C30   C84   S    
C69   C70   A    
C17   O13   A    
C34   C92   S    
C63   O6    D    
C33   C71   S    
C41   C57   A    
C79   C80   A    
C31   N3    A    
C8    C13   A    
C57   C60   A    
C62   H18   S    
C44   H48   S    
C65   C66   A    
C22   C26   A    
C40   N1    A    
C77   C83   A    
C92   O8    D    
C6    N1    S    
C33   N3    A    
C39   C48   A    
C19   C21   A    
C54   C57   A    
