data_mof_unit_13853.cif
_audit_creation_date              2012-12-11T15:39:25-0500
_audit_creation_method            fapswitch 2.2
_symmetry_space_group_name_H-M    P1
_symmetry_Int_Tables_number       1
_space_group_crystal_system       triclinic
_cell_length_a                    14.272381
_cell_length_b                    14.825058
_cell_length_c                    33.291978
_cell_angle_alpha                 98.209535
_cell_angle_beta                  90.19452
_cell_angle_gamma                 118.727528
_cell_volume                      6092.78724624

loop_
_atom_site_label
_atom_site_type_symbol
_atom_type_description
_atom_site_fract_x
_atom_site_fract_y
_atom_site_fract_z
_atom_type_partial_charge
C1    C     C_R   0.616926 0.910180 0.436945 0.593458
C2    C     C_R   0.710884 0.434639 0.949618 0.582222
C3    C     C_R   0.593243 0.856259 0.780043 -0.042079
C4    C     C_R   0.601274 0.877788 0.740391 0.303153
C5    C     C_R   0.649250 0.834213 0.712343 0.076355
C6    C     C_R   0.692740 0.775270 0.725089 -0.096605
C7    C     C_R   0.685551 0.755814 0.764850 -0.102639
C8    C     C_R   0.634059 0.794526 0.792372 -0.018239
C9    C     C_R   0.544162 0.788510 0.646421 0.247282
C10   C     C_R   0.538558 0.803162 0.606180 -0.142983
C11   C     C_R   0.733156 0.909859 0.609726 0.005031
C12   C     C_2   0.312606 0.782058 0.165646 0.237326
C13   C     C_R   0.709709 0.740020 0.950842 0.560097
C14   C     C_2   0.051980 0.960856 0.121994 0.273892
C15   C     C_2   0.328516 0.077607 0.319270 0.240577
C16   C     C_2   0.832643 0.947298 0.409005 0.295430
C17   C     C_2   0.522375 0.676213 0.182874 0.259066
C18   C     C_2   0.840099 0.308990 0.825763 0.206145
C19   C     C_2   0.770487 0.190998 0.697315 0.255629
C20   C     C_2   0.484016 0.309502 0.908364 0.330221
C21   C     C_2   0.155236 0.952756 0.930037 0.272446
C22   C     C_2   0.007099 0.896027 0.709213 0.252507
C23   C     C_2   0.591662 0.182636 0.206805 0.256740
C24   C     C_R   0.799270 0.382757 0.156247 -0.004143
C25   C     C_2   0.835948 0.966425 0.591395 0.272593
C26   C     C_2   0.532669 0.372965 0.348326 0.256578
C27   C     C_R   0.800300 0.403317 0.116436 0.250327
C28   C     C_R   0.660155 0.279019 0.236331 0.024723
C29   C     C_R   0.653795 0.272438 0.277797 -0.130824
C30   C     C_R   0.713524 0.360268 0.307586 0.039448
C31   C     C_R   0.784604 0.457132 0.295994 0.283764
C32   C     C_R   0.791289 0.463781 0.254641 -0.057479
C33   C     C_R   0.729035 0.376677 0.224827 -0.021174
C34   C     C_R   0.728392 0.394315 0.182689 0.013707
C35   C     C_R   0.604014 0.341195 0.367612 -0.015077
C36   C     C_R   0.593895 0.204753 0.456348 0.544575
C37   C     C_R   0.574197 0.300240 0.403757 -0.180028
C38   C     C_R   0.732799 0.281165 0.408049 -0.052240
C39   C     C_R   0.764379 0.320669 0.371995 0.224400
C40   C     C_R   0.697258 0.346709 0.350444 0.006788
C41   C     C_R   0.635745 0.266259 0.423216 -0.037230
C42   C     C_R   0.256021 0.883177 0.391747 -0.004280
C43   C     C_R   0.292507 0.975904 0.375369 -0.186557
C44   C     C_R   0.282202 0.974922 0.333496 0.007116
C45   C     C_R   0.737966 0.896204 0.650314 -0.172946
C46   C     C_R   0.232079 0.877887 0.307193 -0.007121
C47   C     C_R   0.189935 0.784991 0.323358 -0.052052
C48   C     C_R   0.296544 0.893073 0.434136 0.524971
C49   C     C_R   0.199863 0.786191 0.365321 0.244166
C50   C     C_R   0.232780 0.814362 0.154660 0.019151
C51   C     C_R   0.194648 0.797474 0.113255 0.216779
C52   C     C_R   0.106036 0.901765 0.131995 -0.059515
C53   C     C_R   0.138437 0.912082 0.172892 -0.105516
C54   C     C_R   0.195734 0.864695 0.184507 -0.011685
C55   C     C_1   0.212191 0.868162 0.227522 0.098565
C56   C     C_R   0.644026 0.839479 0.668899 0.032516
C57   C     C_1   0.221735 0.871429 0.263718 0.084842
C58   C     C_R   0.124855 0.834851 0.102226 0.020318
C59   C     C_R   0.633703 0.882260 0.394192 -0.005539
C60   C     C_R   0.614611 0.905106 0.551322 0.591539
C61   C     C_R   0.544916 0.841814 0.365582 -0.156999
C62   C     C_R   0.558332 0.841303 0.324332 -0.142680
C63   C     C_R   0.660543 0.880621 0.310517 0.028705
C64   C     C_R   0.751266 0.915081 0.338315 0.240802
C65   C     C_R   0.737486 0.914685 0.380389 0.052460
C66   C     C_R   0.748052 0.942583 0.168879 -0.082296
C67   C     C_R   0.631233 0.868414 0.588239 0.003633
C68   C     C_R   0.765359 0.924022 0.127544 0.275624
C69   C     C_R   0.626095 0.743693 0.123655 -0.148673
C70   C     C_R   0.607422 0.762235 0.164447 0.000726
C71   C     C_R   0.673156 0.861401 0.187616 -0.028139
C72   C     C_R   0.588676 0.197310 0.571486 0.572721
C73   C     C_1   0.671739 0.876771 0.231209 -0.025714
C74   C     C_1   0.668412 0.881499 0.267502 -0.019134
C75   C     C_R   0.708835 0.821707 0.105583 0.033479
C76   C     C_R   0.617344 0.236264 0.615784 0.031935
C77   C     C_R   0.561518 0.278365 0.639489 0.231155
C78   C     C_R   0.054398 0.782556 0.063423 0.578082
C79   C     C_R   0.574244 0.291126 0.682256 -0.120450
C80   C     C_R   0.640481 0.261623 0.701341 -0.023705
C81   C     C_R   0.700102 0.223790 0.677968 0.010973
C82   C     C_R   0.689035 0.213218 0.635456 -0.143890
C83   C     C_R   0.751535 0.314317 0.847472 -0.008107
C84   C     C_R   0.289023 0.887481 0.548552 0.528519
C85   C     C_R   0.763838 0.347899 0.890285 0.213073
C86   C     C_R   0.579918 0.318715 0.888109 0.011633
C87   C     C_R   0.566331 0.281758 0.846073 0.225988
C88   C     C_R   0.655055 0.288735 0.825346 -0.017999
C89   C     C_R   0.743051 0.484926 0.065730 0.526176
C90   C     C_1   0.648653 0.276063 0.781429 0.042751
C91   C     C_1   0.644468 0.269082 0.744943 0.005305
C92   C     C_R   0.682588 0.362538 0.909633 -0.010094
C93   C     C_R   0.073173 0.755185 0.908985 0.074091
C94   C     C_R   0.119993 0.857480 0.899174 -0.041293
C95   C     C_R   0.135715 0.870761 0.858546 -0.146204
C96   C     C_R   0.732617 0.441654 0.103839 0.007591
C97   C     C_R   0.112489 0.785714 0.828245 -0.021696
C98   C     C_R   0.078853 0.687463 0.838599 -0.111160
C99   C     C_R   0.058400 0.670857 0.878722 0.229851
C100  C     C_R   0.741962 0.789602 0.066268 0.560770
C101  C     C_R   0.176881 0.760377 0.760825 -0.093279
C102  C     C_R   0.181564 0.769445 0.719921 -0.096169
C103  C     C_R   0.128758 0.815639 0.702838 0.024281
C104  C     C_R   0.068163 0.851455 0.726970 0.071854
C105  C     C_R   0.065212 0.842865 0.768428 -0.070323
C106  C     C_R   0.119876 0.798107 0.785337 0.006660
C107  C     C_R   0.213848 0.936960 0.653715 0.236548
C108  C     C_R   0.659691 0.449503 0.130585 -0.136488
C109  C     C_R   0.251172 0.952367 0.615158 -0.149566
C110  C     C_R   0.153273 0.764895 0.590782 0.234428
C111  C     C_R   0.022922 0.732381 0.947652 0.614882
C112  C     C_R   0.117248 0.749902 0.629413 -0.107346
C113  C     C_R   0.149054 0.834767 0.660940 -0.013414
C114  C     C_R   0.226135 0.867122 0.584236 -0.018885
C115  C     C_R   0.658404 0.745383 0.913731 0.052778
C116  C     C_R   0.618503 0.659680 0.881700 0.213057
C117  C     C_R   0.603097 0.675012 0.842162 -0.118830
C118  C     C_R   0.628193 0.774242 0.834477 -0.055051
C119  C     C_R   0.656945 0.856122 0.867003 -0.055446
C120  C     C_R   0.657517 0.425828 0.169526 -0.089622
C121  C     C_R   0.670599 0.842430 0.906685 0.206594
Cr1   Cr    Cr6+3 0.424820 0.846020 0.489780 1.059065
Cr2   Cr    Cr6+3 0.657880 0.078580 0.505700 1.081018
Cr3   Cr    Cr6+3 0.417280 0.075360 0.504550 1.059314
Cr4   Cr    Cr6+3 0.903360 0.812540 0.006510 1.097356
Cr5   Cr    Cr6+3 0.914630 0.587050 0.006280 1.146894
Cr6   Cr    Cr6+3 0.673560 0.582680 0.008540 1.059032
H1    H     H_    0.606870 0.478340 0.122105 0.173499
H2    H     H_    0.579207 0.665788 0.106526 0.184780
H3    H     H_    0.488491 0.813065 0.303144 0.151750
H4    H     H_    0.731802 0.180300 0.617499 0.187398
H5    H     H_    0.529950 0.321383 0.700730 0.116195
H6    H     H_    0.066500 0.671289 0.635257 0.153443
H7    H     H_    0.600256 0.198535 0.287219 0.120899
H8    H     H_    0.229127 0.742938 0.701676 0.148096
H9    H     H_    0.219190 0.725440 0.773550 0.135119
H10   H     H_    0.166873 0.947775 0.850383 0.147735
H11   H     H_    0.018855 0.869164 0.787552 0.156971
H12   H     H_    0.500123 0.290771 0.415825 0.129269
H13   H     H_    0.306512 0.030902 0.610359 0.147132
H14   H     H_    0.062613 0.622264 0.814922 0.132904
H15   H     H_    0.814884 0.931251 0.667824 0.157424
H16   H     H_    0.554366 0.887441 0.801204 0.137791
H17   H     H_    0.577466 0.610942 0.816999 0.120827
H18   H     H_    0.729683 0.741928 0.703872 0.128233
H19   H     H_    0.720264 0.710387 0.774127 0.125026
H20   H     H_    0.460166 0.768926 0.589928 0.142315
H21   H     H_    0.674619 0.932789 0.861465 0.152676
H22   H     H_    0.602448 0.434858 0.189899 0.167358
H23   H     H_    0.852858 0.356473 0.166433 0.152840
H24   H     H_    0.843178 0.538616 0.245641 0.145162
H25   H     H_    0.230108 0.688126 0.094139 0.327751
H26   H     H_    0.361643 0.770478 0.142861 0.134215
H27   H     H_    0.142721 0.702681 0.408052 0.344706
H28   H     H_    0.049861 0.978410 0.091674 0.173872
H29   H     H_    0.836664 0.367483 0.062776 0.346774
H30   H     H_    0.364520 0.148791 0.341471 0.091626
H31   H     H_    0.869596 0.069878 0.128175 0.348125
H32   H     H_    0.852395 0.943912 0.295879 0.346530
H33   H     H_    0.912846 0.994793 0.400241 0.165604
H34   H     H_    0.782381 0.256882 0.423064 0.171286
H35   H     H_    0.504976 0.689940 0.214139 0.146103
H36   H     H_    0.905621 0.357189 0.897862 0.329677
H37   H     H_    0.877616 0.363979 0.334504 0.344067
H38   H     H_    0.877916 0.267309 0.836275 0.116132
H39   H     H_    0.776191 0.194191 0.730012 0.165992
H40   H     H_    0.460375 0.331536 0.641470 0.326377
H41   H     H_    0.461735 0.205989 0.798717 0.340576
H42   H     H_    0.480461 0.377909 0.922804 0.159875
H43   H     H_    0.165108 0.023925 0.920761 0.141262
H44   H     H_    0.014043 0.522991 0.863816 0.337905
H45   H     H_    0.149070 0.710595 0.303165 0.166093
H46   H     H_    0.002826 0.896482 0.676711 0.114393
H47   H     H_    0.292200 0.085599 0.675341 0.329928
H48   H     H_    0.124945 0.700392 0.533963 0.343426
H49   H     H_    0.577829 0.513884 0.863223 0.324522
H50   H     H_    0.536326 0.111895 0.217978 0.129811
H51   H     H_    0.688450 0.902540 0.963898 0.339490
H52   H     H_    0.584455 0.961941 0.703888 0.333574
H53   H     H_    0.389541 0.699193 0.645107 0.328758
H54   H     H_    0.908839 0.017869 0.610955 0.126905
H55   H     H_    0.834407 0.532088 0.351663 0.346782
H56   H     H_    0.335723 0.050765 0.395129 0.133427
H57   H     H_    0.456099 0.355159 0.360306 0.109538
H58   H     H_    0.117779 0.956844 0.196324 0.192298
H59   H     H_    0.796041 0.019297 0.186868 0.130758
H60   H     H_    0.464965 0.817079 0.375273 0.161001
O1    O     O_R   0.318160 0.824460 0.443680 -0.501599
O2    O     O_R   0.668160 0.499860 0.053480 -0.512885
O3    O     O_R   0.689170 0.693840 0.050110 -0.529397
O4    O     O_R   0.525040 0.857250 0.449830 -0.498140
O5    O     O_R   0.803860 0.812940 0.962540 -0.502724
O6    O     O_R   0.982950 0.787950 0.964120 -0.482268
O7    O     O_R   0.007050 0.649970 0.960540 -0.425138
O8    O     O_R   0.807910 0.482370 0.965590 -0.415827
O9    O     O_R   0.643310 0.460980 0.963840 -0.526553
O10   O     O_R   0.666140 0.657800 0.967020 -0.450896
O11   O     O_3   0.830520 0.660760 0.007110 -0.286425
O12   O     O_R   0.645130 0.163230 0.552140 -0.523636
O13   O     O_R   0.684760 0.998800 0.456360 -0.470295
O14   O     O_R   0.647540 0.166310 0.470260 -0.507858
O15   O     O_R   0.500960 0.181750 0.467450 -0.510968
O16   O     O_R   0.331100 0.981120 0.457080 -0.499592
O17   O     O_R   0.315560 0.821140 0.532010 -0.498844
O18   O     O_R   0.522630 0.854180 0.531710 -0.508895
O19   O     O_R   0.682160 0.995480 0.544690 -0.458163
O20   O     O_3   0.221351 0.742073 0.082816 -0.660451
O21   O     O_2   0.325684 0.768606 0.200099 -0.515301
O22   O     O_3   0.154621 0.691532 0.378904 -0.656342
O23   O     O_R   0.498360 0.178430 0.555780 -0.442897
O24   O     O_2   0.012802 0.995172 0.148354 -0.493873
O25   O     O_3   0.867851 0.384912 0.091241 -0.663624
O26   O     O_2   0.327963 0.085011 0.283243 -0.498250
O27   O     O_3   0.838676 0.003442 0.108683 -0.632548
O28   O     O_3   0.853718 0.949310 0.325842 -0.706711
O29   O     O_2   0.823026 0.918408 0.442043 -0.456630
O30   O     O_2   0.469984 0.588681 0.163247 -0.496849
O31   O     O_3   0.855414 0.372093 0.913990 -0.635144
O32   O     O_3   0.857779 0.326259 0.357959 -0.673736
O33   O     O_2   0.872673 0.352556 0.796303 -0.515680
O34   O     O_R   0.328690 0.978040 0.538950 -0.500185
O35   O     O_2   0.822884 0.159351 0.676881 -0.516527
O36   O     O_3   0.493435 0.303987 0.620485 -0.668276
O37   O     O_3   0.466558 0.245554 0.825940 -0.652821
O38   O     O_2   0.405603 0.223861 0.907680 -0.457324
O39   O     O_2   0.178951 0.954725 0.965546 -0.465871
O40   O     O_3   0.018163 0.571882 0.888298 -0.644855
O41   O     O_2   0.960311 0.932583 0.730696 -0.517373
O42   O     O_3   0.245829 0.019481 0.685436 -0.674179
O43   O     O_3   0.117596 0.678079 0.560955 -0.668882
O44   O     O_3   0.604217 0.564569 0.888983 -0.697104
O45   O     O_3   0.499990 0.999990 0.500010 -0.271905
O46   O     O_2   0.596123 0.179778 0.170081 -0.479715
O47   O     O_3   0.701377 0.927085 0.937270 -0.661154
O48   O     O_3   0.560448 0.940185 0.730421 -0.685338
O49   O     O_3   0.453118 0.728422 0.664943 -0.675935
O50   O     O_2   0.841787 0.952375 0.554663 -0.440656
O51   O     O_3   0.846571 0.546916 0.323543 -0.664363
O52   O     O_2   0.558505 0.421034 0.319789 -0.463406
O53   O     O_R   0.828710 0.851830 0.052170 -0.450310
O54   O     O_R   0.005980 0.823990 0.047210 -0.526558
O55   O     O_R   0.031900 0.688850 0.050170 -0.444478
O56   O     O_R   0.830940 0.518420 0.048680 -0.494286

loop_
_geom_bond_atom_site_label_1
_geom_bond_atom_site_label_2
_ccdc_geom_bond_type
C66   C68   A    
C87   C88   A    
C51   C58   A    
C93   C94   A    
C115  C121  A    
C14   H28   S    
C16   H33   S    
C73   C74   T    
C62   H3    S    
C64   O28   S    
C24   C27   A    
C12   H26   S    
C15   O26   D    
C18   O33   D    
C81   C82   A    
C36   C41   S    
C8    C118  S    
Cr1   O4    S    
C47   C49   A    
C10   C67   A    
C68   C75   A    
C21   O39   D    
H31   O27   S    
C48   O16   A    
C18   C83   S    
C120  H22   S    
C101  C102  A    
C13   O5    A    
C13   O10   A    
C14   O24   D    
C109  H13   S    
C12   O21   D    
C39   O32   S    
C28   C29   A    
C103  C113  S    
C15   C44   S    
C15   H30   S    
H27   O22   S    
C84   O34   A    
C1    C59   S    
C5    C6    A    
C51   O20   S    
C60   O18   A    
H29   O25   S    
C21   C94   S    
C11   C25   S    
C21   H43   S    
Cr6   O10   S    
C103  C104  A    
C61   H60   S    
C22   C104  S    
C116  C117  A    
C2    O8    A    
Cr1   O17   S    
C16   O29   D    
C108  C120  A    
C118  C119  A    
C104  C105  A    
C53   H58   S    
C5    C56   S    
C105  H11   S    
C102  H8    S    
Cr5   O8    S    
C85   C92   A    
C38   H34   S    
C72   O23   A    
Cr2   O45   S    
C31   C32   A    
C45   C56   A    
C11   C67   A    
C20   C86   S    
Cr5   O55   S    
C89   O56   A    
C100  O53   A    
C70   C71   A    
C19   H39   S    
C25   O50   D    
C29   C30   A    
C68   O27   S    
C9    C10   A    
C112  H6    S    
C72   C76   S    
C10   H20   S    
C7    H19   S    
C78   O55   A    
Cr5   O11   S    
C119  C121  A    
C83   C88   A    
C96   C108  A    
C17   C70   S    
H48   O43   S    
C9    O49   S    
C107  C109  A    
Cr1   O18   S    
C27   C96   A    
C61   C62   A    
C19   O35   D    
C36   O15   A    
C116  O44   S    
H41   O37   S    
C26   O52   D    
C112  C113  A    
C18   H38   S    
C25   H54   S    
C97   C98   A    
C77   C79   A    
C34   C120  A    
C38   C39   A    
C14   C52   S    
C95   H10   S    
Cr6   O3    S    
C59   C61   A    
Cr2   O14   S    
Cr3   O16   S    
C30   C40   S    
C102  C103  A    
C78   O54   A    
C107  C113  A    
Cr2   O13   S    
C7    C8    A    
C117  H17   S    
H32   O28   S    
C76   C77   A    
C60   C67   S    
C38   C41   A    
H52   O48   S    
C3    C8    A    
H25   O20   S    
C76   C82   A    
C39   C40   A    
C71   C73   S    
C6    H18   S    
C86   C87   A    
C80   C81   A    
C27   O25   S    
C111  O7    A    
C50   C51   A    
C119  H21   S    
C53   C54   A    
H49   O44   S    
C24   C34   A    
C20   O38   D    
C63   C64   A    
Cr2   O19   S    
Cr3   O15   S    
C77   O36   S    
C2    C92   S    
C43   C44   A    
C62   C63   A    
Cr5   O7    S    
Cr1   O1    S    
C66   C71   A    
Cr4   O6    S    
C24   H23   S    
C93   C99   A    
C33   C34   S    
C3    H16   S    
C94   C95   A    
C9    C56   A    
C42   C48   S    
C23   C28   S    
C108  H1    S    
Cr4   O54   S    
H40   O36   S    
Cr3   O45   S    
Cr4   O53   S    
C52   C58   A    
C109  C114  A    
C111  O6    A    
C47   H45   S    
C97   C106  S    
C1    O4    A    
H37   O32   S    
C83   C85   A    
C31   O51   S    
C88   C90   S    
C28   C33   A    
C98   C99   A    
C107  O42   S    
C46   C57   S    
C37   H12   S    
C45   H15   S    
C4    O48   S    
C11   C45   A    
C1    O13   A    
C110  O43   S    
C36   O14   A    
C69   C75   A    
C3    C4    A    
Cr6   O11   S    
C50   C54   A    
C22   H46   S    
C17   O30   D    
C52   C53   A    
H55   O51   S    
H51   O47   S    
C101  H9    S    
Cr2   O12   S    
C101  C106  A    
C110  C114  A    
C46   C47   A    
C84   C114  S    
C84   O17   A    
C35   C37   A    
C85   O31   S    
C100  O3    A    
H44   O40   S    
C4    C5    A    
Cr4   O11   S    
C54   C55   S    
C12   C50   S    
C95   C97   A    
C48   O1    A    
C6    C7    A    
C63   C74   S    
C13   C115  S    
Cr1   O45   S    
C105  C106  A    
C99   O40   S    
C32   C33   A    
C89   C96   S    
C55   C57   T    
C35   C40   A    
C98   H14   S    
C66   H59   S    
C86   C92   A    
Cr6   O9    S    
C87   O37   S    
C72   O12   A    
C29   H7    S    
C60   O19   A    
C90   C91   T    
C30   C31   A    
C32   H24   S    
Cr3   O23   S    
C19   C81   S    
C80   C91   S    
C79   H5    S    
C64   C65   A    
C43   H56   S    
C75   C100  S    
C20   H42   S    
Cr4   O5    S    
C2    O9    A    
C37   C41   A    
C69   C70   A    
H47   O42   S    
C110  C112  A    
C23   H50   S    
C17   H35   S    
C58   C78   S    
C42   C49   A    
C79   C80   A    
C23   O46   D    
H36   O31   S    
C26   C35   S    
C22   O41   D    
Cr3   O34   S    
H53   O49   S    
C69   H2    S    
C121  O47   S    
C42   C43   A    
C49   O22   S    
Cr5   O56   S    
Cr6   O2    S    
C89   O2    A    
C16   C65   S    
C82   H4    S    
C117  C118  A    
C93   C111  S    
C44   C46   A    
C59   C65   A    
C115  C116  A    
C26   H57   S    
