data_mof_unit_8134.cif
_audit_creation_date              2012-12-10T17:46:59-0500
_audit_creation_method            fapswitch 2.2
_symmetry_space_group_name_H-M    P1
_symmetry_Int_Tables_number       1
_space_group_crystal_system       triclinic
_cell_length_a                    9.896276
_cell_length_b                    10.732369
_cell_length_c                    13.62026
_cell_angle_alpha                 91.553923
_cell_angle_beta                  82.914341
_cell_angle_gamma                 89.261475
_cell_volume                      1434.84629343

loop_
_atom_site_label
_atom_site_type_symbol
_atom_type_description
_atom_site_fract_x
_atom_site_fract_y
_atom_site_fract_z
_atom_type_partial_charge
C1    C     C_R   0.498989 0.740188 0.494257 0.863236
C2    C     C_R   0.617588 0.935684 0.490524 -0.224388
C3    C     C_R   0.618467 0.062551 0.502700 -0.216261
C4    C     C_R   0.475542 0.500173 0.685675 0.869930
C5    C     C_R   0.495487 0.128681 0.522638 -0.127547
C6    C     C_R   0.836714 0.664591 0.629764 -0.141415
C7    C     C_R   0.895695 0.743645 0.694420 -0.191029
C8    C     C_R   0.035341 0.741525 0.695326 -0.190508
C9    C     C_R   0.116915 0.661001 0.631038 -0.157323
C10   C     C_R   0.060732 0.579942 0.564343 0.145882
C11   C     C_R   0.916092 0.580736 0.563974 0.166956
C12   C     C_1   0.457297 0.500013 0.789472 -0.163826
C13   C     C_R   0.939893 0.422613 0.439038 -0.130135
C14   C     C_R   0.083114 0.422771 0.438972 -0.112724
C15   C     C_R   0.498617 0.261092 0.509891 0.879671
C16   C     C_R   0.524532 0.500288 0.314301 0.925463
C17   C     C_1   0.543894 0.505518 0.210634 -0.206039
C18   C     C_2   0.566165 0.516002 0.017729 0.586093
C19   C     C_2   0.448669 0.500495 0.980920 -0.286717
C20   C     C_1   0.447690 0.500031 0.877234 0.078643
C21   C     C_1   0.558293 0.510779 0.122946 -0.165029
C22   C     C_3   0.799995 0.554106 0.005174 -0.291554
C23   C     C_R   0.240773 0.892774 0.484331 -0.165475
C24   C     C_R   0.118994 0.956048 0.517521 -0.148933
C25   C     C_R   0.121534 0.069096 0.569227 -0.155908
C26   C     C_R   0.245951 0.124495 0.578649 -0.153023
C27   C     C_R   0.369845 0.066243 0.536474 0.097622
C28   C     C_R   0.367960 0.942067 0.503221 0.096540
C29   C     C_R   0.493869 0.874202 0.490734 -0.120347
H1    H     H_    0.353526 0.486215 0.028175 0.117580
H2    H     H_    0.027210 0.115912 0.599038 0.142168
H3    H     H_    0.244164 0.212659 0.619261 0.160578
H4    H     H_    0.715778 0.108769 0.494623 0.169772
H5    H     H_    0.895305 0.359388 0.389322 0.144505
H6    H     H_    0.822547 0.471136 0.047963 0.166643
H7    H     H_    0.784544 0.639037 0.054180 0.162743
H8    H     H_    0.890163 0.569602 0.950162 0.191158
H9    H     H_    0.728967 0.672442 0.634033 0.205767
H10   H     H_    0.832422 0.806989 0.744150 0.157309
H11   H     H_    0.081037 0.803380 0.745538 0.154342
H12   H     H_    0.223409 0.665575 0.635183 0.208999
H13   H     H_    0.146338 0.359590 0.389211 0.154336
H14   H     H_    0.714619 0.886089 0.479452 0.170231
H15   H     H_    0.232557 0.808201 0.440997 0.171660
H16   H     H_    0.022586 0.915997 0.504756 0.142956
N1    N     N_R   0.857120 0.501200 0.500900 -0.118604
N2    N     N_R   0.142720 0.501280 0.500940 -0.124206
O1    O     O_R   0.385310 0.683220 0.500000 -0.652088
O2    O     O_R   0.614640 0.683250 0.500010 -0.641394
O3    O     O_R   0.368830 0.499960 0.640340 -0.640684
O4    O     O_R   0.598160 0.499980 0.640350 -0.611668
O5    O     O_R   0.385360 0.316750 0.499990 -0.622549
O6    O     O_R   0.614690 0.316780 0.500000 -0.617499
O7    O     O_R   0.401840 0.500020 0.359650 -0.610263
O8    O     O_R   0.631170 0.500040 0.359660 -0.609005
O9    O     O_3   0.686322 0.533603 0.954036 -0.593377
Zn1   Zn    Zn3+2 0.346870 0.499980 0.499990 0.921263
Zn2   Zn    Zn3+2 0.653130 0.500020 0.500010 0.937474

loop_
_geom_bond_atom_site_label_1
_geom_bond_atom_site_label_2
_ccdc_geom_bond_type
C25   H2    S    
C23   C24   A    
C6    H9    S    
C1    O1    A    
C26   H3    S    
C6    C7    A    
O2    Zn2   S    
O6    Zn2   S    
C13   C14   A    
N2    Zn1   S    
C18   C21   S    
C22   H7    S    
C9    C10   A    
C9    H12   S    
C19   C20   S    
C18   O9    S    
C2    H14   S    
C14   H13   S    
C12   C20   T    
C1    C29   S    
C2    C3    A    
C16   O8    A    
C13   H5    S    
O1    Zn1   S    
O4    Zn2   S    
C5    C27   A    
C15   O5    A    
N1    Zn2   S    
C22   H6    S    
C19   H1    S    
C26   C27   A    
C14   N2    A    
C2    C29   A    
C24   H16   S    
C15   O6    A    
C28   C29   A    
C6    C11   A    
C13   N1    A    
C16   O7    A    
C5    C15   S    
C4    C12   S    
C10   C11   A    
C3    H4    S    
C4    O4    A    
C10   N2    A    
O3    Zn1   S    
C24   C25   A    
C18   C19   D    
O5    Zn1   S    
O8    Zn2   S    
C27   C28   A    
C7    C8    A    
C7    H10   S    
C8    C9    A    
C11   N1    A    
C22   O9    S    
C8    H11   S    
C25   C26   A    
C23   C28   A    
C22   H8    S    
C1    O2    A    
C17   C21   T    
C23   H15   S    
C4    O3    A    
C16   C17   S    
C3    C5    A    
O7    Zn1   S    
