data_mof_unit_12892.cif
_audit_creation_date              2012-12-11T14:39:17-0500
_audit_creation_method            fapswitch 2.2
_symmetry_space_group_name_H-M    P1
_symmetry_Int_Tables_number       1
_space_group_crystal_system       triclinic
_cell_length_a                    7.212081
_cell_length_b                    13.961641
_cell_length_c                    16.435875
_cell_angle_alpha                 89.999738
_cell_angle_beta                  97.29167
_cell_angle_gamma                 89.999808
_cell_volume                      1641.58521821

loop_
_atom_site_label
_atom_site_type_symbol
_atom_type_description
_atom_site_fract_x
_atom_site_fract_y
_atom_site_fract_z
_atom_type_partial_charge
O1    O     O_R   0.525340 0.338340 0.164530 -0.542948
O2    O     O_R   0.474660 0.661660 0.835470 -0.543044
O3    O     O_R   0.974660 0.838340 0.835470 -0.542956
O4    O     O_R   0.025340 0.161660 0.164530 -0.543029
O5    O     O_R   0.253520 0.352000 0.336710 -0.548659
O6    O     O_R   0.746480 0.648000 0.663290 -0.532800
O7    O     O_R   0.246480 0.852000 0.663290 -0.548662
O8    O     O_R   0.753520 0.148000 0.336710 -0.532917
O9    O     O_R   0.083330 0.168380 0.337300 -0.543418
O10   O     O_R   0.916670 0.831620 0.662700 -0.530729
O11   O     O_R   0.416670 0.668380 0.662700 -0.543438
O12   O     O_R   0.583330 0.331620 0.337300 -0.530726
C1    C     C_R   0.432586 0.371306 0.361785 0.792936
C2    C     C_R   0.568029 0.628128 0.638632 0.793882
C3    C     C_R   0.067413 0.871308 0.638217 0.792932
C4    C     C_R   0.931971 0.128121 0.361361 0.793847
O13   O     O_R   0.195840 0.349670 0.165140 -0.547194
O14   O     O_R   0.804160 0.650330 0.834860 -0.546595
O15   O     O_R   0.304160 0.849670 0.834860 -0.547196
O16   O     O_R   0.695840 0.150330 0.165140 -0.546572
C5    C     C_R   0.356966 0.371587 0.137325 0.801648
C6    C     C_R   0.642881 0.628183 0.862491 0.801118
C7    C     C_R   0.143033 0.871587 0.862675 0.801629
C8    C     C_R   0.857119 0.128185 0.137508 0.801139
O17   O     O_3   0.387830 0.193120 0.250910 -0.386352
O18   O     O_3   0.612170 0.806880 0.749090 -0.390532
O19   O     O_3   0.112170 0.693120 0.749090 -0.386351
O20   O     O_3   0.887830 0.306880 0.250910 -0.390524
V1    V     V_3+5 0.113010 0.264540 0.250910 1.389325
V2    V     V_3+5 0.886990 0.735460 0.749090 1.400636
V3    V     V_3+5 0.386990 0.764540 0.749090 1.389315
V4    V     V_3+5 0.613010 0.235460 0.250910 1.400521
C9    C     C_R   0.008188 0.200429 0.523684 -0.145442
C10   C     C_R   0.023097 0.799111 0.475451 -0.143275
C11   C     C_R   0.491812 0.700433 0.476305 -0.145419
C12   C     C_R   0.476896 0.299117 0.524559 -0.143289
C13   C     C_R   0.031851 0.239312 0.602023 -0.170970
C14   C     C_R   0.992620 0.759609 0.397475 -0.170740
C15   C     C_R   0.468141 0.739312 0.397964 -0.171006
C16   C     C_R   0.507399 0.259621 0.602537 -0.170687
C17   C     C_R   0.036526 0.179957 0.669717 -0.189350
C18   C     C_R   0.936545 0.817454 0.330510 -0.188562
C19   C     C_R   0.463447 0.679951 0.330273 -0.189380
C20   C     C_R   0.563518 0.317468 0.669496 -0.188641
C21   C     C_R   0.019903 0.080424 0.660043 0.428011
C22   C     C_R   0.910636 0.916237 0.340365 0.433102
C23   C     C_R   0.480076 0.580420 0.339951 0.428022
C24   C     C_R   0.589427 0.416252 0.659632 0.433149
C25   C     C_R   0.017117 0.038329 0.580683 -0.027287
C26   C     C_R   0.959660 0.959882 0.418911 -0.027101
C27   C     C_R   0.482873 0.538329 0.419313 -0.027283
C28   C     C_R   0.540352 0.459889 0.581086 -0.027026
C29   C     C_R   0.998581 0.099921 0.511276 -0.002713
C30   C     C_R   0.005687 0.899019 0.487964 -0.003822
C31   C     C_R   0.501415 0.599925 0.488717 -0.002744
C32   C     C_R   0.494309 0.399023 0.512039 -0.003855
C33   C     C_R   0.029885 0.937795 0.568356 -0.156591
C34   C     C_R   0.964836 0.061046 0.430993 -0.156482
C35   C     C_R   0.470109 0.437796 0.431644 -0.156599
C36   C     C_R   0.535168 0.561052 0.569001 -0.156418
H1    H     H_    0.998122 0.250526 0.473119 0.119269
H2    H     H_    0.061846 0.750063 0.525704 0.117364
H3    H     H_    0.501889 0.750531 0.526869 0.119247
H4    H     H_    0.438125 0.250068 0.474309 0.117351
C37   C     C_2   0.150300 0.941628 0.930985 -0.308224
C38   C     C_2   0.850181 0.057600 0.069635 -0.311443
C39   C     C_2   0.349699 0.441626 0.069013 -0.308232
C40   C     C_2   0.649818 0.557594 0.930360 -0.311433
C41   C     C_2   0.996904 0.964265 0.966600 -0.137799
C42   C     C_2   0.004239 0.033845 0.034925 -0.126245
C43   C     C_2   0.503094 0.464258 0.033395 -0.137808
C44   C     C_2   0.495761 0.533841 0.965072 -0.126288
H5    H     H_    0.716407 0.025235 0.047137 0.115360
H6    H     H_    0.283791 0.974569 0.953027 0.117294
H7    H     H_    0.783591 0.525224 0.952855 0.115393
H8    H     H_    0.216210 0.474571 0.046973 0.117299
H9    H     H_    0.907863 0.785052 0.270370 0.124998
H10   H     H_    0.046366 0.211419 0.730320 0.124724
H11   H     H_    0.592213 0.285065 0.729634 0.124914
H12   H     H_    0.453593 0.711406 0.269667 0.124746
H13   H     H_    0.041076 0.316184 0.610116 0.134120
H14   H     H_    0.008772 0.683251 0.389159 0.137044
H15   H     H_    0.458929 0.816184 0.389866 0.134158
H16   H     H_    0.491241 0.183264 0.610858 0.137034
O21   O     O_3   0.996825 0.025963 0.728193 -0.573210
C45   C     C_3   0.809260 0.035766 0.743619 -0.207619
H17   H     H_    0.709852 0.011193 0.690263 0.131489
H18   H     H_    0.776848 0.110724 0.759985 0.111097
H19   H     H_    0.786358 0.990571 0.796721 0.172142
O22   O     O_3   0.834346 0.968501 0.272890 -0.570765
C46   C     C_3   0.641498 0.946788 0.257288 -0.219727
H20   H     H_    0.568066 0.965418 0.310804 0.131771
H21   H     H_    0.616990 0.870368 0.240211 0.110284
H22   H     H_    0.577458 0.989630 0.204418 0.166587
O23   O     O_3   0.503156 0.525959 0.271803 -0.573211
C47   C     C_3   0.690732 0.535747 0.256388 -0.207579
H23   H     H_    0.790108 0.511121 0.309737 0.131525
H24   H     H_    0.723208 0.610712 0.240065 0.111087
H25   H     H_    0.713613 0.490586 0.203263 0.172129
O24   O     O_3   0.665830 0.468535 0.727079 -0.570741
C48   C     C_3   0.858578 0.446639 0.742757 -0.219740
H26   H     H_    0.932044 0.464571 0.689069 0.131243
H27   H     H_    0.882652 0.370335 0.760395 0.110502
H28   H     H_    0.922949 0.489938 0.795294 0.166846
H29   H     H_    0.138362 0.066330 0.056618 0.150391
H30   H     H_    0.863155 0.931072 0.945487 0.145189
H31   H     H_    0.361640 0.566330 0.943382 0.150391
H32   H     H_    0.636840 0.431061 0.054506 0.145187

loop_
_geom_bond_atom_site_label_1
_geom_bond_atom_site_label_2
_ccdc_geom_bond_type
C25   C29   A    
O1    C5    A    
C48   H26   S    
C29   C34   A    
O13   V1    S    
C16   H16   S    
O3    C7    A    
O23   C47   S    
O15   V3    S    
O21   C45   S    
C40   H7    S    
C26   C30   A    
O20   V1    S    
O9    C4    A    
C14   C18   A    
O10   C3    A    
O4    C8    A    
O11   C2    A    
C45   H18   S    
C46   H21   S    
C47   H25   S    
C10   H2    S    
C25   C33   A    
C18   C22   A    
C28   C36   A    
O16   C8    A    
C47   H24   S    
O2    C6    A    
O14   V2    S    
C16   C20   A    
O5    C1    A    
O4    V1    S    
C8    C38   S    
O17   V4    S    
O7    C3    A    
O11   V3    S    
O18   V3    S    
C48   H27   S    
C10   C14   A    
C31   C36   A    
O12   V4    S    
O19   V2    S    
C3    C33   S    
C13   H13   S    
C14   H14   S    
O5    V1    S    
C9    C29   A    
C24   O24   S    
O7    V3    S    
C11   C31   A    
C26   C34   A    
C12   C16   A    
C46   H20   S    
O15   C7    A    
C15   C19   A    
C27   C31   A    
C19   H12   S    
C38   H5    S    
C45   H19   S    
O1    V4    S    
C9    C13   A    
C37   H6    S    
O2    V3    S    
O8    V4    S    
O3    V2    S    
C11   C15   A    
C12   C32   A    
O6    C2    A    
O10   V2    S    
C44   H31   S    
C21   C25   A    
C40   C44   D    
C47   H23   S    
C4    C34   S    
C6    C40   S    
C1    C35   S    
O6    V2    S    
C10   C30   A    
C48   H28   S    
C27   C35   A    
C17   H10   S    
C45   H17   S    
O16   V4    S    
C23   O23   S    
O8    C4    A    
O14   C6    A    
C20   H11   S    
C42   H29   S    
C23   C27   A    
C41   H30   S    
C22   O22   S    
O9    V1    S    
C2    C36   S    
C22   C26   A    
C32   C35   A    
C21   O21   S    
C7    C37   S    
C15   H15   S    
C43   C44   S    
C46   H22   S    
O22   C46   S    
C38   C42   D    
C37   C41   D    
O24   C48   S    
C39   C43   D    
C13   C17   A    
C41   C42   S    
O13   C5    A    
C28   C32   A    
C24   C28   A    
O12   C1    A    
C18   H9    S    
C9    H1    S    
C17   C21   A    
C11   H3    S    
C39   H8    S    
C12   H4    S    
C19   C23   A    
C5    C39   S    
C20   C24   A    
C43   H32   S    
C30   C33   A    
