data_mof_unit_28121.cif
_audit_creation_date              2012-12-10T17:20:26-0500
_audit_creation_method            fapswitch 2.2
_symmetry_space_group_name_H-M    P1
_symmetry_Int_Tables_number       1
_space_group_crystal_system       triclinic
_cell_length_a                    11.698624
_cell_length_b                    10.74256
_cell_length_c                    9.625255
_cell_angle_alpha                 87.787781
_cell_angle_beta                  90.425704
_cell_angle_gamma                 89.568658
_cell_volume                      1208.66444488

loop_
_atom_site_label
_atom_site_type_symbol
_atom_type_description
_atom_site_fract_x
_atom_site_fract_y
_atom_site_fract_z
_atom_type_partial_charge
C1    C     C_R   0.509958 0.262804 0.503366 0.785218
C2    C     C_R   0.824786 0.037888 0.564774 -0.093799
C3    C     C_R   0.820973 0.915779 0.523195 -0.188261
C4    C     C_R   0.716311 0.859793 0.501094 -0.184439
C5    C     C_R   0.613631 0.928684 0.508899 0.095960
C6    C     C_R   0.617154 0.057542 0.534900 -0.012552
C7    C     C_R   0.513964 0.127897 0.512876 -0.114688
C8    C     C_R   0.410386 0.068490 0.487918 -0.157780
C9    C     C_R   0.406260 0.940371 0.483571 -0.134943
C10   C     C_R   0.506988 0.870976 0.492377 -0.064872
C11   C     C_R   0.497991 0.730065 0.106829 0.039650
C12   C     C_R   0.284205 0.500593 0.499549 0.819420
C13   C     C_R   0.560940 0.827763 0.043733 -0.141888
C14   C     C_R   0.625922 0.805283 0.926035 -0.247399
C15   C     C_R   0.614374 0.691576 0.861668 -0.114014
C16   C     C_R   0.546355 0.597603 0.923619 0.215747
C17   C     C_R   0.520318 0.607612 0.066001 0.094238
C18   C     C_R   0.470914 0.397261 0.077816 -0.046716
C19   C     C_R   0.464297 0.399958 0.929749 -0.072068
C20   C     C_R   0.498414 0.737270 0.497482 0.763708
C21   C     C_R   0.715760 0.501576 0.500194 0.807234
C22   C     C_1   0.162418 0.502479 0.498726 -0.175947
C23   C     C_1   0.059880 0.504035 0.498862 0.009213
C24   C     C_1   0.940027 0.504982 0.499547 0.039332
C25   C     C_1   0.837509 0.504301 0.500144 -0.107107
C26   C     C_R   0.723681 0.107685 0.579510 -0.031537
Cu1   Cu    Cu3+1 0.499990 0.499990 0.640660 0.945117
Cu2   Cu    Cu3+1 0.500010 0.500010 0.359340 0.949506
H1    H     H_    0.331864 0.121889 0.473537 0.141746
H2    H     H_    0.675216 0.879426 0.876896 0.167924
H3    H     H_    0.658948 0.678777 0.765769 0.184063
H4    H     H_    0.433300 0.319040 0.878187 0.146347
H5    H     H_    0.906902 0.074941 0.594561 0.176617
H6    H     H_    0.899223 0.862097 0.515530 0.149652
H7    H     H_    0.716513 0.762804 0.475295 0.122641
H8    H     H_    0.324496 0.895185 0.470974 0.148221
H9    H     H_    0.445947 0.313373 0.134731 0.158406
H10   H     H_    0.552284 0.922314 0.077698 0.183404
N1    N     N_R   0.501070 0.501210 0.147910 -0.203819
N2    N     N_R   0.501110 0.501290 0.852040 -0.195797
O1    O     O_R   0.499990 0.319640 0.618810 -0.607250
O2    O     O_R   0.500000 0.319660 0.381240 -0.569221
O3    O     O_R   0.337190 0.500000 0.618790 -0.557871
O4    O     O_R   0.337200 0.500030 0.381210 -0.589065
O5    O     O_R   0.500000 0.680340 0.618760 -0.588987
O6    O     O_R   0.500010 0.680360 0.381190 -0.593515
O7    O     O_R   0.662800 0.499970 0.618790 -0.579202
O8    O     O_R   0.662810 0.500000 0.381210 -0.566599
C27   C     C_2   0.731130 0.216018 0.669311 0.322513
H11   H     H_    0.660521 0.239782 0.735058 0.114622
O9    O     O_2   0.820316 0.273112 0.680802 -0.551924
C28   C     C_2   0.383855 0.759653 0.164047 0.390959
H12   H     H_    0.325065 0.685092 0.190971 0.092616
O10   O     O_2   0.353417 0.867261 0.179069 -0.572812

loop_
_geom_bond_atom_site_label_1
_geom_bond_atom_site_label_2
_ccdc_geom_bond_type
C8    C9    A    
C9    H8    S    
C23   C24   S    
C15   H3    S    
C6    C7    A    
Cu1   O3    S    
C9    C10   A    
Cu1   O1    S    
C20   O5    A    
Cu2   N1    S    
Cu1   N2    S    
C18   N1    A    
C21   O8    A    
Cu1   O5    S    
C2    C3    A    
C4    H7    S    
C5    C10   A    
C2    C26   A    
C13   C14   A    
C24   C25   T    
C11   C13   A    
Cu2   O6    S    
C13   H10   S    
C6    C26   A    
C10   C20   S    
C16   N2    A    
C19   H4    S    
C2    H5    S    
C1    O1    A    
C18   H9    S    
C14   H2    S    
C27   H11   S    
C12   O3    A    
C22   C23   T    
C5    C6    A    
C16   C17   A    
C19   N2    A    
C8    H1    S    
C15   C16   A    
C12   C22   S    
C1    O2    A    
C7    C8    A    
C28   H12   S    
Cu2   O8    S    
C12   O4    A    
C18   C19   A    
C17   N1    A    
C26   C27   S    
Cu1   O7    S    
Cu1   Cu2   S    
C21   C25   S    
C14   C15   A    
C11   C17   A    
C11   C28   S    
Cu2   O2    S    
C3    H6    S    
C21   O7    A    
C1    C7    S    
Cu2   O4    S    
C20   O6    A    
C3    C4    A    
C28   O10   D    
C4    C5    A    
C27   O9    D    
