data_mof_unit_57869.cif
_audit_creation_date              2012-12-10T18:58:13-0500
_audit_creation_method            fapswitch 2.2
_symmetry_space_group_name_H-M    P1
_symmetry_Int_Tables_number       1
_space_group_crystal_system       triclinic
_cell_length_a                    11.056208
_cell_length_b                    10.839818
_cell_length_c                    9.549238
_cell_angle_alpha                 89.988586
_cell_angle_beta                  102.498494
_cell_angle_gamma                 90.257941
_cell_volume                      1117.31701994

loop_
_atom_site_label
_atom_site_type_symbol
_atom_type_description
_atom_site_fract_x
_atom_site_fract_y
_atom_site_fract_z
_atom_type_partial_charge
C1    C     C_R   0.496445 0.262533 0.499111 0.806697
C2    C     C_R   0.480395 0.130057 0.495029 -0.113110
C3    C     C_R   0.451503 0.066999 0.363593 -0.260810
C4    C     C_R   0.448857 0.937969 0.360619 -0.039983
C5    C     C_R   0.477567 0.871266 0.492126 -0.155842
C6    C     C_R   0.484797 0.936979 0.619663 0.129740
C7    C     C_3   0.575564 0.930279 0.760283 -0.471883
C8    C     C_3   0.577234 0.070304 0.760911 -0.455495
C9    C     C_R   0.607047 0.520312 0.100412 0.254273
C10   C     C_R   0.397071 0.467552 0.048525 -0.064683
C11   C     C_R   0.397048 0.467609 0.899967 -0.072933
C12   C     C_R   0.262866 0.499253 0.441984 0.860728
C13   C     C_R   0.607292 0.519186 0.953183 0.257412
C14   C     C_3   0.688882 0.630072 0.966688 -0.501442
C15   C     C_3   0.687014 0.632830 0.125103 -0.487284
C16   C     C_R   0.494752 0.737814 0.498135 0.799659
C17   C     C_R   0.737114 0.499352 0.558105 0.862193
C18   C     C_2   0.128071 0.495841 0.409546 -0.354326
C19   C     C_2   0.067400 0.495057 0.516239 -0.146911
C20   C     C_2   0.871920 0.499041 0.591114 -0.359262
C21   C     C_2   0.932976 0.490303 0.485302 -0.151884
C22   C     C_R   0.486066 0.063728 0.620956 0.129676
Cu1   Cu    Cu3+1 0.499990 0.499980 0.640670 0.943431
Cu2   Cu    Cu3+1 0.500010 0.500020 0.359330 0.950932
H1    H     H_    0.883679 0.480288 0.374418 0.172337
H2    H     H_    0.667726 0.110502 0.750918 0.195797
H3    H     H_    0.313149 0.442445 0.082343 0.138905
H4    H     H_    0.313087 0.442407 0.824333 0.135327
H5    H     H_    0.781580 0.608310 0.945899 0.190924
H6    H     H_    0.642180 0.709857 0.906299 0.216371
H7    H     H_    0.779262 0.614704 0.194921 0.186689
H8    H     H_    0.638231 0.714304 0.156511 0.227546
H9    H     H_    0.116933 0.498874 0.627738 0.173322
H10   H     H_    0.921524 0.507261 0.702233 0.142783
H11   H     H_    0.078168 0.493130 0.298166 0.143204
H12   H     H_    0.435934 0.117634 0.263328 0.167330
H13   H     H_    0.532840 0.891299 0.845894 0.213624
H14   H     H_    0.665434 0.889012 0.751037 0.192874
H15   H     H_    0.536389 0.110937 0.846996 0.203281
N1    N     N_R   0.500780 0.500930 0.148120 -0.181029
N2    N     N_R   0.500790 0.500890 0.852210 -0.184051
O1    O     O_R   0.500000 0.319640 0.618810 -0.580747
O2    O     O_R   0.500010 0.319680 0.381230 -0.587497
O3    O     O_R   0.320680 0.500000 0.575130 -0.589267
O4    O     O_R   0.320690 0.500040 0.337550 -0.590166
O5    O     O_R   0.499990 0.680320 0.618770 -0.573030
O6    O     O_R   0.500000 0.680360 0.381190 -0.570305
O7    O     O_R   0.679310 0.499960 0.662450 -0.585845
O8    O     O_R   0.679320 0.500000 0.424870 -0.581086
C23   C     C_1   0.420435 0.879164 0.221378 0.266190
N3    N     N_1   0.397498 0.832491 0.109681 -0.302376

loop_
_geom_bond_atom_site_label_1
_geom_bond_atom_site_label_2
_ccdc_geom_bond_type
C10   H3    S    
C2    C22   A    
C8    C22   S    
Cu1   Cu2   S    
C15   H7    S    
C6    C7    S    
C12   O4    A    
C8    H15   S    
C8    H2    S    
C18   H11   S    
Cu1   N2    S    
C17   O7    A    
C20   H10   S    
C13   N2    A    
C23   N3    T    
C7    H13   S    
C15   H8    S    
C12   O3    A    
Cu1   O5    S    
C13   C14   S    
Cu1   O1    S    
C3    H12   S    
C14   H6    S    
Cu2   O4    S    
C11   H4    S    
C16   O6    A    
C19   C21   S    
C7    H14   S    
C11   N2    A    
C2    C3    A    
C9    C15   S    
C5    C6    A    
C10   C11   A    
C14   H5    S    
C12   C18   S    
C3    C4    A    
C6    C22   A    
C1    O1    A    
C7    C8    S    
C17   C20   S    
C20   C21   D    
C10   N1    A    
C1    C2    S    
C19   H9    S    
C16   O5    A    
Cu2   O8    S    
Cu2   O2    S    
C9    C13   A    
C14   C15   S    
C18   C19   D    
C5    C16   S    
C21   H1    S    
Cu1   O7    S    
Cu2   N1    S    
Cu2   O6    S    
C1    O2    A    
C9    N1    A    
C17   O8    A    
Cu1   O3    S    
C4    C23   S    
C4    C5    A    
