data_mof_unit_29218.cif
_audit_creation_date              2012-12-10T17:35:35-0500
_audit_creation_method            fapswitch 2.2
_symmetry_space_group_name_H-M    P1
_symmetry_Int_Tables_number       1
_space_group_crystal_system       triclinic
_cell_length_a                    10.757347
_cell_length_b                    12.362046
_cell_length_c                    13.231252
_cell_angle_alpha                 116.896969
_cell_angle_beta                  77.14159
_cell_angle_gamma                 102.125215
_cell_volume                      1517.68277573

loop_
_atom_site_label
_atom_site_type_symbol
_atom_type_description
_atom_site_fract_x
_atom_site_fract_y
_atom_site_fract_z
_atom_type_partial_charge
C1    C     C_R   0.511221 0.854619 0.286484 0.803215
C2    C     C_3   0.120282 0.997015 0.503571 0.097327
C3    C     C_3   0.069750 0.111432 0.607177 -0.396487
C4    C     C_3   0.036362 0.874724 0.502697 0.024811
C5    C     C_R   0.319988 0.273114 0.017310 -0.193217
C6    C     C_R   0.452651 0.227716 0.834061 -0.051162
C7    C     C_R   0.596706 0.814407 0.084944 -0.208250
C8    C     C_R   0.620720 0.735695 0.969772 0.430335
C9    C     C_R   0.572649 0.612444 0.932096 -0.218523
C10   C     C_R   0.494619 0.566085 0.008951 0.015055
C11   C     C_R   0.456934 0.649796 0.122776 0.026853
C12   C     C_R   0.739813 0.000468 0.500355 0.829887
C13   C     C_R   0.451790 0.439621 0.975897 0.070307
C14   C     C_R   0.359011 0.399821 0.051405 0.093590
C15   C     C_R   0.304906 0.486886 0.157431 0.114660
C16   C     C_R   0.356077 0.610514 0.191857 -0.171226
C17   C     C_R   0.500154 0.351045 0.869520 -0.213192
C18   C     C_R   0.365315 0.188307 0.909295 -0.180335
C19   C     C_R   0.518111 0.772395 0.163175 -0.172046
C20   C     C_R   0.694962 0.346379 0.323324 -0.314880
C21   C     C_R   0.331112 0.763642 0.649855 0.034605
C22   C     C_R   0.278212 0.662649 0.671633 -0.283710
C23   C     C_R   0.481230 0.145140 0.713274 0.809454
C24   C     C_R   0.325255 0.549435 0.604899 0.144190
C25   C     C_R   0.443580 0.544930 0.527868 0.011610
C26   C     C_R   0.486809 0.650003 0.502824 0.262074
C27   C     C_R   0.518785 0.442526 0.470703 -0.027862
C28   C     C_R   0.621481 0.443355 0.382534 0.106418
C29   C     C_R   0.654519 0.542769 0.355595 -0.257348
C30   C     C_R   0.591204 0.644624 0.416399 -0.167388
C31   C     C_R   0.503544 0.342132 0.499786 -0.040746
C32   C     C_R   0.669729 0.247925 0.351336 0.582681
C33   C     C_R   0.259570 0.999710 0.501520 0.754835
C34   C     C_3   0.961332 0.009595 0.393453 -0.340162
C35   C     C_3   0.103317 0.003812 0.392688 -0.464285
C36   C     C_3   0.924285 0.108837 0.611849 0.222637
C37   C     C_3   0.894907 0.879886 0.502498 -0.463417
C38   C     C_3   0.877479 0.001145 0.501906 0.027800
Cu1   Cu    Cu3+1 0.529690 0.098270 0.475420 1.006152
Cu2   Cu    Cu3+1 0.470310 0.901730 0.524580 0.924217
H1    H     H_    0.953261 0.096644 0.391217 0.251272
H2    H     H_    0.871573 0.093880 0.687840 0.120265
H3    H     H_    0.089061 0.120609 0.689464 0.143278
H4    H     H_    0.327809 0.092565 0.883021 0.150525
H5    H     H_    0.251822 0.237771 0.072026 0.141114
H6    H     H_    0.574721 0.375215 0.811233 0.173573
H7    H     H_    0.641469 0.908202 0.113251 0.229694
H8    H     H_    0.594770 0.556508 0.841646 0.168128
H9    H     H_    0.927226 0.933392 0.314990 0.175588
H10   H     H_    0.313682 0.677776 0.271262 0.175049
H11   H     H_    0.734045 0.543949 0.289108 0.152335
H12   H     H_    0.773089 0.347558 0.255810 0.173382
H13   H     H_    0.440347 0.340357 0.573598 0.151034
H14   H     H_    0.289678 0.848172 0.699138 0.144510
H15   H     H_    0.193214 0.671224 0.735299 0.155624
H16   H     H_    0.628249 0.718138 0.392819 0.202801
H17   H     H_    0.136707 0.922580 0.315582 0.162298
H18   H     H_    0.163036 0.085179 0.384340 0.200512
H19   H     H_    0.123969 0.194415 0.598910 0.202699
H20   H     H_    0.833458 0.871261 0.578927 0.216045
H21   H     H_    0.860886 0.800358 0.425795 0.157637
H22   H     H_    0.068636 0.801713 0.418064 0.118866
N1    N     N_R   0.574690 0.246280 0.438200 -0.206810
N2    N     N_R   0.426100 0.754320 0.561190 -0.209454
O1    O     O_R   0.537340 0.972510 0.318130 -0.536481
O2    O     O_R   0.487200 0.806530 0.359650 -0.611641
O3    O     O_R   0.707380 0.082980 0.479220 -0.484582
O4    O     O_R   0.657240 0.917000 0.520740 -0.618336
O5    O     O_R   0.512800 0.193470 0.640350 -0.576610
O6    O     O_R   0.462660 0.027490 0.681870 -0.586664
O7    O     O_R   0.342760 0.083000 0.479260 -0.594297
O8    O     O_R   0.292620 0.917020 0.520780 -0.601410
C39   C     C_3   0.045707 0.824088 0.589448 -0.373146
C40   C     C_3   0.037682 0.914899 0.715380 -0.754475
H23   H     H_    0.127893 0.978814 0.731292 0.222009
H24   H     H_    0.953540 0.965459 0.742768 0.263776
H25   H     H_    0.026381 0.864184 0.768617 0.259465
H26   H     H_    0.966797 0.747767 0.582434 0.220999
H27   H     H_    0.133009 0.778881 0.563952 0.216455
C41   C     C_3   0.193263 0.445451 0.231324 -0.386167
C42   C     C_3   0.127201 0.546304 0.334730 -0.888310
H28   H     H_    0.194684 0.602448 0.397425 0.256873
H29   H     H_    0.090492 0.603363 0.305815 0.244726
H30   H     H_    0.043789 0.504959 0.377730 0.259844
H31   H     H_    0.117691 0.387615 0.177222 0.215380
H32   H     H_    0.228587 0.388652 0.261552 0.206428
Cl1   Cl    Cl    0.716453 0.790735 0.872563 -0.641134
Cl2   Cl    Cl    0.766764 0.130012 0.274406 -0.654517
C43   C     C_3   0.230375 0.438384 0.602831 -0.378338
C44   C     C_3   0.195688 0.357588 0.482750 -0.800744
H33   H     H_    0.113587 0.287781 0.485417 0.276710
H34   H     H_    0.165286 0.414194 0.449826 0.264419
H35   H     H_    0.277558 0.310716 0.422937 0.240874
H36   H     H_    0.260489 0.386982 0.640880 0.177718
H37   H     H_    0.138375 0.467623 0.658537 0.241995
Cl3   Cl    Cl    0.890720 0.255467 0.635319 -0.659265

loop_
_geom_bond_atom_site_label_1
_geom_bond_atom_site_label_2
_ccdc_geom_bond_type
C2    C35   S    
C39   C40   S    
C23   O5    A    
C36   H2    S    
C24   C43   S    
C42   H28   S    
C7    C8    A    
C12   O4    A    
C11   C19   A    
C41   H31   S    
Cu2   O6    S    
C35   H18   S    
C28   C29   A    
C37   C38   S    
C16   H10   S    
C20   C32   A    
C21   H14   S    
C15   C16   A    
C32   Cl2   S    
C4    H22   S    
C34   C35   S    
C43   H36   S    
C26   N2    A    
C21   N2    A    
C41   H32   S    
C33   O8    A    
C8    C9    A    
C40   H25   S    
C1    O1    A    
C39   H26   S    
C9    C10   A    
Cu2   O2    S    
C21   C22   A    
Cu1   O1    S    
C23   O6    A    
C34   H1    S    
C42   H29   S    
C4    C39   S    
Cu1   O5    S    
C6    C18   A    
C12   O3    A    
C1    C19   S    
C40   H23   S    
C27   C31   A    
C31   N1    A    
C17   H6    S    
Cu1   Cu2   S    
C5    C18   A    
C20   C28   A    
C25   C26   A    
C5    H5    S    
C31   H13   S    
C7    H7    S    
C43   H37   S    
C2    C4    S    
C29   C30   A    
C18   H4    S    
C11   C16   A    
C36   Cl3   S    
C44   H34   S    
C15   C41   S    
C3    H3    S    
C1    O2    A    
C39   H27   S    
C24   C25   A    
C5    C14   A    
C40   H24   S    
C2    C33   S    
C26   C30   A    
C7    C19   A    
C22   C24   A    
C42   H30   S    
C44   H35   S    
C29   H11   S    
C6    C17   A    
C34   H9    S    
Cu2   O8    S    
C34   C38   S    
Cu1   O3    S    
C32   N1    A    
C41   C42   S    
C10   C13   A    
C37   H21   S    
C22   H15   S    
C25   C27   A    
Cu1   N1    S    
Cu2   N2    S    
C13   C17   A    
C35   H17   S    
C8    Cl1   S    
C36   C38   S    
C2    C3    S    
C20   H12   S    
C44   H33   S    
C30   H16   S    
C3    C36   S    
C6    C23   S    
C12   C38   S    
C37   H20   S    
C10   C11   A    
C33   O7    A    
C4    C37   S    
C9    H8    S    
Cu2   O4    S    
C27   C28   A    
Cu1   O7    S    
C14   C15   A    
C43   C44   S    
C13   C14   A    
C3    H19   S    
