data_mof_unit_46735.cif
_audit_creation_date              2012-10-26T19:03:28-0400
_audit_creation_method            fapswitch 2.2
_symmetry_space_group_name_H-M    P1
_symmetry_Int_Tables_number       1
_space_group_crystal_system       triclinic
_cell_length_a                    10.811569
_cell_length_b                    12.902254
_cell_length_c                    11.797017
_cell_angle_alpha                 98.520227
_cell_angle_beta                  94.228786
_cell_angle_gamma                 93.11577
_cell_volume                      1619.45735244

loop_
_atom_site_label
_atom_site_type_symbol
_atom_type_description
_atom_site_fract_x
_atom_site_fract_y
_atom_site_fract_z
_atom_type_partial_charge
C1    C     C_R   0.492746 0.299687 0.479701 0.563390
C2    C     C_R   0.364905 0.131355 0.421597 0.072547
C3    C     C_R   0.571236 0.135760 0.521251 -0.099145
C4    C     C_R   0.262019 0.506638 0.499960 0.599640
C5    C     C_R   0.557693 0.028277 0.524093 0.023870
C6    C     C_R   0.445420 0.971696 0.476251 0.027469
C7    C     C_R   0.430890 0.864622 0.481241 -0.097352
C8    C     C_R   0.641542 0.867095 0.570584 0.079304
C9    C     C_R   0.655178 0.976843 0.573282 0.269589
C10   C     C_R   0.361156 0.411187 0.031045 0.067451
C11   C     C_R   0.382235 0.419030 0.150609 0.063804
C12   C     C_R   0.067410 0.532393 0.601921 -0.056501
C13   C     C_R   0.555921 0.538889 0.153093 0.427544
C14   C     C_R   0.539264 0.535858 0.031677 0.028743
C15   C     C_R   0.445167 0.466553 0.966836 -0.084528
C16   C     C_R   0.509788 0.700145 0.520064 0.563424
C17   C     C_R   0.442153 0.457310 0.843467 0.199373
C18   C     C_R   0.606322 0.591287 0.853603 0.371527
C19   C     C_R   0.612329 0.604540 0.975477 0.235467
C20   C     C_R   0.735619 0.485666 0.499579 0.587857
C21   C     C_R   0.124179 0.595389 0.702824 0.097758
C22   C     C_R   0.077488 0.588530 0.808638 -0.084283
C23   C     C_R   0.125394 0.510155 0.497940 0.033628
C24   C     C_R   0.974108 0.521461 0.815939 0.078602
C25   C     C_R   0.907043 0.469865 0.713698 0.310912
C26   C     C_R   0.946073 0.489210 0.605808 0.014839
C27   C     C_R   0.051992 0.470722 0.394211 0.249869
C28   C     C_R   0.924189 0.446710 0.396683 0.082870
C29   C     C_R   0.869180 0.466873 0.501247 -0.003066
C30   C     C_R   0.526996 0.813039 0.528275 -0.020157
C31   C     C_R   0.476619 0.186626 0.470751 -0.023879
C32   C     C_R   0.349722 0.022165 0.423030 0.273370
Cu1   Cu    Cu3+1 0.509250 0.507730 0.615930 1.111843
Cu2   Cu    Cu3+1 0.490750 0.492270 0.384070 1.046017
H1    H     H_    0.655490 0.181320 0.558882 0.209578
H2    H     H_    0.799628 0.384194 0.794968 0.354306
H3    H     H_    0.196516 0.000699 0.321313 0.366996
H4    H     H_    0.320239 0.377235 0.198613 0.208562
H5    H     H_    0.121183 0.636594 0.885698 0.170391
H6    H     H_    0.345447 0.819529 0.446165 0.201774
H7    H     H_    0.045757 0.461095 0.227578 0.374229
H8    H     H_    0.810074 0.996222 0.671814 0.367843
H9    H     H_    0.762571 0.670244 0.845299 0.331999
H10   H     H_    0.688309 0.747041 0.997170 0.338896
H11   H     H_    0.637806 0.623393 0.289142 0.371221
I1    I     I_    0.215010 0.215234 0.359489 -0.223050
I2    I     I_    0.323796 0.334848 0.740468 -0.186343
I3    I     I_    0.184401 0.326633 0.982890 -0.209315
I4    I     I_    0.246532 0.728817 0.699287 -0.270365
I5    I     I_    0.918858 0.513504 0.983632 -0.258640
I6    I     I_    0.823205 0.353451 0.249136 -0.169421
I7    I     I_    0.799259 0.781026 0.608644 -0.247675
N1    N     N_R   0.523180 0.519350 0.790130 -0.220516
N2    N     N_R   0.476820 0.480650 0.209890 -0.281046
O1    O     O_R   0.506570 0.354460 0.582000 -0.474851
O2    O     O_3   0.763290 0.035201 0.618663 -0.656618
O3    O     O_3   0.684595 0.648764 0.796027 -0.634646
O4    O     O_3   0.684280 0.687109 0.040747 -0.615625
O5    O     O_3   0.658064 0.596747 0.211179 -0.583524
O6    O     O_3   0.811509 0.394368 0.715082 -0.653372
O7    O     O_3   0.242926 0.962794 0.375642 -0.664019
O8    O     O_R   0.490940 0.341410 0.386200 -0.491127
O9    O     O_R   0.327470 0.506530 0.597920 -0.490644
O10   O     O_R   0.311840 0.493480 0.402120 -0.447927
O11   O     O_R   0.509060 0.658590 0.613800 -0.424569
O12   O     O_R   0.493430 0.645540 0.418000 -0.544096
O13   O     O_R   0.688160 0.506520 0.597880 -0.413668
O14   O     O_R   0.672530 0.493470 0.402080 -0.497709
O15   O     O_3   0.107412 0.454368 0.291788 -0.648825

loop_
_geom_bond_atom_site_label_1
_geom_bond_atom_site_label_2
_ccdc_geom_bond_type
Cu1   O1    S    
C11   H4    S    
C6    C32   A    
C7    H6    S    
C24   I5    S    
H10   O4    S    
C5    C9    A    
C6    C7    A    
C13   O5    S    
C25   O6    S    
C23   C27   A    
C1    C31   S    
C13   N2    A    
C4    O10   A    
C18   O3    S    
H3    O7    S    
C8    C9    A    
C27   O15   S    
C3    H1    S    
C10   C15   A    
C8    C30   A    
C1    O8    A    
Cu2   O12   S    
C21   I4    S    
Cu1   Cu2   S    
C1    O1    A    
Cu1   O11   S    
C9    O2    S    
C21   C22   A    
C2    I1    S    
C3    C31   A    
C12   C23   A    
C11   N2    A    
C22   H5    S    
C12   C21   A    
C4    O9    A    
C28   C29   A    
H2    O6    S    
Cu2   O10   S    
Cu2   N2    S    
C10   I3    S    
C20   C29   S    
C19   O4    S    
Cu1   N1    S    
C5    C6    A    
C28   I6    S    
C22   C24   A    
Cu1   O9    S    
C16   O12   A    
C10   C11   A    
H9    O3    S    
C16   C30   S    
C13   C14   A    
C17   N1    A    
Cu2   O8    S    
C24   C25   A    
Cu1   O13   S    
C26   C29   A    
C2    C32   A    
C18   C19   A    
Cu2   O14   S    
C27   C28   A    
C7    C30   A    
C4    C23   S    
C8    I7    S    
C14   C15   A    
H11   O5    S    
C16   O11   A    
C20   O13   A    
C18   N1    A    
H8    O2    S    
C25   C26   A    
C15   C17   A    
H7    O15   S    
C14   C19   A    
C20   O14   A    
C32   O7    S    
C17   I2    S    
C12   C26   A    
C2    C31   A    
C3    C5    A    
