data_mof_unit_42058.cif
_audit_creation_date              2012-12-11T17:45:22-0500
_audit_creation_method            fapswitch 2.2
_symmetry_space_group_name_H-M    P1
_symmetry_Int_Tables_number       1
_space_group_crystal_system       triclinic
_cell_length_a                    14.995203
_cell_length_b                    15.027764
_cell_length_c                    15.08056
_cell_angle_alpha                 110.184068
_cell_angle_beta                  109.343474
_cell_angle_gamma                 109.282851
_cell_volume                      2602.98906907

loop_
_atom_site_label
_atom_site_type_symbol
_atom_type_description
_atom_site_fract_x
_atom_site_fract_y
_atom_site_fract_z
_atom_type_partial_charge
C1    C     C_R   0.907518 0.193895 0.991356 -0.140808
C2    C     C_R   0.294847 0.873003 0.294162 0.026543
C3    C     C_R   0.326894 0.504068 0.059148 0.198316
C4    C     C_R   0.047943 0.495140 0.321013 0.009175
C5    C     C_R   0.699858 0.408360 0.003686 -0.143073
C6    C     C_R   0.085837 0.591058 0.787512 -0.131128
C7    C     C_R   0.779657 0.250067 0.686516 -0.136561
C8    C     C_R   0.931292 0.746270 0.024426 -0.144225
C9    C     C_R   0.025908 0.749376 0.936460 -0.119421
C10   C     C_R   0.684415 0.241546 0.773831 -0.118718
C11   C     C_R   0.790713 0.590582 0.096326 -0.132053
C12   C     C_R   0.294353 0.805918 0.203802 -0.069489
C13   C     C_R   0.002254 0.408766 0.700190 -0.170675
C14   C     C_R   0.699413 0.499150 0.067920 0.139830
C15   C     C_R   0.055870 0.499398 0.695049 0.105034
C16   C     C_R   0.675079 0.212492 0.670890 0.057644
C17   C     C_R   0.947434 0.774050 0.949471 0.065035
C18   C     C_R   0.681523 0.215346 0.192934 -0.085492
C19   C     C_R   0.780372 0.306431 0.283144 -0.080488
C20   C     C_R   0.878368 0.304444 0.307954 0.116978
C21   C     C_R   0.874913 0.208248 0.244209 -0.230162
C22   C     C_R   0.776756 0.120055 0.151449 -0.113706
C23   C     C_R   0.224093 0.410835 0.980681 -0.136030
C24   C     C_R   0.680325 0.123523 0.125661 -0.125125
C25   C     C_R   0.987506 0.404293 0.503662 -0.249573
C26   C     C_R   0.073059 0.493297 0.604730 0.026673
C27   C     C_R   0.163946 0.573213 0.613744 -0.140738
C28   C     C_R   0.162241 0.563229 0.517060 0.469466
C29   C     C_R   0.066684 0.481900 0.415508 -0.023384
C30   C     C_R   0.981559 0.397079 0.408941 -0.009038
C31   C     C_R   0.271413 0.776061 0.741828 -0.070849
C32   C     C_R   0.340006 0.866575 0.848031 -0.156612
C33   C     C_R   0.389642 0.852858 0.934765 -0.090732
C34   C     C_R   0.057519 0.588500 0.314989 0.534405
C35   C     C_R   0.374109 0.749584 0.914896 -0.133082
C36   C     C_R   0.309151 0.659476 0.808311 -0.159614
C37   C     C_R   0.253657 0.671183 0.721329 0.190134
C38   C     C_R   0.079011 0.971403 0.363141 -0.267024
C39   C     C_R   0.184274 0.020990 0.378854 -0.214314
C40   C     C_R   0.272758 0.035263 0.465356 0.106503
C41   C     C_R   0.256186 0.009312 0.541645 -0.238225
C42   C     C_R   0.150741 0.958811 0.524732 -0.115650
C43   C     C_R   0.061669 0.936556 0.433710 0.530542
C44   C     C_R   0.475781 0.137288 0.559919 -0.223433
C45   C     C_R   0.313907 0.593832 0.069047 -0.116797
C46   C     C_R   0.574264 0.148951 0.564076 0.066443
C47   C     C_R   0.572496 0.093474 0.465350 0.020820
C48   C     C_R   0.474015 0.026204 0.368824 -0.177451
C49   C     C_R   0.377117 0.990634 0.371674 0.039266
C50   C     C_R   0.375781 0.056538 0.464179 0.071225
C51   C     C_R   0.719992 0.128170 0.417181 -0.159821
C52   C     C_R   0.805030 0.112040 0.411788 -0.161453
C53   C     C_R   0.830710 0.043283 0.444099 -0.111348
C54   C     C_R   0.770236 0.988536 0.480431 0.000927
C55   C     C_R   0.687258 0.006629 0.489296 -0.084831
C56   C     C_R   0.984137 0.408333 0.216780 -0.186807
C57   C     C_R   0.662906 0.077990 0.459290 0.081330
C58   C     C_3   0.532950 0.397469 0.078043 0.275914
C59   C     C_3   0.422126 0.392306 0.059404 0.213466
C60   C     C_3   0.638072 0.605154 0.179043 -0.381665
C61   C     C_3   0.534080 0.496506 0.972828 -0.497355
C62   C     C_3   0.604023 0.499223 0.076269 0.103387
C63   C     C_3   0.430632 0.504266 0.075749 0.042961
C64   C     C_3   0.536930 0.596047 0.189954 0.325744
C65   C     C_3   0.444049 0.516998 0.982166 -0.503407
C66   C     C_R   0.074257 0.064766 0.690139 -0.100034
C67   C     C_R   0.206853 0.806555 0.296633 -0.032523
C68   C     C_R   0.999723 0.009323 0.714724 -0.103882
C69   C     C_R   0.037770 0.012193 0.814527 0.061098
C70   C     C_R   0.150360 0.058599 0.882771 -0.090676
C71   C     C_R   0.224271 0.107274 0.854187 -0.100140
C72   C     C_R   0.186584 0.114023 0.760049 -0.180063
C73   C     C_R   0.948809 0.868381 0.844978 -0.205824
C74   C     C_R   0.905150 0.833333 0.903523 0.056407
C75   C     C_R   0.840327 0.874098 0.931833 0.033169
C76   C     C_R   0.838287 0.960679 0.919156 -0.212419
C77   C     C_R   0.910502 0.016994 0.893353 0.056768
C78   C     C_R   0.001940 0.199729 0.905234 -0.099971
C79   C     C_R   0.960543 0.964732 0.847228 0.031437
C80   C     C_R   0.667707 0.755505 0.912621 -0.112374
C81   C     C_R   0.600678 0.737220 0.957274 -0.152291
C82   C     C_R   0.643587 0.798177 0.070110 -0.105459
C83   C     C_R   0.754353 0.876322 0.138702 -0.066025
C84   C     C_R   0.821092 0.897256 0.093891 -0.247307
C85   C     C_R   0.777784 0.836600 0.980607 0.105714
C86   C     C_R   0.941284 0.132828 0.930598 0.069151
H1    H     H_    0.847214 0.163914 0.013247 0.104712
H2    H     H_    0.136135 0.675685 0.814321 0.113182
H3    H     H_    0.805664 0.251301 0.628685 0.123120
H4    H     H_    0.875887 0.750635 0.053435 0.127119
H5    H     H_    0.061417 0.762044 0.887612 0.094348
H6    H     H_    0.619257 0.225972 0.792569 0.091083
H7    H     H_    0.820043 0.675191 0.152461 0.149632
H8    H     H_    0.980880 0.325467 0.648726 0.106531
H9    H     H_    0.604708 0.054748 0.053872 0.117813
H10   H     H_    0.605379 0.214893 0.174877 0.182105
H11   H     H_    0.780651 0.377512 0.335057 0.178546
H12   H     H_    0.339894 0.830896 0.166125 0.083740
H13   H     H_    0.948741 0.203089 0.264692 0.130972
H14   H     H_    0.775048 0.049123 0.098869 0.136038
H15   H     H_    0.917703 0.344071 0.497442 0.138015
H16   H     H_    0.228052 0.786849 0.676584 0.172123
H17   H     H_    0.351491 0.946576 0.863587 0.119050
H18   H     H_    0.438584 0.921712 0.017637 0.106241
H19   H     H_    0.410378 0.738864 0.982515 0.103618
H20   H     H_    0.295532 0.579355 0.794790 0.114000
H21   H     H_    0.204081 0.326394 0.946876 0.139083
H22   H     H_    0.010387 0.954132 0.292663 0.148754
H23   H     H_    0.195417 0.040217 0.319027 0.151343
H24   H     H_    0.322742 0.018267 0.608052 0.151829
H25   H     H_    0.137559 0.929990 0.578312 0.192002
H26   H     H_    0.476363 0.984262 0.296058 0.132472
H27   H     H_    0.700498 0.181520 0.391486 0.132989
H28   H     H_    0.851711 0.152687 0.382984 0.141105
H29   H     H_    0.896848 0.032011 0.439590 0.148823
H30   H     H_    0.786504 0.931025 0.500216 0.158026
H31   H     H_    0.641176 0.964341 0.518266 0.139813
H32   H     H_    0.513454 0.320151 0.010643 0.030099
H33   H     H_    0.360971 0.328546 0.972730 0.050423
H34   H     H_    0.702242 0.619638 0.254652 0.243746
H35   H     H_    0.536568 0.569647 0.250267 0.194272
H36   H     H_    0.584562 0.558782 0.960392 0.210540
H37   H     H_    0.367106 0.458948 0.901667 0.178828
H38   H     H_    0.374590 0.678660 0.111086 0.165063
H39   H     H_    0.463188 0.600551 0.998710 0.199684
H40   H     H_    0.673748 0.677243 0.170609 0.212389
H41   H     H_    0.244297 0.155804 0.740352 0.118391
H42   H     H_    0.045079 0.069501 0.616984 0.129924
H43   H     H_    0.913118 0.971328 0.660943 0.118575
H44   H     H_    0.180658 0.057770 0.958262 0.139784
H45   H     H_    0.987242 0.830258 0.809013 0.131716
H46   H     H_    0.968850 0.326525 0.189947 0.153149
H47   H     H_    0.632771 0.710497 0.824830 0.136785
H48   H     H_    0.515418 0.675714 0.903424 0.131511
H49   H     H_    0.591282 0.785863 0.104654 0.162716
H50   H     H_    0.787418 0.923636 0.225765 0.156692
H51   H     H_    0.905048 0.963555 0.146191 0.124419
H52   H     H_    0.174807 0.831665 0.347893 0.174002
H53   H     H_    0.027106 0.179635 0.846512 0.108179
H54   H     H_    0.645227 0.323491 0.973325 0.099552
N1    N     N_R   0.947080 0.293830 0.002870 -0.037713
N2    N     N_R   0.054040 0.556820 0.847890 -0.041624
N3    N     N_R   0.848290 0.293830 0.791110 -0.045948
N4    N     N_R   0.995680 0.706170 0.053910 -0.046960
N5    N     N_R   0.052920 0.706170 0.997130 -0.048318
N6    N     N_R   0.791050 0.293830 0.847890 -0.042071
N7    N     N_R   0.846330 0.556820 0.053910 -0.048338
N8    N     N_R   0.997640 0.443180 0.791110 -0.039470
N9    N     N_R   0.208950 0.706170 0.152110 -0.046046
N10   N     N_R   0.153670 0.443180 0.946090 -0.054809
N11   N     N_R   0.002360 0.556820 0.208890 -0.088908
N12   N     N_R   0.210070 0.556820 0.002870 -0.059109
N13   N     N_R   0.945960 0.443180 0.152110 -0.063605
N14   N     N_R   0.151710 0.706170 0.208890 -0.053465
N15   N     N_R   0.004320 0.293830 0.946090 -0.039009
N16   N     N_R   0.789930 0.443180 0.997130 -0.043676
Ni1   Ni    Ni4+2 0.869690 0.369690 0.000000 0.230617
Ni2   Ni    Ni4+2 0.130310 0.630310 0.000000 0.211478
Ni3   Ni    Ni4+2 0.000970 0.369690 0.869780 0.211426
Ni4   Ni    Ni4+2 0.999030 0.630310 0.130220 0.262154
Cl1   Cl    Cl    0.280158 0.650142 0.522597 -0.617858
Cl2   Cl    Cl    0.928200 0.855169 0.402205 -0.725650
H55   H     H_    0.475927 0.184719 0.632804 0.118597
Cl3   Cl    Cl    0.091041 0.710744 0.422404 -0.685390
Cl4   Cl    Cl    0.607780 0.404018 0.203218 -0.662814
Cl5   Cl    Cl    0.371811 0.348111 0.138607 -0.603889
H56   H     H_    0.497070 0.415102 0.899273 0.168897
Cl6   Cl    Cl    0.556498 0.730876 0.254947 -0.727613
H57   H     H_    0.310859 0.141686 0.906228 0.125280
H58   H     H_    0.787865 0.990366 0.940956 0.123012

loop_
_geom_bond_atom_site_label_1
_geom_bond_atom_site_label_2
_ccdc_geom_bond_type
C58   C62   S    
N3    N6    A    
C66   C68   A    
C73   H45   S    
C1    H1    S    
C33   H18   S    
C18   H10   S    
C41   C42   A    
C3    C23   A    
C35   C36   A    
C58   H32   S    
N9    N14   A    
C2    C12   A    
C78   H53   S    
C9    H5    S    
C80   C85   A    
C7    N3    A    
C81   C82   A    
C19   H11   S    
C81   H48   S    
N6    Ni1   S    
C20   C30   S    
C53   C54   A    
C26   C27   A    
C51   H27   S    
C67   N14   A    
C18   C24   A    
C28   C29   A    
C34   Cl3   S    
C38   C39   A    
C63   C65   S    
C11   C14   A    
C78   N15   A    
C14   C62   S    
C61   C62   S    
C44   C50   A    
C64   H35   S    
C7    H3    S    
C70   H44   S    
C6    H2    S    
C60   C62   S    
C18   C19   A    
C73   C74   A    
C9    N5    A    
C82   H49   S    
C58   Cl4   S    
C67   H52   S    
C6    C15   A    
C54   C55   A    
C75   C85   S    
C66   C72   A    
C47   C48   A    
C68   C69   A    
C54   H30   S    
C71   H57   S    
C70   C71   A    
C51   C57   A    
C44   H55   S    
N4    Ni4   S    
N9    Ni2   S    
C12   H12   S    
C4    C29   S    
C78   C86   A    
C65   H37   S    
C10   H6    S    
C21   C22   A    
C4    C56   A    
N13   Ni1   S    
C68   H43   S    
N2    Ni2   S    
N7    Ni4   S    
C25   C26   A    
C44   C46   A    
C28   Cl1   S    
C4    C34   A    
C77   C79   A    
C45   H38   S    
N12   Ni2   S    
C22   H14   S    
N10   Ni3   S    
C72   H41   S    
C36   H20   S    
C51   C52   A    
C31   H16   S    
N2    N8    A    
C76   C77   A    
C2    C67   A    
C74   C75   A    
C24   H9    S    
C16   C46   S    
C39   C40   A    
C21   H13   S    
C80   C81   A    
C15   C26   S    
C11   H7    S    
N15   Ni3   S    
C3    C45   A    
C80   H47   S    
C31   C37   A    
C61   H36   S    
C61   H56   S    
N8    Ni3   S    
C65   H39   S    
C75   C76   A    
N14   Ni4   S    
C29   C30   A    
C35   H19   S    
C2    C49   S    
C47   C57   S    
C83   C84   A    
C39   H23   S    
C23   H21   S    
C73   C79   A    
C32   H17   S    
C8    N4    A    
C84   C85   A    
C76   H58   S    
N7    N16   A    
C5    C14   A    
C56   H46   S    
C59   Cl5   S    
C10   N6    A    
N1    Ni1   S    
C48   C49   A    
C48   H26   S    
C23   N10   A    
C77   C86   S    
C49   C50   A    
C52   H28   S    
C41   H24   S    
C55   C57   A    
C7    C16   A    
C17   C74   S    
C22   C24   A    
C69   C79   S    
C6    N2    A    
C42   C43   A    
C52   C53   A    
C5    H54   S    
C55   H31   S    
C9    C17   A    
C25   C30   A    
C46   C47   A    
C36   C37   A    
C59   H33   S    
N16   Ni1   S    
C12   N9    A    
C42   H25   S    
N1    N15   A    
C56   N13   A    
C84   H51   S    
C34   N11   A    
N3    Ni3   S    
C3    C63   S    
C5    N16   A    
C59   C63   S    
C8    C17   A    
C60   C64   S    
C13   H8    S    
N4    N5    A    
C45   N12   A    
N11   Ni4   S    
C19   C20   A    
C13   C15   A    
C58   C59   S    
C38   C43   A    
C64   Cl6   S    
C10   C16   A    
C32   C33   A    
N5    Ni2   S    
C25   H15   S    
C27   C37   S    
C40   C50   S    
C60   H40   S    
C33   C35   A    
C66   H42   S    
C60   H34   S    
N10   N12   A    
N11   N13   A    
C38   H22   S    
C69   C70   A    
C1    N1    A    
C63   C64   S    
C31   C32   A    
C43   Cl2   S    
C61   C65   S    
C1    C86   A    
C8    H4    S    
C20   C21   A    
C82   C83   A    
C27   C28   A    
C40   C41   A    
C11   N7    A    
C13   N8    A    
C71   C72   A    
C53   H29   S    
C83   H50   S    
