data_mof_unit_32998.cif
_audit_creation_date              2012-12-10T19:50:04-0500
_audit_creation_method            fapswitch 2.2
_symmetry_space_group_name_H-M    P1
_symmetry_Int_Tables_number       1
_space_group_crystal_system       triclinic
_cell_length_a                    14.20584
_cell_length_b                    14.975047
_cell_length_c                    15.460719
_cell_angle_alpha                 90.25499
_cell_angle_beta                  69.284773
_cell_angle_gamma                 90.333142
_cell_volume                      3076.31082653

loop_
_atom_site_label
_atom_site_type_symbol
_atom_type_description
_atom_site_fract_x
_atom_site_fract_y
_atom_site_fract_z
_atom_type_partial_charge
C1    C     C_R   0.499619 0.672309 0.501661 0.853571
C2    C     C_R   0.499330 0.327768 0.501307 0.858721
C3    C     C_R   0.418963 0.380957 0.079405 -0.229325
C4    C     C_R   0.633910 0.480622 0.891132 -0.243720
C5    C     C_R   0.352069 0.362834 0.033987 -0.243073
C6    C     C_R   0.702755 0.495213 0.934972 -0.242826
C7    C     C_R   0.401089 0.903575 0.550708 -0.180603
C8    C     C_R   0.552185 0.097768 0.560170 -0.183917
C9    C     C_R   0.403967 0.811780 0.541684 -0.191190
C10   C     C_R   0.556277 0.189604 0.551213 -0.187101
C11   C     C_R   0.496932 0.768129 0.510234 -0.028538
C12   C     C_R   0.496132 0.232096 0.509194 -0.030011
C13   C     C_R   0.586885 0.816248 0.489816 -0.216229
C14   C     C_R   0.431261 0.182992 0.477065 -0.188786
C15   C     C_R   0.584003 0.908169 0.497799 -0.176722
C16   C     C_R   0.428022 0.091174 0.484946 -0.182571
C17   C     C_R   0.491138 0.951955 0.527220 0.117598
C18   C     C_R   0.488871 0.048419 0.526090 0.117167
C19   C     C_R   0.868583 0.528088 0.574194 -0.345143
C20   C     C_R   0.116315 0.434506 0.462071 -0.350911
C21   C     C_R   0.769239 0.528830 0.575083 0.626406
C22   C     C_R   0.215036 0.430754 0.463666 0.636363
C23   C     C_R   0.437863 0.497496 0.675632 0.861450
C24   C     C_R   0.562530 0.499067 0.324274 0.870045
C25   C     C_R   0.824348 0.479452 0.420121 -0.160101
C26   C     C_R   0.194746 0.573575 0.533621 -0.150315
C27   C     C_R   0.926563 0.486168 0.413034 -0.066999
C28   C     C_R   0.096044 0.581109 0.531776 -0.069366
C29   C     C_R   0.949532 0.508851 0.492916 0.028892
C30   C     C_R   0.055661 0.509840 0.494288 0.032429
C31   C     C_R   0.403138 0.475853 0.773775 -0.066379
C32   C     C_R   0.602502 0.492540 0.223663 -0.056621
C33   C     C_R   0.297905 0.388150 0.903421 -0.229281
C34   C     C_R   0.737291 0.513327 0.076524 -0.205984
C35   C     C_R   0.315464 0.425638 0.816465 -0.189168
C36   C     C_R   0.702789 0.515164 0.172778 -0.197964
C37   C     C_R   0.470870 0.489859 0.818953 -0.258126
C38   C     C_R   0.539362 0.462365 0.178344 -0.277174
C39   C     C_R   0.459465 0.446589 0.901499 0.094041
C40   C     C_R   0.573450 0.457008 0.081990 0.097920
C41   C     C_R   0.369380 0.398615 0.946516 0.166901
C42   C     C_R   0.672086 0.487648 0.030767 0.178467
C43   C     C_R   0.534253 0.452923 0.941723 0.062476
C44   C     C_R   0.508526 0.429862 0.035516 0.071098
H1    H     H_    0.284749 0.324055 0.068937 0.150464
H2    H     H_    0.778436 0.516897 0.894422 0.148822
H3    H     H_    0.882175 0.545185 0.636878 0.172560
H4    H     H_    0.085932 0.377602 0.437377 0.170825
H5    H     H_    0.806259 0.462440 0.359729 0.160710
H6    H     H_    0.226070 0.627766 0.561439 0.157215
H7    H     H_    0.461818 0.448212 0.218872 0.140100
H8    H     H_    0.533517 0.534273 0.787760 0.195977
H9    H     H_    0.753269 0.537330 0.207209 0.154868
H10   H     H_    0.262879 0.412701 0.781420 0.159508
H11   H     H_    0.229566 0.349990 0.936271 0.133616
H12   H     H_    0.813614 0.534812 0.038000 0.135999
H13   H     H_    0.401608 0.353119 0.147428 0.136563
H14   H     H_    0.660979 0.488671 0.817040 0.204184
H15   H     H_    0.328906 0.936944 0.574676 0.134364
H16   H     H_    0.598768 0.065208 0.592867 0.129495
H17   H     H_    0.333700 0.775137 0.559552 0.148186
H18   H     H_    0.605549 0.227344 0.577748 0.157390
H19   H     H_    0.659229 0.783142 0.465913 0.145792
H20   H     H_    0.384982 0.215340 0.444214 0.192602
H21   H     H_    0.654178 0.945150 0.478177 0.128797
H22   H     H_    0.380225 0.053481 0.456685 0.133931
N1    N     N_R   0.747530 0.500020 0.500000 -0.135022
N2    N     N_R   0.252470 0.499980 0.500000 -0.133307
O1    O     O_R   0.420530 0.630930 0.499990 -0.627346
O2    O     O_R   0.579470 0.369070 0.500010 -0.622238
O3    O     O_R   0.579480 0.630940 0.499990 -0.631128
O4    O     O_R   0.420520 0.369060 0.500010 -0.566432
O5    O     O_R   0.375120 0.499990 0.632240 -0.623530
O6    O     O_R   0.624880 0.500010 0.367760 -0.628607
O7    O     O_R   0.534080 0.500000 0.632240 -0.563296
O8    O     O_R   0.465920 0.500000 0.367760 -0.611009
Zn1   Zn    Zn3+2 0.393860 0.499990 0.500000 0.968752
Zn2   Zn    Zn3+2 0.606140 0.500010 0.500000 0.958814
O9    O     O_3   0.693719 0.559427 0.652788 -0.635257
C45   C     C_3   0.693466 0.654079 0.653995 0.105725
H23   H     H_    0.618496 0.677068 0.656127 0.175015
H24   H     H_    0.750499 0.686366 0.592425 0.124577
C46   C     C_3   0.709276 0.687562 0.740984 -0.890586
H25   H     H_    0.782456 0.663662 0.742542 0.264267
H26   H     H_    0.709159 0.761702 0.742029 0.223634
H27   H     H_    0.647817 0.663006 0.803407 0.254699
O10   O     O_3   0.270895 0.353700 0.436422 -0.605954
C47   C     C_3   0.294464 0.337247 0.340838 0.071362
H28   H     H_    0.377178 0.328568 0.309645 0.159345
H29   H     H_    0.273931 0.392318 0.302332 0.127895
C48   C     C_3   0.245724 0.250316 0.326085 -0.879904
H30   H     H_    0.162582 0.255693 0.353492 0.249852
H31   H     H_    0.270466 0.235203 0.250974 0.217443
H32   H     H_    0.268300 0.194359 0.361292 0.255605
C49   C     C_R   0.005574 0.478101 0.319784 0.131951
C50   C     C_R   0.079730 0.544852 0.286796 -0.145735
C51   C     C_R   0.145821 0.543663 0.195185 -0.142871
C52   C     C_R   0.138224 0.476368 0.135405 -0.114578
C53   C     C_R   0.067260 0.408035 0.167829 -0.149295
C54   C     C_R   0.001109 0.408745 0.259632 -0.172166
H33   H     H_    0.084678 0.599628 0.330588 0.122375
H34   H     H_    0.201381 0.596187 0.169922 0.134618
H35   H     H_    0.186778 0.477933 0.063758 0.143461
H36   H     H_    0.062278 0.355451 0.121363 0.125479
H37   H     H_    0.945090 0.356309 0.283208 0.125818
C55   C     C_R   0.038616 0.663883 0.569530 0.133293
C56   C     C_R   0.993288 0.713304 0.517721 -0.139053
C57   C     C_R   0.939965 0.791199 0.554156 -0.154511
C58   C     C_R   0.931740 0.820824 0.642293 -0.107020
C59   C     C_R   0.976766 0.772551 0.694230 -0.142138
C60   C     C_R   0.030053 0.694549 0.658137 -0.190325
H38   H     H_    0.998958 0.691987 0.449278 0.117410
H39   H     H_    0.904869 0.828559 0.514033 0.122164
H40   H     H_    0.890216 0.881026 0.670452 0.122872
H41   H     H_    0.970105 0.795411 0.762644 0.131026
H42   H     H_    0.063827 0.657598 0.699676 0.126491

loop_
_geom_bond_atom_site_label_1
_geom_bond_atom_site_label_2
_ccdc_geom_bond_type
C33   H11   S    
O10   C47   S    
C34   H12   S    
O2    Zn2   S    
C56   H38   S    
C47   H29   S    
O1    Zn1   S    
C49   C50   A    
C25   N1    A    
C2    C12   S    
C51   C52   A    
C39   C41   A    
C20   C30   A    
C54   H37   S    
C1    O3    A    
C9    H17   S    
C32   C36   A    
C19   C21   A    
C26   H6    S    
C19   H3    S    
C27   C29   A    
C55   C56   A    
C52   H35   S    
C15   H21   S    
C57   C58   A    
C15   C17   A    
C59   C60   A    
C36   H9    S    
O4    Zn1   S    
C27   C49   S    
C46   H25   S    
C28   C55   S    
C34   C42   A    
C7    C17   A    
C1    C11   S    
C56   C57   A    
C60   H42   S    
C14   C16   A    
C32   C38   A    
C51   H34   S    
C40   C42   A    
C53   H36   S    
C50   H33   S    
C21   N1    A    
C35   H10   S    
C10   H18   S    
N1    Zn2   S    
C23   O5    A    
C45   C46   S    
C2    O4    A    
C7    H15   S    
C25   H5    S    
C55   C60   A    
C3    C44   A    
O8    Zn1   S    
C45   H24   S    
C48   H30   S    
C37   H8    S    
C49   C54   A    
C24   O8    A    
C39   C43   A    
C38   H7    S    
C5    H1    S    
C8    C18   A    
C31   C37   A    
C23   C31   S    
C57   H39   S    
C43   C44   A    
C24   C32   S    
C29   C30   S    
C48   H31   S    
C53   C54   A    
C13   H19   S    
C47   C48   S    
C14   H20   S    
C50   C51   A    
C21   O9    S    
C17   C18   S    
C22   O10   S    
C9    C11   A    
C22   N2    A    
C20   H4    S    
C10   C12   A    
C58   H40   S    
C3    H13   S    
C4    C6    A    
C46   H26   S    
C12   C14   A    
C13   C15   A    
O6    Zn2   S    
C31   C35   A    
C16   H22   S    
C20   C22   A    
C19   C29   A    
N2    Zn1   S    
C7    C9    A    
C5    C41   A    
C6    H2    S    
C8    C10   A    
C23   O7    A    
C45   H23   S    
C3    C5    A    
C4    C43   A    
C25   C27   A    
C26   C28   A    
C26   N2    A    
C28   C30   A    
C33   C41   A    
C37   C39   A    
C58   C59   A    
C8    H16   S    
C48   H32   S    
C38   C40   A    
C11   C13   A    
C24   O6    A    
C33   C35   A    
C34   C36   A    
O7    Zn2   S    
C1    O1    A    
O9    C45   S    
C40   C44   A    
C46   H27   S    
C47   H28   S    
C16   C18   A    
C52   C53   A    
C6    C42   A    
C4    H14   S    
O5    Zn1   S    
C2    O2    A    
C59   H41   S    
O3    Zn2   S    
