data_mof_unit_64852.cif
_audit_creation_date              2012-12-10T18:00:58-0500
_audit_creation_method            fapswitch 2.2
_symmetry_space_group_name_H-M    P1
_symmetry_Int_Tables_number       1
_space_group_crystal_system       triclinic
_cell_length_a                    30.897768
_cell_length_b                    30.609307
_cell_length_c                    24.831373
_cell_angle_alpha                 89.999184
_cell_angle_beta                  128.531544
_cell_angle_gamma                 89.999751
_cell_volume                      18371.1106521

loop_
_atom_site_label
_atom_site_type_symbol
_atom_type_description
_atom_site_fract_x
_atom_site_fract_y
_atom_site_fract_z
_atom_type_partial_charge
C1    C     C_R   0.809361 0.809576 0.500418 0.761954
C2    C     C_R   0.190633 0.809615 0.499669 0.764605
C3    C     C_R   0.309359 0.309607 0.500342 0.766468
C4    C     C_R   0.690638 0.309586 0.499598 0.767029
C5    C     C_R   0.646033 0.750478 0.291335 -0.022682
C6    C     C_R   0.354001 0.750457 0.708661 -0.020430
C7    C     C_R   0.145998 0.250454 0.291337 -0.020740
C8    C     C_R   0.853984 0.250460 0.708657 -0.019452
C9    C     C_R   0.464993 0.750652 0.930044 0.416135
C10   C     C_R   0.535085 0.750665 0.069950 0.416353
C11   C     C_R   0.964940 0.250637 0.930042 0.416667
C12   C     C_R   0.035016 0.250634 0.069949 0.416767
C13   C     C_R   0.851032 0.842043 0.451416 0.064414
C14   C     C_R   0.140642 0.838234 0.540208 0.067328
C15   C     C_R   0.357428 0.339036 0.457700 0.067791
C16   C     C_R   0.647062 0.341088 0.546808 0.065027
C17   C     C_R   0.840740 0.843847 0.498588 -0.057022
C18   C     C_R   0.159402 0.843883 0.502108 -0.066531
C19   C     C_R   0.340599 0.343887 0.498016 -0.066693
C20   C     C_R   0.659312 0.343865 0.501584 -0.061189
C21   C     C_R   0.857755 0.880911 0.540810 -0.174333
C22   C     C_R   0.150349 0.884280 0.469492 -0.169185
C23   C     C_R   0.351466 0.383595 0.532957 -0.169036
C24   C     C_R   0.644134 0.381769 0.461444 -0.168782
C25   C     C_R   0.890946 0.912549 0.541698 -0.180219
C26   C     C_R   0.117061 0.915976 0.468284 -0.183368
C27   C     C_R   0.384756 0.415267 0.534120 -0.182567
C28   C     C_R   0.610901 0.413411 0.460463 -0.178691
C29   C     C_R   0.905716 0.907958 0.498725 -0.088978
C30   C     C_R   0.094042 0.907911 0.501356 -0.085438
C31   C     C_R   0.405902 0.407916 0.498659 -0.086757
C32   C     C_R   0.594223 0.407939 0.501289 -0.088808
C33   C     C_R   0.882546 0.873889 0.450773 0.088172
C34   C     C_R   0.109009 0.870025 0.540698 0.089824
C35   C     C_R   0.389060 0.370833 0.457206 0.090932
C36   C     C_R   0.615493 0.372912 0.547388 0.089383
C37   C     C_3   0.910987 0.840542 0.438431 -0.236035
C38   C     C_3   0.072207 0.836457 0.537399 -0.246571
C39   C     C_3   0.424122 0.337167 0.457069 -0.247661
C40   C     C_3   0.584930 0.339353 0.555950 -0.238866
C41   C     C_3   0.875100 0.805859 0.437536 -0.464979
C42   C     C_3   0.107961 0.801613 0.538378 -0.451568
C43   C     C_3   0.388267 0.302373 0.455972 -0.455420
C44   C     C_3   0.620868 0.304655 0.557013 -0.462585
C45   C     C_R   0.683922 0.750254 0.367413 0.815266
C46   C     C_R   0.316087 0.750245 0.632586 0.815084
C47   C     C_R   0.183912 0.250245 0.367414 0.818107
C48   C     C_R   0.816080 0.250249 0.632584 0.817599
C49   C     C_R   0.833456 0.754063 0.747557 0.352412
C50   C     C_R   0.164896 0.755204 0.251764 0.348387
C51   C     C_R   0.333705 0.254673 0.747750 0.429620
C52   C     C_R   0.664721 0.255880 0.251624 0.422776
C53   C     C_R   0.871557 0.752469 0.819558 -0.263026
C54   C     C_R   0.126030 0.755020 0.179816 -0.257078
C55   C     C_R   0.371884 0.253081 0.819734 -0.249396
C56   C     C_R   0.625800 0.255658 0.179698 -0.241234
C57   C     C_R   0.927867 0.744807 0.853969 -0.131636
C58   C     C_R   0.069398 0.748507 0.145672 -0.132787
C59   C     C_R   0.428054 0.244955 0.853995 -0.144517
C60   C     C_R   0.569306 0.248462 0.145615 -0.129846
C61   C     C_R   0.946721 0.737587 0.815541 0.450245
C62   C     C_R   0.051096 0.742825 0.185264 0.447150
C63   C     C_R   0.446756 0.237348 0.815501 0.452244
C64   C     C_R   0.551143 0.242111 0.185253 0.411897
C65   C     C_R   0.908834 0.739151 0.743565 -0.249956
C66   C     C_R   0.090071 0.742210 0.257225 -0.250239
C67   C     C_R   0.408799 0.238858 0.743526 -0.258203
C68   C     C_R   0.590183 0.241612 0.257220 -0.280769
C69   C     C_R   0.852439 0.747717 0.708740 -0.202192
C70   C     C_R   0.146652 0.748762 0.291262 -0.201207
C71   C     C_R   0.352484 0.247789 0.708785 -0.216631
C72   C     C_R   0.646662 0.248772 0.291214 -0.195722
C73   C     C_R   0.031698 0.747803 0.069334 0.478306
C74   C     C_R   0.965388 0.745002 0.929751 0.482263
C75   C     C_R   0.531647 0.247803 0.069276 0.474423
C76   C     C_R   0.465574 0.245034 0.929729 0.487100
C77   C     C_R   0.677167 0.631717 0.554488 0.010329
C78   C     C_R   0.322550 0.631106 0.446139 0.011780
C79   C     C_R   0.177413 0.131207 0.553969 0.004793
C80   C     C_R   0.822394 0.130773 0.446469 0.004793
C81   C     C_R   0.656653 0.657440 0.497142 -0.177065
C82   C     C_R   0.343452 0.657453 0.503001 -0.177338
C83   C     C_R   0.156559 0.157455 0.497018 -0.189041
C84   C     C_R   0.843501 0.157458 0.503063 -0.190076
C85   C     C_R   0.601203 0.650297 0.437388 0.413587
C86   C     C_R   0.399315 0.650970 0.562204 0.413486
C87   C     C_R   0.100747 0.150888 0.437749 0.411239
C88   C     C_R   0.899583 0.151341 0.561941 0.411230
C89   C     C_R   0.690834 0.690635 0.499868 0.904995
C90   C     C_R   0.309238 0.690635 0.500263 0.904611
C91   C     C_R   0.190755 0.190634 0.499717 0.915698
C92   C     C_R   0.809284 0.190633 0.500352 0.915485
C93   C     C_R   0.569212 0.618106 0.438849 -0.237831
C94   C     C_R   0.431267 0.618775 0.560666 -0.237865
C95   C     C_R   0.068793 0.118695 0.439281 -0.244063
C96   C     C_R   0.931515 0.119146 0.560366 -0.244008
C97   C     C_R   0.591571 0.593305 0.498883 -0.127194
C98   C     C_R   0.408473 0.593335 0.501103 -0.126714
C99   C     C_R   0.091532 0.093342 0.498909 -0.127822
C100  C     C_R   0.908496 0.093358 0.501081 -0.126900
C101  C     C_R   0.645729 0.601729 0.555577 0.045541
C102  C     C_R   0.353944 0.601134 0.444934 0.044526
C103  C     C_R   0.146009 0.101238 0.555161 0.040900
C104  C     C_R   0.853776 0.100819 0.445206 0.040626
C105  C     C_3   0.690643 0.587545 0.627401 -0.436727
C106  C     C_3   0.308508 0.586052 0.373871 -0.438882
C107  C     C_3   0.191370 0.086282 0.626339 -0.442566
C108  C     C_3   0.808099 0.085253 0.374570 -0.444135
C109  C     C_3   0.726810 0.621996 0.626834 0.272929
C110  C     C_3   0.272385 0.620499 0.374539 0.275217
C111  C     C_3   0.227509 0.120720 0.625689 0.277316
C112  C     C_3   0.771977 0.119682 0.375270 0.279963
C113  C     C_R   0.440665 0.559633 0.500044 0.824978
C114  C     C_R   0.559337 0.559636 0.499953 0.825614
C115  C     C_R   0.940669 0.059635 0.500040 0.824420
C116  C     C_R   0.059335 0.059636 0.499958 0.823562
C117  C     C_R   0.940684 0.940199 0.499869 0.832675
C118  C     C_R   0.059295 0.940269 0.500124 0.828290
C119  C     C_R   0.440704 0.440248 0.499876 0.828441
C120  C     C_R   0.559306 0.440210 0.500128 0.831055
C121  C     C_R   0.815290 0.749068 0.632564 0.847350
C122  C     C_R   0.184564 0.749218 0.367438 0.851531
C123  C     C_R   0.315270 0.249053 0.632578 0.868094
C124  C     C_R   0.684594 0.249194 0.367421 0.869590
C125  C     C_R   0.610498 0.786051 0.254780 -0.187047
C126  C     C_R   0.389429 0.786083 0.745203 -0.185735
C127  C     C_R   0.110511 0.286050 0.254784 -0.185610
C128  C     C_R   0.889366 0.286105 0.745210 -0.184285
C129  C     C_R   0.574868 0.786337 0.182820 -0.121200
C130  C     C_R   0.425075 0.786367 0.817162 -0.121440
C131  C     C_R   0.074866 0.286330 0.182824 -0.121152
C132  C     C_R   0.925000 0.286384 0.817170 -0.120553
C133  C     C_R   0.573240 0.750641 0.146036 0.044700
C134  C     C_R   0.426835 0.750616 0.853958 0.044685
C135  C     C_R   0.073170 0.250603 0.146037 0.044884
C136  C     C_R   0.926791 0.250610 0.853954 0.045212
C137  C     C_R   0.608384 0.714885 0.182595 -0.127047
C138  C     C_R   0.391815 0.714799 0.817411 -0.127788
C139  C     C_R   0.108252 0.214816 0.182596 -0.127525
C140  C     C_R   0.891814 0.214774 0.817392 -0.128198
C141  C     C_R   0.644873 0.715023 0.254529 -0.093489
C142  C     C_R   0.355305 0.714935 0.745475 -0.094669
C143  C     C_R   0.144756 0.214958 0.254532 -0.094862
C144  C     C_R   0.855321 0.214914 0.745456 -0.096471
Cu1   Cu    Cu3+1 0.780910 0.719090 0.500000 1.070804
Cu2   Cu    Cu3+1 0.219090 0.719090 0.500000 1.068752
Cu3   Cu    Cu3+1 0.280910 0.219090 0.500000 1.069174
Cu4   Cu    Cu3+1 0.719090 0.219090 0.500000 1.062402
Cu5   Cu    Cu3+1 0.719070 0.780890 0.500010 1.116346
Cu6   Cu    Cu3+1 0.280930 0.780890 0.499990 1.113751
Cu7   Cu    Cu3+1 0.219070 0.280890 0.500010 1.093431
Cu8   Cu    Cu3+1 0.780930 0.280890 0.499990 1.093946
Cu9   Cu    Cu3+1 0.465760 0.500000 0.431570 1.037193
Cu10  Cu    Cu3+1 0.534240 0.500000 0.568430 1.036698
Cu11  Cu    Cu3+1 0.965760 0.000000 0.431570 1.033770
Cu12  Cu    Cu3+1 0.034240 0.000000 0.568430 1.032385
H1    H     H_    0.610609 0.813874 0.281806 0.165647
H2    H     H_    0.389210 0.813953 0.718166 0.164859
H3    H     H_    0.110680 0.313901 0.281812 0.165012
H4    H     H_    0.889121 0.313993 0.718181 0.164519
H5    H     H_    0.899463 0.782512 0.481222 0.215412
H6    H     H_    0.085237 0.782569 0.489691 0.212960
H7    H     H_    0.411431 0.282286 0.503666 0.212703
H8    H     H_    0.596824 0.282245 0.512015 0.213738
H9    H     H_    0.857506 0.757931 0.849545 0.216057
H10   H     H_    0.140179 0.759507 0.149779 0.222329
H11   H     H_    0.358021 0.258857 0.849862 0.220410
H12   H     H_    0.639815 0.260636 0.149601 0.224362
H13   H     H_    0.923535 0.734136 0.714228 0.218579
H14   H     H_    0.076019 0.737787 0.287384 0.219105
H15   H     H_    0.423392 0.233512 0.714133 0.220280
H16   H     H_    0.576278 0.236791 0.287454 0.194749
H17   H     H_    0.527068 0.612346 0.393261 0.211435
H18   H     H_    0.473719 0.613493 0.605834 0.210941
H19   H     H_    0.026383 0.113348 0.394055 0.210623
H20   H     H_    0.974128 0.114127 0.605293 0.210284
H21   H     H_    0.681350 0.595818 0.662826 0.193227
H22   H     H_    0.316777 0.593879 0.337326 0.193503
H23   H     H_    0.182952 0.094181 0.662721 0.189817
H24   H     H_    0.815842 0.092849 0.337461 0.189179
H25   H     H_    0.702956 0.553038 0.629729 0.237253
H26   H     H_    0.296907 0.551522 0.372990 0.236769
H27   H     H_    0.203068 0.051751 0.627431 0.238352
H28   H     H_    0.796898 0.050713 0.374454 0.238658
H29   H     H_    0.739494 0.649451 0.663102 0.141365
H30   H     H_    0.258737 0.647511 0.337281 0.140865
H31   H     H_    0.241054 0.147777 0.662853 0.143378
H32   H     H_    0.757783 0.146422 0.337439 0.142388
H33   H     H_    0.548043 0.814244 0.155950 0.166634
H34   H     H_    0.451808 0.814320 0.844021 0.166615
H35   H     H_    0.048086 0.314260 0.155958 0.166791
H36   H     H_    0.951699 0.314352 0.844038 0.166827
H37   H     H_    0.608170 0.687013 0.155565 0.164467
H38   H     H_    0.392138 0.686880 0.844451 0.164256
H39   H     H_    0.107981 0.186917 0.155566 0.163665
H40   H     H_    0.892161 0.186836 0.844420 0.163107
H41   H     H_    0.671642 0.687080 0.281350 0.170939
H42   H     H_    0.328635 0.686945 0.718657 0.170078
H43   H     H_    0.171473 0.186991 0.281355 0.169487
H44   H     H_    0.828689 0.186907 0.718628 0.168686
H45   H     H_    0.847858 0.884210 0.575492 0.163176
H46   H     H_    0.166541 0.890429 0.442081 0.169695
H47   H     H_    0.336708 0.389146 0.562135 0.171354
H48   H     H_    0.655484 0.385780 0.428329 0.168569
H49   H     H_    0.905785 0.940049 0.576554 0.166015
H50   H     H_    0.108505 0.946272 0.440688 0.162302
H51   H     H_    0.394750 0.444979 0.563485 0.163989
H52   H     H_    0.597507 0.441612 0.427172 0.166319
H53   H     H_    0.955289 0.837203 0.483381 0.133300
H54   H     H_    0.029688 0.837819 0.487704 0.136961
H55   H     H_    0.467115 0.337421 0.505969 0.136054
H56   H     H_    0.540966 0.337062 0.509587 0.134043
H57   H     H_    0.843248 0.790345 0.386864 0.232027
H58   H     H_    0.133636 0.781518 0.585932 0.232259
H59   H     H_    0.361141 0.283323 0.407489 0.232669
H60   H     H_    0.651330 0.288079 0.607188 0.231997
N1    N     N_R   0.517388 0.712500 0.034292 -0.209097
N2    N     N_R   0.482825 0.712493 0.965721 -0.209066
N3    N     N_R   0.017309 0.212473 0.034280 -0.210508
N4    N     N_R   0.982754 0.212474 0.965709 -0.210480
N5    N     N_R   0.482895 0.788823 0.965697 -0.216938
N6    N     N_R   0.517047 0.788829 0.034279 -0.216664
N7    N     N_R   0.982851 0.288804 0.965705 -0.216008
N8    N     N_R   0.016996 0.288802 0.034287 -0.215915
N9    N     N_R   0.009900 0.771944 0.965614 -0.148096
N10   N     N_R   0.987389 0.720596 0.033248 -0.115390
N11   N     N_R   0.509838 0.272208 0.965652 -0.143095
N12   N     N_R   0.487600 0.220354 0.033110 -0.117017
N13   N     N_R   0.042531 0.773184 0.034081 -0.207185
N14   N     N_R   0.954516 0.719523 0.964755 -0.173937
N15   N     N_R   0.542352 0.273434 0.034108 -0.200534
N16   N     N_R   0.454826 0.219303 0.964628 -0.174632
O1    O     O_R   0.821190 0.768980 0.500000 -0.592253
O2    O     O_R   0.178810 0.768980 0.500000 -0.592341
O3    O     O_R   0.321190 0.268980 0.500000 -0.592781
O4    O     O_R   0.678810 0.268980 0.500000 -0.593686
O5    O     O_R   0.483700 0.545120 0.557760 -0.590295
O6    O     O_R   0.516300 0.545120 0.442240 -0.590613
O7    O     O_R   0.983700 0.045120 0.557760 -0.590681
O8    O     O_R   0.016300 0.045120 0.442240 -0.590359
O9    O     O_R   0.925990 0.954920 0.442210 -0.553381
O10   O     O_R   0.074010 0.954920 0.557790 -0.554199
O11   O     O_R   0.425990 0.454920 0.442210 -0.553981
O12   O     O_R   0.574010 0.454920 0.557790 -0.553648
O13   O     O_R   0.983760 0.954940 0.557800 -0.560079
O14   O     O_R   0.016240 0.954940 0.442200 -0.558406
O15   O     O_R   0.483760 0.454940 0.557800 -0.558583
O16   O     O_R   0.516240 0.454940 0.442200 -0.558805
O17   O     O_R   0.768960 0.821170 0.500020 -0.589533
O18   O     O_R   0.231040 0.821170 0.499980 -0.592523
O19   O     O_R   0.268960 0.321170 0.500020 -0.589771
O20   O     O_R   0.731040 0.321170 0.499980 -0.588405
O21   O     O_R   0.726180 0.723900 0.400140 -0.588309
O22   O     O_R   0.273820 0.723900 0.599860 -0.588489
O23   O     O_R   0.226180 0.223900 0.400140 -0.588467
O24   O     O_R   0.773820 0.223900 0.599860 -0.589264
O25   O     O_R   0.673950 0.776090 0.400160 -0.577048
O26   O     O_R   0.326050 0.776090 0.599840 -0.577769
O27   O     O_R   0.173950 0.276090 0.400160 -0.576987
O28   O     O_R   0.826050 0.276090 0.599840 -0.577051
O29   O     O_R   0.731010 0.678810 0.499990 -0.539707
O30   O     O_R   0.268990 0.678810 0.500010 -0.539458
O31   O     O_R   0.231010 0.178810 0.499990 -0.535717
O32   O     O_R   0.768990 0.178810 0.500010 -0.534921
O33   O     O_R   0.678790 0.731000 0.500010 -0.513204
O34   O     O_R   0.321210 0.731000 0.499990 -0.512967
O35   O     O_R   0.178790 0.231000 0.500010 -0.531802
O36   O     O_R   0.821210 0.231000 0.499990 -0.531782
O37   O     O_R   0.826030 0.723890 0.599860 -0.558712
O38   O     O_R   0.173970 0.723890 0.400140 -0.560816
O39   O     O_R   0.326030 0.223890 0.599860 -0.560719
O40   O     O_R   0.673970 0.223890 0.400140 -0.564797
O41   O     O_R   0.773800 0.776080 0.599870 -0.521824
O42   O     O_R   0.226200 0.776080 0.400130 -0.522030
O43   O     O_R   0.273800 0.276080 0.599870 -0.523156
O44   O     O_R   0.726200 0.276080 0.400130 -0.524042
O45   O     O_R   0.425940 0.545090 0.442170 -0.583649
O46   O     O_R   0.574060 0.545090 0.557830 -0.583799
O47   O     O_R   0.925940 0.045090 0.442170 -0.584355
O48   O     O_R   0.074060 0.045090 0.557830 -0.584699
S1    S     S_3+6 0.763012 0.763729 0.709341 0.049136
O49   O     O_2   0.726308 0.732903 0.650290 -0.283328
O50   O     O_2   0.753112 0.757403 0.760935 -0.246535
O51   O     O_3   0.746326 0.815300 0.679707 -0.468838
H61   H     H_    0.772685 0.833812 0.720444 0.344297
S2    S     S_3+6 0.235518 0.762801 0.289177 0.049830
O52   O     O_2   0.271229 0.731163 0.347320 -0.285726
O53   O     O_2   0.244376 0.755873 0.236722 -0.246264
O54   O     O_3   0.254676 0.813973 0.320063 -0.467223
H62   H     H_    0.228738 0.833085 0.279984 0.345523
S3    S     S_3+6 0.263426 0.264731 0.709805 0.035320
O55   O     O_2   0.254037 0.258537 0.761899 -0.252529
O56   O     O_2   0.249230 0.310985 0.683903 -0.246010
O57   O     O_3   0.222000 0.230341 0.643746 -0.578331
H63   H     H_    0.183934 0.238379 0.625193 0.383875
S4    S     S_3+6 0.735160 0.264157 0.288809 0.034545
O58   O     O_2   0.743625 0.257328 0.235974 -0.254257
O59   O     O_2   0.751213 0.310169 0.315481 -0.244319
O60   O     O_3   0.775714 0.229087 0.354146 -0.580255
H64   H     H_    0.813953 0.236347 0.372582 0.383278
S5    S     S_3+6 0.016704 0.725269 0.855188 0.049851
O61   O     O_2   0.050060 0.766663 0.883291 -0.250502
O62   O     O_2   0.038868 0.693390 0.913059 -0.245207
O63   O     O_3   0.022132 0.703406 0.797467 -0.511867
H65   H     H_    0.062281 0.698573 0.823240 0.393351
S6    S     S_3+6 0.980228 0.739314 0.148195 0.045448
O64   O     O_2   0.947302 0.772329 0.091327 -0.263578
O65   O     O_2   0.959377 0.694173 0.119565 -0.224727
O66   O     O_3   0.972070 0.749048 0.208080 -0.529037
H66   H     H_    0.931862 0.745785 0.183506 0.394535
S7    S     S_3+6 0.516643 0.224675 0.855128 0.050823
O67   O     O_2   0.550320 0.265908 0.883463 -0.246128
O68   O     O_2   0.538517 0.192730 0.912844 -0.247372
O69   O     O_3   0.521953 0.202731 0.797350 -0.513929
H67   H     H_    0.562069 0.197704 0.823133 0.392687
S8    S     S_3+6 0.480311 0.237686 0.148165 0.065424
O70   O     O_2   0.446902 0.270882 0.091744 -0.216520
O71   O     O_2   0.459671 0.192723 0.118351 -0.238391
O72   O     O_3   0.471460 0.246457 0.207672 -0.492733
H68   H     H_    0.477084 0.217617 0.229294 0.361346
S9    S     S_3+6 0.572175 0.678599 0.359535 0.020960
O73   O     O_2   0.607456 0.670499 0.338099 -0.325418
O74   O     O_2   0.514324 0.662934 0.303662 -0.253610
O75   O     O_3   0.570574 0.732439 0.371534 -0.500280
H69   H     H_    0.558072 0.746228 0.327863 0.375029
S10   S     S_3+6 0.428936 0.679990 0.639656 0.021888
O76   O     O_2   0.394495 0.672167 0.662376 -0.326451
O77   O     O_2   0.487093 0.664759 0.695149 -0.252753
O78   O     O_3   0.429856 0.733710 0.626335 -0.498573
H70   H     H_    0.442083 0.747932 0.669615 0.375201
S11   S     S_3+6 0.071193 0.179825 0.360247 0.016934
O79   O     O_2   0.105733 0.171970 0.337676 -0.324456
O80   O     O_2   0.013071 0.164544 0.304708 -0.256033
O81   O     O_3   0.070191 0.233558 0.373415 -0.507194
H71   H     H_    0.057983 0.247736 0.330114 0.375699
S12   S     S_3+6 0.929528 0.180776 0.639141 0.018099
O82   O     O_2   0.895524 0.173173 0.662538 -0.324798
O83   O     O_2   0.987829 0.165753 0.694442 -0.254646
O84   O     O_3   0.930129 0.234411 0.625069 -0.505980
H72   H     H_    0.942155 0.248895 0.668093 0.376019
S13   S     S_3+6 0.782259 0.598431 0.631980 0.037335
O85   O     O_2   0.816415 0.634220 0.633834 -0.259996
O86   O     O_2   0.817980 0.571699 0.696658 -0.241770
O87   O     O_3   0.756644 0.566245 0.563208 -0.515736
H73   H     H_    0.789519 0.555327 0.569047 0.383338
S14   S     S_3+6 0.218086 0.596887 0.371796 0.036019
O88   O     O_2   0.183425 0.632664 0.368911 -0.261183
O89   O     O_2   0.182479 0.568866 0.308580 -0.243882
O90   O     O_3   0.245206 0.566114 0.442347 -0.516377
H74   H     H_    0.212916 0.555329 0.437966 0.382677
S15   S     S_3+6 0.281976 0.097099 0.628793 0.039029
O91   O     O_2   0.316493 0.132870 0.631358 -0.257795
O92   O     O_2   0.317671 0.069354 0.692324 -0.244074
O93   O     O_3   0.255078 0.066014 0.558598 -0.516608
H75   H     H_    0.287460 0.055116 0.563278 0.381816
S16   S     S_3+6 0.718286 0.096031 0.373750 0.036411
O94   O     O_2   0.683513 0.131776 0.370704 -0.263205
O95   O     O_2   0.682610 0.067548 0.311108 -0.247348
O96   O     O_3   0.746170 0.065774 0.444972 -0.514818
H76   H     H_    0.714174 0.054869 0.441157 0.381262
C145  C     C_2   0.901210 0.847732 0.371500 0.893468
O97   O     O_2   0.873453 0.822042 0.323650 -0.562876
O98   O     O_R   0.925782 0.883611 0.365347 -0.744188
H77   H     H_    0.917122 0.885062 0.318728 0.343819
C146  C     C_2   0.074123 0.837788 0.599576 0.882104
O99   O     O_2   0.090446 0.806297 0.638053 -0.560746
O100  O     O_R   0.055241 0.875052 0.611678 -0.751778
H78   H     H_    0.057485 0.872179 0.654030 0.344936
C147  C     C_2   0.420528 0.339784 0.393724 0.886602
O101  O     O_2   0.401577 0.309474 0.352768 -0.555534
O102  O     O_R   0.440839 0.376847 0.383300 -0.749243
H79   H     H_    0.437195 0.374908 0.339876 0.348293
C148  C     C_2   0.592745 0.345122 0.621864 0.890134
O103  O     O_2   0.617864 0.317941 0.667903 -0.561103
O104  O     O_R   0.569349 0.381431 0.629050 -0.745881
H80   H     H_    0.576447 0.381823 0.674785 0.344804

loop_
_geom_bond_atom_site_label_1
_geom_bond_atom_site_label_2
_ccdc_geom_bond_type
C9    N2    A    
C99   C103  A    
Cu2   O2    S    
C37   C145  S    
C55   C59   A    
Cu4   O40   S    
C77   C101  A    
S3    O55   D    
Cu5   O33   S    
C136  C140  A    
S5    O61   D    
S1    O51   S    
C133  C137  A    
Cu10  O5    S    
O51   H61   S    
C74   N9    A    
Cu1   O1    S    
Cu12  O13   S    
C122  O42   A    
C95   C99   A    
C29   C33   A    
C100  C104  A    
C61   S5    S    
C95   H19   S    
C3    O3    A    
Cu2   Cu6   S    
N7    N8    A    
C1    O1    A    
O75   H69   S    
C12   C135  S    
C3    C19   S    
S10   O76   D    
C16   C44   S    
C104  C108  S    
C49   C69   A    
Cu2   O22   S    
C26   H50   S    
C100  C115  S    
C51   C71   A    
C91   O35   A    
C139  H39   S    
C137  H37   S    
C25   C29   A    
C108  H28   S    
C27   C31   A    
C21   H45   S    
C28   C32   A    
C4    O20   A    
Cu8   O44   S    
C113  O45   A    
C11   N7    A    
C99   C116  S    
C62   C66   A    
C109  H29   S    
O69   H67   S    
C98   C102  A    
S16   O96   S    
C17   C21   A    
S8    O70   D    
C135  C139  A    
C51   S3    S    
C52   C72   A    
C41   H57   S    
C78   C82   A    
C144  H44   S    
C36   C40   S    
C68   C72   A    
C80   C112  S    
S10   O78   S    
S6    O64   D    
C52   S4    S    
C85   S9    S    
C92   O32   A    
Cu12  O10   S    
C129  C133  A    
S4    O58   D    
Cu11  O8    S    
C28   H52   S    
C89   O29   A    
Cu3   O31   S    
C91   O31   A    
S5    O63   S    
C48   O28   A    
S2    O54   S    
C107  H23   S    
C44   H60   S    
Cu6   O42   S    
C105  H21   S    
S12   O82   D    
O104  H80   S    
C118  O14   A    
C57   C61   A    
C83   C91   S    
C59   C63   A    
C60   C64   A    
C50   C70   A    
C11   C136  S    
S2    O53   D    
O57   H63   S    
C49   C53   A    
C93   H17   S    
C51   C55   A    
C127  C131  A    
C10   N6    A    
C4    C20   S    
C61   C65   A    
S9    O73   D    
C107  H27   S    
Cu11  Cu12  S    
C126  C130  A    
C103  C107  S    
C146  O99   D    
C130  H34   S    
C46   O26   A    
N11   N15   A    
O90   H74   S    
S15   O91   D    
C73   N13   A    
S15   O93   S    
Cu7   O27   S    
C66   C70   A    
Cu8   O36   S    
S8    O72   S    
C64   C68   A    
Cu2   O38   S    
C71   C123  S    
S3    O56   D    
C3    O19   A    
C92   O36   A    
C1    O17   A    
Cu9   O16   S    
Cu3   O23   S    
C119  O15   A    
Cu11  O47   S    
C139  C143  A    
C8    C128  A    
S4    O60   S    
C129  H33   S    
C76   N16   A    
Cu3   O39   S    
C132  H36   S    
C114  O6    A    
C4    O4    A    
C79   C103  A    
C86   S10   S    
S12   O84   S    
C123  O43   A    
Cu6   O18   S    
C109  S13   S    
S13   O86   D    
Cu12  O7    S    
C30   C34   A    
C116  O48   A    
C78   C110  S    
O81   H71   S    
C30   C118  S    
N1    N2    A    
N10   N14   A    
Cu4   O32   S    
C87   C95   A    
C84   C88   A    
C138  H38   S    
Cu3   Cu7   S    
N5    N6    A    
C125  C129  A    
C140  H40   S    
C70   C122  S    
S14   O89   D    
C132  C136  A    
S9    O75   S    
S16   O95   D    
O54   H62   S    
C38   H54   S    
C77   C109  S    
Cu5   O25   S    
C87   S11   S    
C94   H18   S    
Cu4   O24   S    
Cu9   O11   S    
Cu1   O29   S    
C121  O37   A    
Cu8   O20   S    
S14   O90   S    
C112  H32   S    
C123  O39   A    
C21   C25   A    
C124  O40   A    
C18   C22   A    
C107  C111  S    
Cu4   Cu8   S    
C14   C34   A    
C42   H6    S    
C26   C30   A    
S1    O50   D    
C1    C17   S    
C13   C17   A    
S7    O68   D    
C15   C43   S    
C16   C36   A    
C96   C100  A    
C49   S1    S    
C89   O33   A    
C37   C41   S    
C90   O30   A    
S11   O81   S    
C40   C44   S    
C56   C60   A    
Cu10  O15   S    
C115  O7    A    
O93   H75   S    
C5    C125  A    
S10   O77   D    
C84   C92   S    
C105  H25   S    
C97   C114  S    
Cu7   O43   S    
C59   C76   S    
C106  H22   S    
C72   C124  S    
C118  O10   A    
C10   N1    A    
Cu3   O3    S    
C147  O102  S    
C58   C62   A    
C83   C87   A    
C88   C96   A    
C41   H5    S    
C78   C102  A    
C10   C133  S    
C55   H11   S    
C80   C84   A    
C13   C41   S    
C130  C134  A    
C15   C19   A    
C145  O98   S    
C50   C54   A    
C141  H41   S    
Cu9   O6    S    
C80   C104  A    
Cu12  O48   S    
C148  O104  S    
C54   C58   A    
C73   N10   A    
C110  S14   S    
C125  H1    S    
Cu11  O14   S    
C94   C98   A    
O102  H79   S    
Cu9   O45   S    
C12   N8    A    
C105  C109  S    
C2    O2    A    
C110  H30   S    
C47   O27   A    
S6    O65   D    
O98   H77   S    
C6    C142  A    
Cu6   O34   S    
C81   C89   S    
S4    O59   D    
C76   N11   A    
Cu1   O21   S    
C54   H10   S    
C25   H49   S    
C7    C143  A    
S5    O62   D    
Cu5   O17   S    
Cu10  O12   S    
S6    O66   S    
C22   H46   S    
C24   C28   A    
C6    C126  A    
S12   O83   D    
C138  C142  A    
N3    N4    A    
C53   C57   A    
C98   C113  S    
Cu7   O19   S    
C82   C86   A    
C5    C45   S    
C33   C37   S    
C108  C112  S    
C65   H13   S    
C7    C47   S    
C35   C39   S    
O60   H64   S    
C8    C48   S    
C47   O23   A    
C93   C97   A    
O84   H72   S    
C77   C81   A    
C31   C119  S    
Cu11  O9    S    
Cu7   O35   S    
C31   C35   A    
C32   C36   A    
N12   N16   A    
C143  H43   S    
C115  O47   A    
C137  C141  A    
C96   H20   S    
C140  C144  A    
S15   O92   D    
C45   O25   A    
C117  O13   A    
C40   H56   S    
C60   C75   S    
C111  H31   S    
C82   C90   S    
C146  O100  S    
C40   C148  S    
S11   O79   D    
C79   C83   A    
C68   H16   S    
C65   C69   A    
Cu2   O30   S    
C67   C71   A    
C121  O41   A    
C122  O38   A    
O72   H68   S    
C9    N5    A    
C22   C26   A    
C44   H8    S    
C46   O22   A    
Cu1   Cu5   S    
Cu5   O41   S    
C43   H7    S    
C62   S6    S    
S7    O67   D    
C2    C18   S    
O78   H70   S    
C14   C18   A    
C19   C23   A    
O100  H78   S    
C74   N14   A    
C43   H59   S    
O66   H66   S    
C38   C146  S    
C13   C33   A    
C75   N12   A    
C90   O34   A    
C38   C42   S    
C131  C135  A    
C2    O18   A    
S2    O52   D    
C108  H24   S    
Cu1   O37   S    
C120  O12   A    
C106  H26   S    
C86   C94   A    
C20   C24   A    
S9    O74   D    
C112  S16   S    
C23   C27   A    
C48   O24   A    
C12   N3    A    
C16   C20   A    
C14   C42   S    
C9    C134  S    
C113  O5    A    
C111  S15   S    
C50   S2    S    
C142  H42   S    
C64   S8    S    
C85   C93   A    
C32   C120  S    
C128  C132  A    
C15   C35   A    
C126  H2    S    
C101  C105  S    
C63   C67   A    
Cu10  O46   S    
S3    O57   S    
C39   C43   S    
C67   H15   S    
S1    O49   D    
C29   C117  S    
C23   H47   S    
Cu4   O4    S    
C57   C74   S    
C42   H58   S    
Cu8   O28   S    
C5    C141  A    
C69   C121  S    
C56   H12   S    
C39   H55   S    
C8    C144  A    
O87   H73   S    
C75   N15   A    
S11   O80   D    
C37   H53   S    
C88   S12   S    
O63   H65   S    
S8    O71   D    
C63   S7    S    
C127  H3    S    
C128  H4    S    
C147  O101  D    
C106  C110  S    
S13   O87   S    
C53   H9    S    
C24   H48   S    
C6    C46   S    
C34   C38   S    
C66   H14   S    
C39   C147  S    
C134  C138  A    
C131  H35   S    
C120  O16   A    
C145  O97   D    
C116  O8    A    
C79   C111  S    
C7    C127  A    
O96   H76   S    
C148  O103  D    
Cu6   O26   S    
C124  O44   A    
S14   O88   D    
S16   O94   D    
C102  C106  S    
C27   H51   S    
C81   C85   A    
C114  O46   A    
N9    N13   A    
S7    O69   S    
S13   O85   D    
Cu9   Cu10  S    
C119  O11   A    
C11   N4    A    
C97   C101  A    
C52   C56   A    
C58   C73   S    
C45   O21   A    
C117  O9    A    
