data_mof_unit_31459.cif
_audit_creation_date              2012-12-10T19:00:11-0500
_audit_creation_method            fapswitch 2.2
_symmetry_space_group_name_H-M    P1
_symmetry_Int_Tables_number       1
_space_group_crystal_system       triclinic
_cell_length_a                    9.536086
_cell_length_b                    10.828077
_cell_length_c                    13.609588
_cell_angle_alpha                 90.390076
_cell_angle_beta                  73.745621
_cell_angle_gamma                 90.038967
_cell_volume                      1349.08764137

loop_
_atom_site_label
_atom_site_type_symbol
_atom_type_description
_atom_site_fract_x
_atom_site_fract_y
_atom_site_fract_z
_atom_type_partial_charge
C1    C     C_R   0.498831 0.737574 0.503069 0.827872
C2    C     C_R   0.452439 0.458623 0.974106 0.077987
C3    C     C_R   0.498379 0.461815 0.865506 0.057845
C4    C     C_R   0.557252 0.479679 0.029510 0.020508
C5    C     C_R   0.706849 0.498099 0.976267 0.140073
C6    C     C_R   0.752438 0.490096 0.869752 0.206613
C7    C     C_R   0.650998 0.462278 0.817214 -0.285076
C8    C     C_R   0.517501 0.485956 0.136693 -0.236820
C9    C     C_R   0.768274 0.520063 0.136392 -0.223516
C10   C     C_R   0.389863 0.462492 0.810123 -0.095873
C11   C     C_R   0.369537 0.936257 0.514035 0.118027
C12   C     C_R   0.424975 0.489095 0.698940 0.779559
C13   C     C_R   0.493680 0.870235 0.516442 -0.136266
C14   C     C_R   0.610227 0.933718 0.537854 -0.287639
C15   C     C_R   0.610955 0.063114 0.541123 0.245872
C16   C     C_R   0.494160 0.129054 0.519521 -0.144265
C17   C     C_R   0.370207 0.063205 0.514809 0.085062
C18   C     C_3   0.282046 0.069728 0.439962 -0.468464
C19   C     C_3   0.280614 0.929611 0.439724 -0.452068
C20   C     C_R   0.941354 0.401425 0.461103 0.287826
C21   C     C_R   0.907657 0.592835 0.545058 -0.092744
C22   C     C_R   0.056622 0.593132 0.544606 -0.087422
C23   C     C_R   0.498654 0.262212 0.504502 0.810297
C24   C     C_R   0.089425 0.401918 0.460225 0.253944
C25   C     C_3   0.135342 0.359034 0.351392 -0.525783
C26   C     C_3   0.975822 0.354835 0.353918 -0.495896
C27   C     C_R   0.577215 0.501545 0.301175 0.803077
C28   C     C_R   0.810020 0.518964 0.030730 -0.193383
C29   C     C_R   0.621997 0.502736 0.189759 -0.038692
C30   C     C_R   0.244492 0.436314 0.862519 -0.195508
C31   C     C_R   0.203905 0.415681 0.967111 -0.154501
C32   C     C_R   0.304387 0.430230 0.022953 -0.169942
Cu1   Cu    Cu3+1 0.359330 0.500020 0.500010 0.936057
Cu2   Cu    Cu3+1 0.640670 0.499980 0.499990 0.941515
H1    H     H_    0.850667 0.535266 0.176075 0.152014
H2    H     H_    0.172330 0.110833 0.474492 0.195943
H3    H     H_    0.344899 0.109121 0.365387 0.192132
H4    H     H_    0.170363 0.890145 0.474604 0.189281
H5    H     H_    0.341411 0.888055 0.364988 0.199097
H6    H     H_    0.837962 0.669003 0.580217 0.138900
H7    H     H_    0.098617 0.669916 0.578832 0.142280
H8    H     H_    0.196287 0.431089 0.299243 0.207974
H9    H     H_    0.187568 0.266825 0.341253 0.193966
H10   H     H_    0.947929 0.421700 0.300803 0.211272
H11   H     H_    0.934344 0.259514 0.349825 0.200643
H12   H     H_    0.924110 0.533274 0.992172 0.172524
H13   H     H_    0.405657 0.479329 0.180845 0.141055
H14   H     H_    0.162279 0.428583 0.821955 0.181501
H15   H     H_    0.263045 0.414131 0.103873 0.123285
H16   H     H_    0.092992 0.389213 0.005928 0.142677
H17   H     H_    0.699389 0.435868 0.739175 0.192645
H18   H     H_    0.703001 0.883618 0.548764 0.156860
N1    N     N_R   0.852320 0.499070 0.499340 -0.191494
N2    N     N_R   0.148230 0.499110 0.499340 -0.185387
O1    O     O_R   0.381190 0.680360 0.500000 -0.584151
O2    O     O_R   0.618780 0.680320 0.499990 -0.588122
O3    O     O_R   0.323230 0.500000 0.650990 -0.585327
O4    O     O_R   0.560820 0.499960 0.650980 -0.596607
O5    O     O_R   0.381220 0.319680 0.500010 -0.584520
O6    O     O_R   0.618810 0.319640 0.500000 -0.547956
O7    O     O_R   0.439180 0.500040 0.349020 -0.587204
O8    O     O_R   0.676770 0.500000 0.349010 -0.588921
N3    N     N_2   0.732355 0.124788 0.560769 -0.410713
H19   H     H_    0.830007 0.077852 0.534508 0.235389
C33   C     C_3   0.707063 0.166103 0.665575 -0.662051
H20   H     H_    0.692670 0.085438 0.717512 0.214624
H21   H     H_    0.608272 0.225624 0.689071 0.230757
H22   H     H_    0.802366 0.220732 0.672718 0.208119
N4    N     N_2   0.901542 0.508543 0.814225 -0.450229
H23   H     H_    0.935473 0.458342 0.747009 0.251070
C34   C     C_3   0.943820 0.637178 0.800130 -0.707739
H24   H     H_    0.919439 0.687156 0.874454 0.234589
H25   H     H_    0.884231 0.683278 0.751208 0.218274
H26   H     H_    0.063128 0.643551 0.763279 0.235274

loop_
_geom_bond_atom_site_label_1
_geom_bond_atom_site_label_2
_ccdc_geom_bond_type
Cu1   O1    S    
C6    N4    S    
N3    C33   S    
Cu2   O2    S    
C27   C29   S    
C4    C8    A    
C25   H9    S    
C26   H10   S    
C22   N2    A    
C23   O5    A    
C28   H12   S    
C8    C29   A    
C19   H5    S    
C30   H14   S    
C19   H4    S    
C18   H3    S    
C3    C7    A    
C5    C6    A    
C22   H7    S    
C24   N2    A    
C15   C16   A    
Cu2   O8    S    
C2    C32   A    
C18   C19   S    
N4    C34   S    
C27   O7    A    
C26   H11   S    
C14   H18   S    
C20   C24   A    
C16   C17   A    
C33   H21   S    
C9    C29   A    
C12   O4    A    
Cu1   O5    S    
C13   C14   A    
Cu2   O6    S    
Cu1   Cu2   S    
C23   O6    A    
C24   C25   S    
C34   H25   S    
C20   N1    A    
C25   C26   S    
C2    C4    A    
C27   O8    A    
C5    C28   A    
C10   C30   A    
C31   C32   A    
C33   H22   S    
C11   C19   S    
C17   C18   S    
C10   C12   S    
C12   O3    A    
C16   C23   S    
C1    C13   S    
C31   H16   S    
C9    H1    S    
Cu1   N2    S    
C11   C17   A    
Cu1   O3    S    
C1    O2    A    
C4    C5    A    
C25   H8    S    
C34   H26   S    
C6    C7    A    
C2    C3    A    
C1    O1    A    
C8    H13   S    
C7    H17   S    
C34   H24   S    
C3    C10   A    
C21   N1    A    
C11   C13   A    
C30   C31   A    
C21   H6    S    
C20   C26   S    
N4    H23   S    
C32   H15   S    
N3    H19   S    
Cu2   N1    S    
Cu1   O7    S    
C33   H20   S    
Cu2   O4    S    
C15   N3    S    
C14   C15   A    
C21   C22   A    
C18   H2    S    
C9    C28   A    
