data_mof_unit_5289.cif
_audit_creation_date              2013-03-05T15:49:18-0500
_audit_creation_method            fapswitch 2.2
_symmetry_space_group_name_H-M    P1
_symmetry_Int_Tables_number       1
_space_group_crystal_system       triclinic
_cell_length_a                    10.688175
_cell_length_b                    12.007978
_cell_length_c                    12.916172
_cell_angle_alpha                 92.895553
_cell_angle_beta                  90.556079
_cell_angle_gamma                 84.922897
_cell_volume                      1649.07010497

loop_
_atom_site_label
_atom_site_type_symbol
_atom_site_description
_atom_site_fract_x
_atom_site_fract_y
_atom_site_fract_z
_atom_type_partial_charge
O1    O     O_R   0.506170 0.421690 0.658830 -0.572688
O2    O     O_R   0.491330 0.609320 0.646410 -0.602720
C1    C     C_R   0.500597 0.521075 0.700515 0.988277
O3    O     O_R   0.690660 0.406170 0.506210 -0.655456
O4    O     O_R   0.675810 0.593790 0.493790 -0.589666
C2    C     C_R   0.740953 0.497156 0.495727 0.869699
Zn1   Zn    Zn3+2 0.509910 0.374720 0.508290 1.024874
Zn2   Zn    Zn3+2 0.490090 0.625280 0.491710 1.031238
O5    O     O_R   0.508670 0.390680 0.353590 -0.592904
O6    O     O_R   0.493830 0.578310 0.341170 -0.597875
O7    O     O_R   0.324190 0.406210 0.506210 -0.549963
O8    O     O_R   0.309340 0.593830 0.493790 -0.615137
C3    C     C_R   0.501932 0.478435 0.300043 0.889112
C4    C     C_R   0.260682 0.502512 0.510105 0.930538
H1    H     H_    0.873240 0.657220 0.435141 0.180539
C5    C     C_R   0.914143 0.287932 0.538764 -0.331394
H2    H     H_    0.833818 0.259754 0.497547 0.215856
C6    C     C_R   0.987530 0.206285 0.591202 0.393343
C7    C     C_R   0.094676 0.235689 0.645736 0.415454
C8    C     C_R   0.137445 0.341191 0.633785 0.420556
C9    C     C_R   0.073373 0.416305 0.565167 -0.074633
C10   C     C_R   0.951764 0.397846 0.532592 -0.020175
C11   C     C_R   0.875801 0.490741 0.494158 -0.041043
C12   C     C_R   0.928875 0.587394 0.467597 -0.154139
H3    H     H_    0.095821 0.665627 0.450327 0.177959
C13   C     C_R   0.055085 0.593934 0.479276 -0.211538
C14   C     C_R   0.127975 0.507232 0.524535 -0.059389
C15   C     C_R   0.509970 0.465953 0.189937 -0.051291
C16   C     C_R   0.499544 0.531714 0.812044 -0.234065
C17   C     C_R   0.435038 0.640903 0.967525 0.511136
C18   C     C_R   0.446784 0.631396 0.860560 -0.343791
C19   C     C_R   0.542029 0.439112 0.870043 0.453725
C20   C     C_R   0.537107 0.450419 0.977507 -0.005979
C21   C     C_R   0.477668 0.549396 0.025829 -0.029613
C22   C     C_R   0.462812 0.555139 0.132031 -0.196548
C23   C     C_R   0.573274 0.370254 0.143362 -0.172311
C24   C     C_R   0.588294 0.362999 0.037411 -0.159654
H4    H     H_    0.415292 0.629345 0.170232 0.227776
H5    H     H_    0.613282 0.302434 0.188932 0.173357
H6    H     H_    0.639281 0.288571 0.002941 0.180422
H7    H     H_    0.409905 0.700660 0.815376 0.222558
N1    N     N_R   0.523130 0.207800 0.519340 -0.164526
N2    N     N_R   0.476870 0.792180 0.480660 -0.193897
C25   C     C_R   0.383363 0.956951 0.402429 -0.398373
C26   C     C_R   0.393029 0.839045 0.411591 0.614865
C27   C     C_R   0.550257 0.856687 0.542713 0.329448
C28   C     C_R   0.542309 0.974661 0.535613 -0.059092
C29   C     C_R   0.456954 0.025318 0.465092 -0.099272
C30   C     C_R   0.448322 0.143637 0.458432 0.468861
C31   C     C_R   0.607540 0.159168 0.586351 -0.093748
C32   C     C_R   0.618026 0.043130 0.596435 -0.191416
H8    H     H_    0.666729 0.210824 0.632811 0.199635
H9    H     H_    0.320537 0.995430 0.346012 0.208776
H10   H     H_    0.685675 0.007946 0.651369 0.220071
O9    O     O_3   0.594229 0.339791 0.822051 -0.616135
C33   C     C_3   0.507444 0.256967 0.823345 -0.258654
H11   H     H_    0.560854 0.173362 0.820088 0.174548
H12   H     H_    0.445504 0.260961 0.754179 0.255203
H13   H     H_    0.447382 0.262041 0.893697 0.149153
N3    N     N_R   0.361709 0.196524 0.387324 0.209794
O10   O     O_R   0.394260 0.200479 0.290916 -0.421819
O11   O     O_R   0.243095 0.210154 0.410809 -0.441086
O12   O     O_3   0.326695 0.766094 0.349329 -0.574222
C34   C     C_3   0.213321 0.816097 0.309148 -0.345574
H14   H     H_    0.231962 0.866792 0.242270 0.192003
H15   H     H_    0.157050 0.866329 0.369890 0.139649
H16   H     H_    0.156047 0.748630 0.279414 0.198628
N4    N     N_R   0.634915 0.804366 0.615564 0.227913
O13   O     O_R   0.600735 0.803432 0.711843 -0.421883
O14   O     O_R   0.753886 0.789412 0.593600 -0.417907
O15   O     O_3   0.948291 0.100146 0.595835 -0.602084
C35   C     C_3   0.007167 0.031867 0.515272 -0.213730
H17   H     H_    0.111218 0.024269 0.524728 0.193147
H18   H     H_    0.980436 0.063726 0.437902 0.152851
H19   H     H_    0.975261 0.946634 0.518162 0.193827
O16   O     O_3   0.164957 0.158198 0.702903 -0.578989
C36   C     C_3   0.109677 0.155979 0.801315 -0.239785
H20   H     H_    0.013118 0.128282 0.795526 0.190608
H21   H     H_    0.108321 0.238901 0.843983 0.146766
H22   H     H_    0.167143 0.094769 0.847490 0.190625
O17   O     O_3   0.238916 0.370641 0.693096 -0.592374
C37   C     C_3   0.196758 0.453568 0.769450 -0.352892
H23   H     H_    0.103292 0.440282 0.802113 0.155226
H24   H     H_    0.193971 0.538012 0.737729 0.174316
H25   H     H_    0.264159 0.450628 0.835144 0.191558
O18   O     O_3   0.373912 0.736580 0.014151 -0.613093
C38   C     C_3   0.459618 0.819189 0.025129 -0.281996
H26   H     H_    0.489712 0.844947 0.948303 0.192701
H27   H     H_    0.542886 0.790253 0.072339 0.162808
H28   H     H_    0.412226 0.894225 0.066581 0.195120

loop_
_geom_bond_atom_site_label_1
_geom_bond_atom_site_label_2
_geom_bond_distance
_ccdc_geom_bond_type
C38   H26   1.112937 S    
C7    C8    1.400482 A    
Zn2   N2    2.008797 S    
O9    C33   1.419528 S    
O17   C37   1.413224 S    
C36   H20   1.112674 S    
Zn1   O7    1.987738 S    
C13   C14   1.393437 A    
C30   N3    1.429060 S    
C23   C24   1.376903 A    
C12   C13   1.364630 A    
C6    C7    1.401101 A    
C16   C19   1.411389 A    
O3    Zn1   2.001674 S    
O4    C2    1.300566 A    
O7    C4    1.287001 A    
C33   H11   1.109176 S    
N3    O11   1.300677 A    
C21   C22   1.379975 A    
Zn1   N1    2.009035 S    
C1    C16   1.439812 S    
O5    C3    1.285761 A    
C25   H9    1.079351 S    
C15   C22   1.392275 A    
C5    H2    1.076715 S    
C31   H8    1.081448 S    
C11   C12   1.395355 A    
C3    C15   1.425108 S    
C4    C14   1.428158 S    
C17   O18   1.383592 S    
C19   O9    1.390033 S    
C9    C14   1.408814 A    
C8    O17   1.382940 S    
C7    O16   1.382123 S    
C35   H19   1.109531 S    
C31   C32   1.400524 A    
C36   H21   1.112459 S    
C17   C21   1.403725 A    
C34   H16   1.109193 S    
C22   H4    1.084318 S    
O16   C36   1.409364 S    
C35   H18   1.113724 S    
O18   C38   1.409725 S    
N4    O13   1.300372 A    
C28   C32   1.410041 A    
H3    C13   1.082829 S    
C26   O12   1.394432 S    
C20   C24   1.404311 A    
N3    O10   1.300456 A    
O1    C1    1.280936 A    
C34   H15   1.112757 S    
C27   N4    1.428785 S    
C28   C29   1.404856 A    
Zn2   O8    2.001671 S    
C20   C21   1.415911 A    
C5    C6    1.398524 A    
N2    C26   1.364367 A    
N1    C31   1.358964 A    
O3    C2    1.273291 A    
H1    C12   1.083874 S    
O8    C4    1.282064 A    
C37   H24   1.110568 S    
C38   H27   1.113889 S    
C25   C26   1.421272 A    
C36   H22   1.109267 S    
C6    O15   1.380811 S    
Zn1   O5    2.016719 S    
C27   C28   1.419200 A    
C29   C30   1.422488 A    
C5    C10   1.419578 A    
C18   H7    1.083635 S    
O1    Zn1   1.996779 S    
C23   H5    1.083699 S    
O2    Zn2   2.016720 S    
C35   H17   1.113812 S    
O6    C3    1.283013 A    
O4    Zn2   1.987738 S    
C24   H6    1.082706 S    
C37   H25   1.107620 S    
C33   H13   1.113696 S    
C32   H10   1.082120 S    
C19   C20   1.388866 A    
O2    C1    1.294566 A    
O15   C35   1.409323 S    
C16   C18   1.398230 A    
C34   H14   1.111020 S    
C17   C18   1.386519 A    
C2    C11   1.436804 S    
C33   H12   1.107201 S    
N2    C27   1.374857 A    
N1    C30   1.373827 A    
O12   C34   1.410228 S    
C8    C9    1.423967 A    
C15   C23   1.393076 A    
Zn2   O6    1.996780 S    
C37   H23   1.115612 S    
C38   H28   1.109429 S    
N4    O14   1.300421 A    
C10   C11   1.427501 A    
C9    C10   1.395187 A    
C25   C29   1.408005 A    
