data_mof_unit_46865.cif
_audit_creation_date              2012-12-11T14:44:33-0500
_audit_creation_method            fapswitch 2.2
_symmetry_space_group_name_H-M    P1
_symmetry_Int_Tables_number       1
_space_group_crystal_system       triclinic
_cell_length_a                    19.912757
_cell_length_b                    7.230299
_cell_length_c                    19.693601
_cell_angle_alpha                 89.779008
_cell_angle_beta                  98.373291
_cell_angle_gamma                 89.737031
_cell_volume                      2805.10665641

loop_
_atom_site_label
_atom_site_type_symbol
_atom_type_description
_atom_site_fract_x
_atom_site_fract_y
_atom_site_fract_z
_atom_type_partial_charge
O1    O     O_R   0.673210 0.377390 0.686390 -0.536392
O2    O     O_R   0.326790 0.622610 0.313610 -0.536426
O3    O     O_R   0.826790 0.877390 0.813610 -0.535070
O4    O     O_R   0.173210 0.122610 0.186390 -0.535106
O5    O     O_R   0.810750 0.706450 0.681250 -0.540011
O6    O     O_R   0.189250 0.293550 0.318750 -0.540077
O7    O     O_R   0.689250 0.206450 0.818750 -0.540213
O8    O     O_R   0.310750 0.793550 0.181250 -0.539938
C1    C     C_R   0.831106 0.538453 0.665351 0.700604
C2    C     C_R   0.168882 0.461547 0.334636 0.700070
C3    C     C_R   0.668970 0.038507 0.834711 0.699400
C4    C     C_R   0.331149 0.961475 0.165402 0.699426
O9    O     O_R   0.672750 0.707060 0.678240 -0.540124
O10   O     O_R   0.327250 0.292940 0.321760 -0.540113
O11   O     O_R   0.827250 0.207060 0.821760 -0.537161
O12   O     O_R   0.172750 0.792940 0.178240 -0.536599
O13   O     O_R   0.687800 0.877990 0.810580 -0.538244
O14   O     O_R   0.312200 0.122010 0.189420 -0.538346
O15   O     O_R   0.812200 0.377990 0.689420 -0.538779
O16   O     O_R   0.187800 0.622010 0.310580 -0.538802
C5    C     C_R   0.648291 0.540364 0.661330 0.698631
C6    C     C_R   0.351714 0.459636 0.338662 0.698661
C7    C     C_R   0.851654 0.039042 0.838560 0.697351
C8    C     C_R   0.148260 0.960934 0.161500 0.698834
O17   O     O_3   0.755100 0.544060 0.793420 -0.375123
O18   O     O_3   0.244900 0.455940 0.206580 -0.374712
O19   O     O_3   0.744900 0.044060 0.706580 -0.377357
O20   O     O_3   0.255100 0.955940 0.293420 -0.377405
V1    V     V_3+5 0.749050 0.818670 0.741950 1.387574
V2    V     V_3+5 0.250950 0.181330 0.258050 1.387052
V3    V     V_3+5 0.750950 0.318670 0.758050 1.388690
V4    V     V_3+5 0.249050 0.681330 0.241950 1.388887
C9    C     C_R   0.086522 0.962201 0.108802 -0.083118
C10   C     C_R   0.913294 0.037530 0.891296 -0.079701
C11   C     C_R   0.412701 0.456484 0.392434 -0.091463
C12   C     C_R   0.587318 0.543530 0.607539 -0.091462
C13   C     C_R   0.020119 0.185282 0.939307 0.086664
C14   C     C_R   0.981295 0.808453 0.059236 0.077034
C15   C     C_R   0.488881 0.716474 0.549574 0.126977
C16   C     C_R   0.511172 0.283609 0.450365 0.126958
C17   C     C_R   0.963651 0.170350 0.887815 -0.190754
C18   C     C_R   0.037255 0.825540 0.111221 -0.188879
C19   C     C_R   0.543598 0.697266 0.602814 -0.197351
C20   C     C_R   0.456436 0.302781 0.397141 -0.197378
C21   C     C_R   0.919951 0.915493 0.947202 -0.259859
C22   C     C_R   0.079645 0.084786 0.053010 -0.268319
C23   C     C_R   0.575477 0.404916 0.557977 -0.256062
C24   C     C_R   0.424554 0.595116 0.441986 -0.256045
C25   C     C_R   0.974803 0.930252 0.001689 0.105313
C26   C     C_R   0.025049 0.069005 0.998297 0.102854
C27   C     C_R   0.521952 0.421030 0.502187 0.093479
C28   C     C_R   0.478089 0.579024 0.497765 0.093460
H1    H     H_    0.118838 0.187123 0.051910 0.136438
H2    H     H_    0.880508 0.813958 0.948401 0.134341
H3    H     H_    0.390002 0.711551 0.437472 0.131822
H4    H     H_    0.610024 0.288471 0.562496 0.131817
H5    H     H_    0.042744 0.730226 0.154333 0.119242
H6    H     H_    0.959025 0.263082 0.843954 0.118858
H7    H     H_    0.448041 0.196137 0.358329 0.129338
H8    H     H_    0.551993 0.803921 0.641621 0.129366
C29   C     C_R   0.575913 0.178288 0.891828 -0.221729
C30   C     C_R   0.424602 0.821906 0.108707 -0.221980
C31   C     C_R   0.924273 0.677330 0.608459 -0.221368
C32   C     C_R   0.075670 0.322708 0.391479 -0.221495
C33   C     C_R   0.619922 0.028802 0.884732 -0.079424
C34   C     C_R   0.380480 0.971272 0.115657 -0.078893
C35   C     C_R   0.880320 0.528634 0.615504 -0.079765
C36   C     C_R   0.119641 0.471382 0.384454 -0.079524
C37   C     C_R   0.615996 0.868386 0.924804 -0.219048
C38   C     C_R   0.384640 0.131941 0.075795 -0.220453
C39   C     C_R   0.884464 0.368851 0.575558 -0.222119
C40   C     C_R   0.115479 0.631185 0.424384 -0.221877
C41   C     C_R   0.569033 0.856761 0.971402 0.089744
C42   C     C_R   0.431767 0.143762 0.029385 0.089496
C43   C     C_R   0.931470 0.357233 0.529007 0.089950
C44   C     C_R   0.068453 0.642831 0.470911 0.089931
C45   C     C_R   0.524456 0.006170 0.977379 0.055063
C46   C     C_R   0.476336 0.994338 0.023417 0.055277
C47   C     C_R   0.975919 0.505912 0.522998 0.054921
C48   C     C_R   0.024000 0.494158 0.476915 0.054991
C49   C     C_R   0.527822 0.167253 0.937302 0.089711
C50   C     C_R   0.472910 0.833193 0.063447 0.089859
C51   C     C_R   0.972443 0.666204 0.563062 0.089537
C52   C     C_R   0.027480 0.333862 0.436854 0.089731
C53   C     C_R   0.565754 0.698158 0.012112 -0.195435
C54   C     C_R   0.435157 0.302543 0.988803 -0.194776
C55   C     C_R   0.934877 0.199395 0.488339 -0.194998
C56   C     C_R   0.065037 0.800685 0.511568 -0.195139
C57   C     C_R   0.518182 0.686577 0.057750 -0.188429
C58   C     C_R   0.482673 0.314052 0.943119 -0.187759
C59   C     C_R   0.982377 0.187938 0.442626 -0.188297
C60   C     C_R   0.017536 0.812144 0.557280 -0.188337
H9    H     H_    0.578137 0.301980 0.860950 0.126172
H10   H     H_    0.422271 0.698113 0.139505 0.126043
H11   H     H_    0.921921 0.800468 0.639289 0.126132
H12   H     H_    0.078030 0.199564 0.360654 0.125966
H13   H     H_    0.649937 0.752894 0.920182 0.130462
H14   H     H_    0.350707 0.247464 0.080386 0.129227
H15   H     H_    0.850623 0.253912 0.580202 0.128667
H16   H     H_    0.149327 0.746115 0.419751 0.128643
H17   H     H_    0.599790 0.582428 0.008408 0.133780
H18   H     H_    0.401195 0.418391 0.992580 0.132795
H19   H     H_    0.900974 0.084188 0.492107 0.132567
H20   H     H_    0.098939 0.915894 0.507799 0.132530
H21   H     H_    0.516630 0.562367 0.088434 0.135644
H22   H     H_    0.484242 0.438297 0.912457 0.135509
H23   H     H_    0.983998 0.064371 0.411935 0.135129
H24   H     H_    0.015913 0.935713 0.587969 0.135137
C61   C     C_3   0.075093 0.321296 0.927669 -0.382755
C62   C     C_3   0.068182 0.503153 0.965773 -0.294704
C63   C     C_3   0.127128 0.632181 0.958360 -0.749841
H25   H     H_    0.176070 0.566699 0.980468 0.222609
H26   H     H_    0.128140 0.665554 0.903418 0.225151
H27   H     H_    0.121201 0.762699 0.986194 0.227862
H28   H     H_    0.019814 0.572347 0.944038 0.200486
H29   H     H_    0.067079 0.476767 0.021190 0.200068
H30   H     H_    0.126028 0.257968 0.942820 0.171676
H31   H     H_    0.072045 0.352891 0.871953 0.172639
C64   C     C_3   0.931188 0.654383 0.066113 -0.380065
C65   C     C_3   0.866532 0.729534 0.090346 -0.294162
C66   C     C_3   0.813593 0.577847 0.090984 -0.767139
H32   H     H_    0.798669 0.522661 0.038401 0.226941
H33   H     H_    0.834102 0.463367 0.125845 0.229881
H34   H     H_    0.767726 0.635539 0.109368 0.218645
H35   H     H_    0.879439 0.785789 0.143074 0.195578
H36   H     H_    0.844056 0.843567 0.056358 0.193693
H37   H     H_    0.919260 0.578973 0.016828 0.173020
H38   H     H_    0.954238 0.549146 0.103965 0.172668
C67   C     C_3   0.443753 0.886443 0.550168 -0.371753
C68   C     C_3   0.375977 0.841952 0.575091 -0.299868
C69   C     C_3   0.385271 0.790242 0.651212 -0.719120
H39   H     H_    0.415005 0.659989 0.660522 0.231164
H40   H     H_    0.411755 0.902635 0.682625 0.219794
H41   H     H_    0.334810 0.768882 0.667580 0.207657
H42   H     H_    0.342655 0.966218 0.567088 0.182674
H43   H     H_    0.349667 0.727424 0.544794 0.190087
H44   H     H_    0.469859 0.995869 0.583619 0.171934
H45   H     H_    0.434253 0.950132 0.498289 0.143889
C70   C     C_3   0.556340 0.113733 0.449732 -0.371803
C71   C     C_3   0.624109 0.158422 0.424826 -0.299880
C72   C     C_3   0.614811 0.210223 0.348713 -0.718927
H46   H     H_    0.588393 0.097773 0.317277 0.219779
H47   H     H_    0.585009 0.340365 0.339413 0.231155
H48   H     H_    0.665268 0.231817 0.332363 0.207788
H49   H     H_    0.650381 0.272967 0.455146 0.190132
H50   H     H_    0.657469 0.034228 0.432813 0.182704
H51   H     H_    0.565850 0.049952 0.501595 0.143881
H52   H     H_    0.530263 0.004325 0.416250 0.171944

loop_
_geom_bond_atom_site_label_1
_geom_bond_atom_site_label_2
_ccdc_geom_bond_type
O17   V3    S    
C24   H3    S    
C39   C43   A    
O1    C5    A    
C55   C59   A    
O19   V1    S    
O13   V1    S    
O3    C7    A    
C63   H25   S    
C48   C52   A    
C69   H41   S    
O15   V3    S    
C61   H30   S    
C5    C12   S    
C45   C46   A    
O7    C3    A    
C6    C11   S    
C70   H51   S    
C50   C57   A    
C9    C18   A    
C32   C36   A    
O9    V1    S    
C17   H6    S    
C14   C18   A    
C72   H47   S    
O16   V4    S    
O4    C8    A    
C29   H9    S    
C20   H7    S    
C16   C70   S    
C31   H11   S    
O1    V3    S    
C12   C23   A    
O2    V4    S    
O3    V1    S    
C62   C63   S    
C32   C52   A    
C66   H34   S    
C72   H46   S    
C60   H24   S    
C67   H45   S    
C56   C60   A    
C2    O16   A    
C38   C42   A    
C37   C41   A    
O14   V2    S    
C52   C59   A    
C45   C49   A    
C63   H27   S    
C44   C56   A    
C16   C20   A    
C13   C61   S    
C36   C40   A    
C64   H38   S    
O11   C7    A    
C15   C28   A    
C30   C50   A    
O12   C8    A    
C9    C22   A    
C10   C17   A    
C38   H14   S    
O10   V2    S    
C11   C24   A    
C18   H5    S    
C56   H20   S    
C1    O15   A    
C61   H31   S    
O5    V1    S    
C31   C35   A    
C70   H52   S    
O7    V3    S    
C30   C34   A    
C27   C28   A    
O8    V4    S    
C59   H23   S    
C71   C72   S    
C58   H22   S    
C54   C58   A    
C72   H48   S    
C71   H50   S    
C14   C25   A    
C53   C57   A    
O18   V4    S    
C23   C27   A    
C15   C67   S    
C4    C34   S    
C31   C51   A    
C1    C35   S    
O5    C1    A    
C51   C60   A    
C46   C50   A    
C21   C25   A    
O8    C4    A    
C7    C10   S    
O9    C5    A    
C40   C44   A    
C63   H26   S    
C10   C21   A    
C42   C54   A    
C64   C65   S    
C11   C20   A    
C41   C53   A    
C66   H32   S    
C65   H36   S    
C19   H8    S    
C55   H19   S    
C14   C64   S    
C43   C55   A    
O6    V2    S    
C68   H42   S    
C21   H2    S    
C30   H10   S    
C49   C58   A    
C57   H21   S    
C69   H39   S    
C54   H18   S    
C62   H29   S    
C53   H17   S    
C65   C66   S    
C67   C68   S    
C40   H16   S    
C3    O13   A    
C65   H35   S    
C68   H43   S    
C44   C48   A    
C69   H40   S    
C71   H49   S    
O6    C2    A    
C15   C19   A    
C70   C71   S    
O11   V3    S    
C2    C36   S    
O12   V4    S    
C16   C27   A    
C22   C26   A    
C8    C9    S    
O10   C6    A    
O20   V2    S    
C68   C69   S    
C29   C49   A    
O2    C6    A    
C47   C51   A    
C13   C26   A    
C34   C38   A    
C39   H15   S    
C33   C37   A    
C22   H1    S    
C32   H12   S    
C35   C39   A    
C13   C17   A    
C66   H33   S    
C47   C48   A    
C29   C33   A    
C24   C28   A    
C67   H44   S    
C25   C26   A    
C42   C46   A    
C4    O14   A    
C41   C45   A    
C12   C19   A    
C61   C62   S    
C43   C47   A    
C62   H28   S    
O4    V2    S    
C3    C33   S    
C37   H13   S    
C23   H4    S    
C64   H37   S    
