data_mof_unit_25117.cif
_audit_creation_date              2012-12-11T14:27:38-0500
_audit_creation_method            fapswitch 2.2
_symmetry_space_group_name_H-M    P1
_symmetry_Int_Tables_number       1
_space_group_crystal_system       triclinic
_cell_length_a                    6.942244
_cell_length_b                    14.793392
_cell_length_c                    16.13729
_cell_angle_alpha                 91.076222
_cell_angle_beta                  89.375531
_cell_angle_gamma                 90.377213
_cell_volume                      1656.86448305

loop_
_atom_site_label
_atom_site_type_symbol
_atom_type_description
_atom_site_fract_x
_atom_site_fract_y
_atom_site_fract_z
_atom_type_partial_charge
O1    O     O_R   0.494510 0.415970 0.413200 -0.539334
O2    O     O_R   0.823800 0.407430 0.586200 -0.556465
O3    O     O_R   0.994130 0.584030 0.586800 -0.538057
C1    C     C_R   0.652152 0.386366 0.614561 0.649089
O4    O     O_R   0.824220 0.405090 0.413820 -0.538387
O5    O     O_R   0.994560 0.581670 0.413190 -0.548087
C2    C     C_R   0.655218 0.382874 0.385438 0.749794
O6    O     O_R   0.494090 0.418330 0.586810 -0.530118
O7    O     O_3   0.660810 0.557940 0.500000 -0.371841
V1    V     V_3+5 0.935650 0.489250 0.500000 1.391414
O8    O     O_R   0.324270 0.592570 0.413800 -0.547477
C3    C     C_R   0.155842 0.616635 0.387125 0.623895
O9    O     O_R   0.323850 0.594910 0.586180 -0.540574
C4    C     C_R   0.155190 0.617552 0.614361 0.685245
V2    V     V_3+5 0.435660 0.510750 0.500000 1.401241
O10   O     O_3   0.160630 0.442060 0.500000 -0.364935
C5    C     C_3   0.004522 0.683041 0.757233 -0.202401
C6    C     C_3   0.169962 0.708749 0.817549 -0.190285
H1    H     H_    0.198840 0.676336 0.877581 0.120733
H2    H     H_    0.900478 0.627025 0.767401 0.130057
C7    C     C_3   0.122596 0.809634 0.806890 -0.073327
C8    C     C_3   0.956931 0.784932 0.747234 -0.156964
C9    C     C_3   0.100986 0.789141 0.673483 0.163283
C10   C     C_3   0.264755 0.814699 0.733347 0.196152
C11   C     C_3   0.310702 0.713815 0.742874 0.181802
C12   C     C_3   0.146871 0.688080 0.683040 -0.056236
H3    H     H_    0.812414 0.816161 0.748740 0.127650
C13   C     C_2   0.012091 0.686486 0.264373 -0.202011
C14   C     C_2   0.144768 0.691407 0.325378 0.259920
H4    H     H_    0.918740 0.627421 0.259703 0.085108
C15   C     C_2   0.981311 0.759293 0.202542 -0.099574
C16   C     C_2   0.128114 0.807994 0.170573 -0.266674
H5    H     H_    0.837008 0.767806 0.178734 0.118773
H6    H     H_    0.273872 0.793419 0.189729 0.151751
C17   C     C_2   0.772656 0.189914 0.761258 0.198320
C18   C     C_2   0.624646 0.176609 0.815871 -0.275085
H7    H     H_    0.504671 0.221562 0.820161 0.153005
C19   C     C_2   0.779966 0.269022 0.704587 -0.229041
C20   C     C_2   0.626690 0.316124 0.678461 0.258732
H8    H     H_    0.921450 0.286999 0.680463 0.108128
C21   C     C_2   0.779101 0.206826 0.211441 -0.127014
C22   C     C_2   0.614132 0.179421 0.174871 -0.311368
H9    H     H_    0.914764 0.177994 0.190152 0.138704
H10   H     H_    0.476770 0.207524 0.193994 0.127378
C23   C     C_2   0.791896 0.275759 0.279921 -0.136550
C24   C     C_2   0.638777 0.314160 0.318136 -0.309329
H11   H     H_    0.935841 0.294848 0.299665 0.135643
H12   H     H_    0.493725 0.295728 0.300227 0.130567
O11   O     O_R   0.771000 0.074870 0.906030 -0.535280
O12   O     O_R   0.440710 0.088040 0.078970 -0.544568
O13   O     O_R   0.270540 0.911420 0.079570 -0.541823
C25   C     C_R   0.609133 0.110350 0.107403 0.747509
O14   O     O_R   0.441280 0.085700 0.906600 -0.545623
O15   O     O_R   0.271110 0.909060 0.905960 -0.537321
C26   C     C_R   0.611863 0.105168 0.877479 0.723629
O16   O     O_R   0.770430 0.077230 0.079640 -0.536930
O17   O     O_3   0.604340 0.935220 0.992820 -0.373403
V3    V     V_3+5 0.329430 0.003850 0.992770 1.401081
O18   O     O_R   0.941400 0.898110 0.906530 -0.545729
C27   C     C_R   0.110573 0.877324 0.877201 0.704941
O19   O     O_R   0.940830 0.900450 0.078910 -0.540110
C28   C     C_R   0.109612 0.877704 0.106188 0.724834
V4    V     V_3+5 0.829450 0.982250 0.992700 1.404151
O20   O     O_3   0.104410 0.051000 0.992740 -0.372675
C29   C     C_3   0.941983 0.126074 0.756033 -0.721955
H13   H     H_    0.036904 0.141028 0.702088 0.203181
H14   H     H_    0.030810 0.133036 0.812606 0.216322
H15   H     H_    0.890572 0.055152 0.748316 0.195198
O21   O     O_3   0.441304 0.287570 0.699697 -0.570825
C30   C     C_3   0.327866 0.356267 0.739017 0.073015
H16   H     H_    0.203218 0.321399 0.768366 0.139283
H17   H     H_    0.263772 0.401583 0.692974 0.145637
C31   C     C_3   0.430249 0.411698 0.807871 -0.371979
H18   H     H_    0.494526 0.366756 0.854101 0.193077
H19   H     H_    0.547971 0.453091 0.780776 0.167028
C32   C     C_3   0.288483 0.474367 0.852827 -0.839908
H20   H     H_    0.214153 0.517268 0.807649 0.230838
H21   H     H_    0.366908 0.518576 0.897624 0.233915
H22   H     H_    0.179106 0.434221 0.887177 0.229560
C33   C     C_3   0.065963 0.837007 0.592494 -0.826682
H23   H     H_    0.945214 0.885270 0.600465 0.218075
H24   H     H_    0.196276 0.875328 0.573765 0.219382
H25   H     H_    0.033117 0.786564 0.542988 0.214800
C34   C     C_3   0.413262 0.889533 0.720069 -0.802130
H26   H     H_    0.498929 0.874764 0.663006 0.204459
H27   H     H_    0.338962 0.955209 0.713754 0.212807
H28   H     H_    0.511324 0.893947 0.773805 0.212998
C35   C     C_3   0.511813 0.674702 0.741683 -0.789208
H29   H     H_    0.588685 0.698409 0.797984 0.206535
H30   H     H_    0.503332 0.600079 0.741103 0.209216
H31   H     H_    0.590466 0.696706 0.685239 0.221604
O22   O     O_3   0.231167 0.775305 0.340564 -0.568729
C36   C     C_3   0.430419 0.769646 0.355902 0.081181
H32   H     H_    0.503941 0.822142 0.318436 0.131698
H33   H     H_    0.496907 0.704430 0.335651 0.108706
C37   C     C_3   0.466259 0.791805 0.447283 -0.294945
H34   H     H_    0.415735 0.861532 0.461512 0.191542
H35   H     H_    0.383672 0.744625 0.487003 0.206505
C38   C     C_3   0.678441 0.786050 0.468237 -0.800184
H36   H     H_    0.738646 0.719955 0.447891 0.252628
H37   H     H_    0.692774 0.793085 0.536431 0.222465
H38   H     H_    0.760745 0.841090 0.437773 0.236956

loop_
_geom_bond_atom_site_label_1
_geom_bond_atom_site_label_2
_ccdc_geom_bond_type
C36   H32   S    
O11   V4    S    
C3    C14   S    
C6    C7    S    
C31   H19   S    
C21   C22   D    
C17   C18   D    
C32   H22   S    
C1    O6    A    
O15   C27   A    
C23   C24   D    
O13   C28   A    
C5    C12   S    
C18   H7    S    
C34   H27   S    
O5    C3    A    
C19   C20   D    
C17   C29   S    
V2    O10   S    
C37   C38   S    
C5    H2    S    
C6    H1    S    
C31   H18   S    
C9    C12   S    
O19   V4    S    
O8    V2    S    
C34   H26   S    
C15   C16   D    
C29   H14   S    
C37   H35   S    
O12   C25   A    
C9    C10   S    
C1    C20   S    
C30   H16   S    
O1    V2    S    
C9    C33   S    
O7    V1    S    
C23   H11   S    
O18   C27   A    
C36   H33   S    
O9    C4    A    
C21   H9    S    
O19   C28   A    
C6    C11   S    
C22   H10   S    
C33   H25   S    
O17   V4    S    
O14   C26   A    
V3    O20   S    
C24   H12   S    
O12   V3    S    
C2    C24   S    
C17   C19   S    
C10   C11   S    
C7    C27   S    
C33   H24   S    
O4    C2    A    
C11   C12   S    
O11   C26   A    
C11   C35   S    
C4    C12   S    
C16   H6    S    
O2    C1    A    
C38   H36   S    
C35   H31   S    
O14   V3    S    
C29   H15   S    
C37   H34   S    
C30   C31   S    
C15   H5    S    
C5    C6    S    
C20   O21   S    
O16   V4    S    
O13   V3    S    
C32   H20   S    
O3    C4    A    
C38   H37   S    
C35   H30   S    
O6    V2    S    
C8    H3    S    
O9    V2    S    
C31   C32   S    
O2    V1    S    
O15   V3    S    
C13   C14   D    
O1    C2    A    
C13   C15   S    
C32   H21   S    
C33   H23   S    
O5    V1    S    
O8    C3    A    
C34   H28   S    
C36   C37   S    
O18   V4    S    
C5    C8    S    
C13   H4    S    
O7    V2    S    
C16   C28   S    
O4    V1    S    
O3    V1    S    
V1    O10   S    
C19   H8    S    
O17   V3    S    
O22   C36   S    
C10   C34   S    
O21   C30   S    
V4    O20   S    
C38   H38   S    
C35   H29   S    
C29   H13   S    
C7    C10   S    
C18   C26   S    
C21   C23   S    
C8    C9    S    
C30   H17   S    
C7    C8    S    
C14   O22   S    
C25   O16   A    
C22   C25   S    
