data_mof_unit_10501.cif
_audit_creation_date              2012-12-10T18:18:21-0500
_audit_creation_method            fapswitch 2.2
_symmetry_space_group_name_H-M    P1
_symmetry_Int_Tables_number       1
_space_group_crystal_system       triclinic
_cell_length_a                    14.059915
_cell_length_b                    15.042753
_cell_length_c                    15.766987
_cell_angle_alpha                 88.475352
_cell_angle_beta                  66.15144
_cell_angle_gamma                 91.529863
_cell_volume                      3046.34882265

loop_
_atom_site_label
_atom_site_type_symbol
_atom_type_description
_atom_site_fract_x
_atom_site_fract_y
_atom_site_fract_z
_atom_type_partial_charge
C1    C     C_R   0.498566 0.673051 0.504434 0.900381
C2    C     C_R   0.501430 0.326950 0.495574 0.900481
C3    C     C_R   0.439007 0.391085 0.056230 -0.219185
C4    C     C_R   0.561394 0.608716 0.943607 -0.219384
C5    C     C_R   0.362317 0.379494 0.023198 -0.201465
C6    C     C_R   0.638108 0.620246 0.976632 -0.201456
C7    C     C_R   0.410195 0.183006 0.531796 -0.268283
C8    C     C_R   0.589799 0.816997 0.468575 -0.268316
C9    C     C_R   0.504234 0.231358 0.488841 -0.134408
C10   C     C_R   0.495728 0.768637 0.511298 -0.134313
C11   C     C_R   0.599389 0.188042 0.445848 -0.073663
C12   C     C_R   0.400549 0.811952 0.554230 -0.073735
C13   C     C_R   0.597663 0.094538 0.449854 0.070595
C14   C     C_R   0.402326 0.905465 0.550473 0.070545
C15   C     C_R   0.501476 0.046544 0.496841 0.057397
C16   C     C_R   0.498529 0.953461 0.503581 0.057427
C17   C     C_R   0.408039 0.091388 0.537219 0.103925
C18   C     C_R   0.591969 0.908618 0.463230 0.103816
C19   C     C_R   0.689528 0.047635 0.408482 -0.223110
C20   C     C_R   0.310484 0.952378 0.591981 -0.223300
C21   C     C_R   0.686591 0.955635 0.415875 -0.206554
C22   C     C_R   0.313431 0.044378 0.584658 -0.206471
C23   C     C_R   0.434727 0.504285 0.676244 0.904636
C24   C     C_R   0.565274 0.495693 0.323759 0.904787
C25   C     C_R   0.175734 0.436295 0.551991 0.489124
C26   C     C_R   0.824266 0.563695 0.447988 0.489263
C27   C     C_R   0.227215 0.563118 0.448186 -0.109692
C28   C     C_R   0.772771 0.436911 0.551848 -0.110724
C29   C     C_R   0.127473 0.564540 0.447105 -0.003890
C30   C     C_R   0.872510 0.435493 0.552928 -0.004300
C31   C     C_R   0.050407 0.499954 0.500273 0.040754
C32   C     C_R   0.949579 0.500074 0.499752 0.040594
C33   C     C_R   0.074227 0.434995 0.553540 -0.071525
C34   C     C_R   0.925764 0.565020 0.446465 -0.071496
C35   C     C_R   0.103382 0.628906 0.393948 -0.239807
C36   C     C_R   0.896603 0.371122 0.606077 -0.239496
C37   C     C_R   0.003928 0.629358 0.393635 -0.142454
C38   C     C_R   0.996063 0.370658 0.606373 -0.142276
C39   C     C_R   0.393168 0.506935 0.778721 -0.222176
C40   C     C_R   0.606858 0.492971 0.221287 -0.222003
C41   C     C_R   0.284556 0.423649 0.919068 -0.242132
C42   C     C_R   0.715737 0.576041 0.080874 -0.242347
C43   C     C_R   0.297640 0.462537 0.834194 0.385842
C44   C     C_R   0.702516 0.537175 0.165799 0.386028
C45   C     C_R   0.460428 0.536381 0.821026 -0.122887
C46   C     C_R   0.539592 0.463608 0.178956 -0.123195
C47   C     C_R   0.439861 0.504316 0.913042 0.040981
C48   C     C_R   0.560374 0.495540 0.086860 0.040958
C49   C     C_R   0.360433 0.437066 0.953464 0.084650
C50   C     C_R   0.639894 0.562697 0.046422 0.084731
C51   C     C_R   0.500844 0.528635 0.963076 0.072436
C52   C     C_R   0.499480 0.471197 0.036770 0.072489
H1    H     H_    0.309016 0.321864 0.047520 0.151309
H2    H     H_    0.691462 0.677841 0.952302 0.151330
H3    H     H_    0.287058 0.612293 0.407470 0.153042
H4    H     H_    0.712922 0.387746 0.592578 0.153002
H5    H     H_    0.161492 0.679163 0.352618 0.145355
H6    H     H_    0.838493 0.320867 0.647407 0.145318
H7    H     H_    0.989411 0.680616 0.351484 0.199840
H8    H     H_    0.010581 0.319393 0.648514 0.199862
H9    H     H_    0.217522 0.379190 0.955952 0.178016
H10   H     H_    0.782866 0.620395 0.043976 0.178080
H11   H     H_    0.447980 0.337492 0.098808 0.165015
H12   H     H_    0.552433 0.662362 0.901090 0.165181
H13   H     H_    0.338327 0.216838 0.564786 0.223500
H14   H     H_    0.661688 0.783171 0.435650 0.223414
H15   H     H_    0.764444 0.081143 0.370163 0.163788
H16   H     H_    0.235575 0.918878 0.630352 0.163889
H17   H     H_    0.758500 0.921127 0.383868 0.164236
H18   H     H_    0.241534 0.078889 0.616731 0.164314
N1    N     N_R   0.249980 0.499930 0.499960 -0.117108
N2    N     N_R   0.750020 0.500070 0.500040 -0.116987
O1    O     O_R   0.419720 0.632140 0.499980 -0.625937
O2    O     O_R   0.580280 0.367860 0.500020 -0.625911
O3    O     O_R   0.580270 0.632160 0.499970 -0.566689
O4    O     O_R   0.419730 0.367840 0.500030 -0.566731
O5    O     O_R   0.373870 0.499980 0.632250 -0.528487
O6    O     O_R   0.626130 0.500020 0.367750 -0.528190
O7    O     O_R   0.534420 0.500000 0.632240 -0.621346
O8    O     O_R   0.465580 0.500000 0.367760 -0.621414
Zn1   Zn    Zn3+2 0.392800 0.499980 0.500010 1.033579
Zn2   Zn    Zn3+2 0.607200 0.500020 0.499990 1.033713
Cl1   Cl    Cl    0.207259 0.354374 0.616261 -0.594789
Cl2   Cl    Cl    0.792755 0.645550 0.383632 -0.594733
C53   C     C_R   0.441062 0.411724 0.236525 0.151718
C54   C     C_R   0.343463 0.446811 0.253343 -0.088148
C55   C     C_R   0.251863 0.397015 0.305532 -0.161934
C56   C     C_R   0.256513 0.313777 0.344763 -0.116782
C57   C     C_R   0.352886 0.279368 0.330461 -0.096388
C58   C     C_R   0.444777 0.327788 0.276178 -0.166436
H19   H     H_    0.338613 0.511931 0.224710 0.128667
H20   H     H_    0.177151 0.423269 0.316185 0.145159
H21   H     H_    0.185407 0.276006 0.386292 0.132146
H22   H     H_    0.356450 0.214850 0.360865 0.138364
H23   H     H_    0.518655 0.299637 0.264238 0.104731
C59   C     C_R   0.558738 0.588529 0.763455 0.151543
C60   C     C_R   0.554637 0.672556 0.724177 -0.167392
C61   C     C_R   0.646325 0.721217 0.669859 -0.096757
C62   C     C_R   0.742876 0.686954 0.655137 -0.116219
C63   C     C_R   0.747906 0.603634 0.694013 -0.161956
C64   C     C_R   0.656507 0.553611 0.746253 -0.087641
H24   H     H_    0.480617 0.700609 0.736476 0.105119
H25   H     H_    0.642466 0.785814 0.639762 0.138386
H26   H     H_    0.813826 0.724909 0.613577 0.132032
H27   H     H_    0.822757 0.577504 0.683052 0.144913
H28   H     H_    0.661643 0.488436 0.774616 0.128625
Cl3   Cl    Cl    0.804827 0.552851 0.201159 -0.575266
Cl4   Cl    Cl    0.195366 0.446572 0.798846 -0.575594
C65   C     C_R   0.699880 0.239471 0.396978 0.146069
C66   C     C_R   0.772819 0.244981 0.436927 -0.142076
C67   C     C_R   0.868790 0.290476 0.389342 -0.169665
C68   C     C_R   0.891865 0.331880 0.302527 -0.084106
C69   C     C_R   0.819732 0.326485 0.262394 -0.058859
C70   C     C_R   0.724167 0.280319 0.309279 -0.162787
H29   H     H_    0.755576 0.213411 0.504352 0.126380
H30   H     H_    0.925276 0.293747 0.419787 0.144585
H31   H     H_    0.965926 0.367503 0.266075 0.140661
H32   H     H_    0.838255 0.357287 0.194487 0.166909
H33   H     H_    0.670056 0.275242 0.276683 0.105036
C71   C     C_R   0.299939 0.760536 0.602581 0.146111
C72   C     C_R   0.275455 0.718808 0.689918 -0.160579
C73   C     C_R   0.179749 0.672712 0.736325 -0.058887
C74   C     C_R   0.107693 0.668219 0.696058 -0.086113
C75   C     C_R   0.130988 0.710454 0.609590 -0.169361
C76   C     C_R   0.227093 0.755884 0.562477 -0.143491
H34   H     H_    0.329534 0.723113 0.722598 0.104386
H35   H     H_    0.161051 0.641272 0.803979 0.167724
H36   H     H_    0.033529 0.632642 0.732141 0.140429
H37   H     H_    0.074577 0.707865 0.579035 0.144750
H38   H     H_    0.244497 0.788103 0.495314 0.126729

loop_
_geom_bond_atom_site_label_1
_geom_bond_atom_site_label_2
_ccdc_geom_bond_type
C55   C56   A    
C8    H14   S    
C11   C65   S    
C34   C37   A    
C26   N2    A    
C67   C68   A    
C41   H9    S    
C60   C61   A    
C28   H4    S    
C27   N1    A    
C58   H23   S    
C47   C49   A    
C53   C54   A    
C40   C46   A    
C63   H27   S    
C5    H1    S    
C35   C37   A    
O2    Zn2   S    
C36   H6    S    
C54   H19   S    
C68   H31   S    
C27   H3    S    
C27   C29   A    
C61   H25   S    
C18   C21   A    
C57   H22   S    
C15   C17   A    
C41   C49   A    
C73   H35   S    
C66   C67   A    
C12   C71   S    
C76   H38   S    
C26   C34   A    
C31   C32   A    
C7    C17   A    
C31   C33   A    
C19   H15   S    
C67   H30   S    
C25   N1    A    
C42   H10   S    
C40   C44   A    
C70   H33   S    
C2    O2    A    
C39   C45   A    
C46   C53   S    
C48   C50   A    
C62   H26   S    
C59   C64   A    
C41   C43   A    
C5    C49   A    
C28   N2    A    
C42   C44   A    
C6    H2    S    
O1    Zn1   S    
C68   C69   A    
C24   O8    A    
C45   C47   A    
C46   C48   A    
C13   C19   A    
C4    C51   A    
C51   C52   A    
C1    O3    A    
C14   C20   A    
C74   C75   A    
C4    C6    A    
C71   C76   A    
C39   C43   A    
C6    C50   A    
C21   H17   S    
C32   C34   A    
C2    C9    S    
C7    H13   S    
O6    Zn2   S    
C62   C63   A    
O5    Zn1   S    
C3    C52   A    
C59   C60   A    
C16   C18   A    
C23   O5    A    
C9    C11   A    
C72   C73   A    
C37   H7    S    
C10   C12   A    
C65   C70   A    
C42   C50   A    
C38   H8    S    
C24   O6    A    
C12   C14   A    
C13   C15   A    
C14   C16   A    
C2    O4    A    
C71   C72   A    
C69   C70   A    
C44   Cl3   S    
C64   H28   S    
C7    C9    A    
C4    H12   S    
C56   H21   S    
C26   Cl2   S    
C19   C21   A    
C54   C55   A    
C20   H16   S    
C1    C10   S    
C60   H24   S    
C20   C22   A    
O8    Zn1   S    
C3    C5    A    
O4    Zn1   S    
O7    Zn2   S    
C47   C51   A    
C53   C58   A    
O3    Zn2   S    
C3    H11   S    
C29   C35   A    
C17   C22   A    
C30   C36   A    
C35   H5    S    
C1    O1    A    
C36   C38   A    
C73   C74   A    
C72   H34   S    
C29   C31   A    
C65   C66   A    
C30   C32   A    
C11   C13   A    
C74   H36   S    
C23   C39   S    
C28   C30   A    
C63   C64   A    
C24   C40   S    
C75   H37   S    
C43   Cl4   S    
C8    C18   A    
C69   H32   S    
C48   C52   A    
C56   C57   A    
C8    C10   A    
C61   C62   A    
C25   Cl1   S    
C33   C38   A    
C23   O7    A    
C57   C58   A    
C55   H20   S    
C45   C59   S    
C66   H29   S    
C22   H18   S    
N2    Zn2   S    
C15   C16   A    
C25   C33   A    
C75   C76   A    
N1    Zn1   S    
