data_mof_unit_42460.cif
_audit_creation_date              2012-12-11T14:58:40-0500
_audit_creation_method            fapswitch 2.2
_symmetry_space_group_name_H-M    P1
_symmetry_Int_Tables_number       1
_space_group_crystal_system       triclinic
_cell_length_a                    10.992965
_cell_length_b                    10.966138
_cell_length_c                    18.75947
_cell_angle_alpha                 90.155546
_cell_angle_beta                  90.571897
_cell_angle_gamma                 59.53529
_cell_volume                      1949.14306251

loop_
_atom_site_label
_atom_site_type_symbol
_atom_type_description
_atom_site_fract_x
_atom_site_fract_y
_atom_site_fract_z
_atom_type_partial_charge
C1    C     C_R   0.356979 0.776149 0.398773 0.535610
C2    C     C_R   0.252374 0.450236 0.194300 -0.148943
C3    C     C_R   0.247682 0.453853 0.268418 -0.031465
C4    C     C_R   0.388278 0.357983 0.385714 0.550708
C5    C     C_R   0.833978 0.735027 0.350524 -0.095089
C6    C     C_R   0.856608 0.627695 0.303130 -0.116639
C7    C     C_R   0.991977 0.534798 0.278470 -0.114113
C8    C     C_R   0.106108 0.549453 0.299213 0.008406
C9    C     C_R   0.370183 0.354492 0.307746 0.007503
C10   C     C_R   0.947762 0.262989 0.307034 -0.154769
C11   C     C_R   0.977094 0.249217 0.234818 -0.140059
C12   C     C_R   0.622850 0.135927 0.161768 0.057737
C13   C     C_R   0.869569 0.327527 0.184832 0.029522
C14   C     C_R   0.730163 0.412406 0.206062 -0.156552
C15   C     C_R   0.700037 0.424007 0.278334 -0.131268
C16   C     C_R   0.775641 0.378977 0.402632 0.539839
C17   C     C_R   0.810125 0.354198 0.328508 0.042302
C18   C     C_R   0.458734 0.824391 0.292756 -0.142162
C19   C     C_R   0.450648 0.844529 0.219130 -0.151263
C20   C     C_R   0.323559 0.882880 0.184304 0.027651
C21   C     C_R   0.203244 0.913973 0.224479 -0.136326
C22   C     C_R   0.210112 0.903403 0.296976 -0.161682
C23   C     C_R   0.365418 0.339745 0.158475 -0.004661
C24   C     C_R   0.339917 0.845701 0.330851 0.025492
C25   C     C_R   0.377724 0.199306 0.692933 -0.140554
C26   C     C_R   0.365172 0.185582 0.764971 -0.123778
C27   C     C_R   0.296702 0.306509 0.808428 0.025576
C28   C     C_R   0.345672 0.767582 0.604978 0.548750
C29   C     C_R   0.229127 0.441379 0.778556 -0.154415
C30   C     C_R   0.240030 0.455265 0.705915 -0.133773
C31   C     C_R   0.320630 0.334006 0.663797 0.028382
C32   C     C_R   0.908267 0.392109 0.707162 -0.115631
C33   C     C_R   0.944873 0.374236 0.778610 -0.101147
C34   C     C_R   0.492216 0.259940 0.270104 -0.147584
C35   C     C_R   0.919498 0.284751 0.820905 0.036009
C36   C     C_R   0.865988 0.204893 0.789738 -0.132097
C37   C     C_R   0.827503 0.223941 0.717839 -0.138418
C38   C     C_R   0.842636 0.322780 0.677193 0.024665
C39   C     C_R   0.195397 0.860345 0.710319 -0.157942
C40   C     C_R   0.368767 0.350494 0.595270 0.556863
C41   C     C_R   0.184030 0.871569 0.783481 -0.178437
C42   C     C_R   0.302384 0.839429 0.826079 0.040357
C43   C     C_R   0.435159 0.788350 0.794547 0.206659
C44   C     C_R   0.445772 0.777458 0.721025 -0.107599
C45   C     C_R   0.491999 0.248893 0.196285 -0.022194
C46   C     C_R   0.326245 0.812991 0.678634 -0.014483
C47   C     C_R   0.909280 0.315892 0.111289 0.545819
C48   C     C_R   0.331014 0.296679 0.090702 0.537261
C49   C     C_R   0.301781 0.908890 0.108124 0.551413
C50   C     C_R   0.947797 0.280632 0.897170 0.567042
C51   C     C_R   0.292370 0.285066 0.883843 0.533008
C52   C     C_R   0.768370 0.373508 0.609190 0.549495
C53   C     C_R   0.276618 0.891985 0.898599 0.572744
C54   C     C_R   0.861927 0.918982 0.093601 -0.097769
C55   C     C_R   0.789346 0.054534 0.063947 -0.068212
C56   C     C_R   0.076486 0.671761 0.335674 -0.050544
C57   C     C_R   0.672786 0.163606 0.098677 -0.056151
C58   C     C_3   0.917770 0.877313 0.417276 -0.263398
C59   C     C_3   0.909052 0.835268 0.494181 -0.293058
C60   C     C_3   0.881346 0.953369 0.546284 -0.424988
C61   C     C_R   0.944036 0.759319 0.366866 -0.001222
C62   C     C_R   0.696546 0.998328 0.190983 -0.096857
C63   C     C_R   0.816062 0.891123 0.157314 -0.125878
Cl1   Cl    Cl    0.591326 0.732604 0.844722 -0.599241
Cr1   Cr    Cr6+3 0.601770 0.606860 0.505860 1.004967
Cr2   Cr    Cr6+3 0.291380 0.601660 0.495070 0.990213
Cr3   Cr    Cr6+3 0.606880 0.291510 0.499120 0.980406
Cr4   Cr    Cr6+3 0.062440 0.063090 0.008210 0.980028
Cr5   Cr    Cr6+3 0.062880 0.375170 0.998920 1.027331
Cr6   Cr    Cr6+3 0.374700 0.061720 0.992470 1.071027
H1    H     H_    0.590232 0.191974 0.298401 0.142091
H2    H     H_    0.543165 0.824625 0.189678 0.126998
H3    H     H_    0.100311 0.950625 0.200445 0.159899
H4    H     H_    0.871936 0.785843 0.180004 0.122057
H5    H     H_    0.115325 0.929452 0.325424 0.109153
H6    H     H_    0.438464 0.105364 0.660919 0.127635
H7    H     H_    0.412406 0.079766 0.787001 0.164875
H8    H     H_    0.172707 0.534785 0.811420 0.129620
H9    H     H_    0.194785 0.560948 0.683974 0.145131
H10   H     H_    0.922846 0.467418 0.676636 0.134493
H11   H     H_    0.986938 0.435775 0.801752 0.146623
H12   H     H_    0.730272 0.803424 0.372217 0.107362
H13   H     H_    0.847065 0.133881 0.821426 0.132524
H14   H     H_    0.777284 0.169006 0.695568 0.133542
H15   H     H_    0.102569 0.885138 0.678728 0.134900
H16   H     H_    0.080733 0.911178 0.806367 0.140313
H17   H     H_    0.549163 0.734649 0.697535 0.170230
H18   H     H_    0.953271 0.835378 0.067010 0.117435
H19   H     H_    0.823690 0.075175 0.014004 0.149476
H20   H     H_    0.619008 0.268557 0.075356 0.103556
H21   H     H_    0.154928 0.699748 0.334249 0.163105
H22   H     H_    0.660253 0.973022 0.239124 0.100609
H23   H     H_    0.769694 0.617474 0.284409 0.127281
H24   H     H_    0.157895 0.523863 0.164763 0.135140
H25   H     H_    0.965556 0.980756 0.542872 0.159354
H26   H     H_    0.777623 0.048375 0.534095 0.193939
H27   H     H_    0.879319 0.918446 0.601543 0.124920
H28   H     H_    0.822537 0.811275 0.498716 0.150146
H29   H     H_    0.010056 0.738726 0.509245 0.192930
H30   H     H_    0.003147 0.902189 0.414637 0.158354
H31   H     H_    0.817962 0.974872 0.401786 0.143472
H32   H     H_    0.007634 0.457188 0.239249 0.138283
H33   H     H_    0.032182 0.208173 0.345752 0.110862
H34   H     H_    0.085601 0.187780 0.217916 0.126074
H35   H     H_    0.646467 0.470302 0.167365 0.114182
H36   H     H_    0.592151 0.491906 0.295490 0.124694
H37   H     H_    0.558596 0.783586 0.319380 0.119848
O1    O     O_R   0.748800 0.497470 0.428000 -0.513634
O2    O     O_R   0.417600 0.174890 0.067840 -0.503642
O3    O     O_R   0.375320 0.946260 0.070860 -0.484092
O4    O     O_R   0.476420 0.724060 0.429470 -0.507445
O5    O     O_R   0.160600 0.919630 0.926660 -0.546906
O6    O     O_R   0.933060 0.190520 0.936020 -0.527894
O7    O     O_R   0.908880 0.403460 0.925020 -0.466037
O8    O     O_R   0.179600 0.361450 0.918490 -0.530270
O9    O     O_R   0.391510 0.170860 0.907530 -0.506553
O10   O     O_R   0.351130 0.942530 0.922260 -0.451690
O11   O     O_3   0.166667 0.166667 0.999870 -0.287896
O12   O     O_R   0.300070 0.471040 0.567100 -0.510515
O13   O     O_R   0.264580 0.744340 0.416750 -0.556977
O14   O     O_R   0.309380 0.472470 0.418200 -0.497949
O15   O     O_R   0.501710 0.260430 0.414300 -0.535584
O16   O     O_R   0.728090 0.305600 0.428960 -0.517193
O17   O     O_R   0.738760 0.495930 0.588610 -0.521456
O18   O     O_R   0.467110 0.722640 0.578360 -0.506908
O19   O     O_R   0.254530 0.742800 0.577360 -0.531472
O20   O     O_R   0.491670 0.258900 0.574910 -0.525189
O21   O     O_R   0.718780 0.304180 0.577850 -0.517395
O22   O     O_3   0.500010 0.500010 0.500020 -0.240373
O23   O     O_R   0.186690 0.923650 0.086970 -0.535351
O24   O     O_R   0.957250 0.194250 0.084630 -0.510326
O25   O     O_R   0.934970 0.407490 0.085330 -0.510572
O26   O     O_R   0.203780 0.365190 0.067090 -0.510206

loop_
_geom_bond_atom_site_label_1
_geom_bond_atom_site_label_2
_ccdc_geom_bond_type
C25   C31   A    
C23   C45   A    
C27   C29   A    
C59   H29   S    
C41   C42   A    
C35   C36   A    
C8    C56   A    
C52   O21   A    
C7    C8    A    
C39   C41   A    
C41   H16   S    
C28   C46   S    
C26   C27   A    
C62   C63   A    
C18   C24   A    
C15   H36   S    
C36   C37   A    
C37   C38   A    
C42   C53   S    
C30   C31   A    
C53   O10   A    
C38   C52   S    
C54   C63   A    
C36   H13   S    
C21   H3    S    
Cr5   O11   S    
C31   C40   S    
C18   C19   A    
Cr4   O5    S    
Cr1   O17   S    
Cr6   O10   S    
C18   H37   S    
Cr1   O4    S    
Cr6   O3    S    
Cr4   O11   S    
C14   H35   S    
C29   H8    S    
C19   C20   A    
C27   C51   S    
C16   C17   S    
C7    H32   S    
C62   H22   S    
C37   H14   S    
C11   H34   S    
C32   C38   A    
C44   H17   S    
Cr1   O1    S    
Cr4   O6    S    
C52   O17   A    
Cr2   O22   S    
C58   C61   S    
C48   O2    A    
C59   C60   S    
Cr2   O13   S    
C13   C14   A    
C19   H2    S    
Cr3   O22   S    
C22   H5    S    
C44   C46   A    
C43   Cl1   S    
C56   H21   S    
Cr5   O7    S    
C26   H7    S    
C57   H20   S    
C5    C61   A    
C48   O26   A    
C2    H24   S    
C58   H30   S    
C3    C8    S    
C13   C47   S    
Cr6   O9    S    
C25   C26   A    
C40   O20   A    
C51   O8    A    
Cr2   O19   S    
C47   O24   A    
C50   O7    A    
C1    O13   A    
Cr1   O18   S    
Cr4   O24   S    
C43   C44   A    
C20   C49   S    
C3    C9    A    
Cr6   O2    S    
Cr3   O20   S    
C32   H10   S    
C12   C62   A    
C6    H23   S    
C35   C50   S    
Cr2   O14   S    
C4    O15   A    
C58   H31   S    
Cr4   O23   S    
C10   H33   S    
C34   C45   A    
C39   C46   A    
C12   C57   A    
C60   H26   S    
C53   O5    A    
C60   H27   S    
Cr2   O12   S    
C55   C57   A    
C9    C34   A    
C22   C24   A    
C42   C43   A    
C30   H9    S    
Cr3   O15   S    
C28   O18   A    
C15   C17   A    
C54   C55   A    
Cr5   O8    S    
Cr5   O26   S    
C23   C48   S    
C14   C15   A    
C16   O16   A    
C12   C45   S    
Cr3   O16   S    
Cr1   O22   S    
C6    C7    A    
C63   H4    S    
C28   O19   A    
C49   O23   A    
C51   O9    A    
C47   O25   A    
C25   H6    S    
C32   C33   A    
C50   O6    A    
C2    C3    A    
C58   C59   S    
C55   H19   S    
Cr3   O21   S    
C1    O4    A    
C54   H18   S    
C5    H12   S    
C11   C13   A    
C5    C6    A    
Cr6   O11   S    
Cr5   O25   S    
C33   C35   A    
C4    O14   A    
C10   C11   A    
C16   O1    A    
C29   C30   A    
C60   H25   S    
C40   O12   A    
C20   C21   A    
C1    C24   S    
C2    C23   A    
C59   H28   S    
C39   H15   S    
C56   C61   A    
C10   C17   A    
C4    C9    S    
C21   C22   A    
C33   H11   S    
C34   H1    S    
C49   O3    A    
