data_mof_unit_35881.cif
_audit_creation_date              2013-03-05T15:50:44-0500
_audit_creation_method            fapswitch 2.2
_symmetry_space_group_name_H-M    P1
_symmetry_Int_Tables_number       1
_space_group_crystal_system       triclinic
_cell_length_a                    22.894959
_cell_length_b                    7.246953
_cell_length_c                    20.708073
_cell_angle_alpha                 89.969377
_cell_angle_beta                  93.297746
_cell_angle_gamma                 89.982948
_cell_volume                      3430.16620465

loop_
_atom_site_label
_atom_site_type_symbol
_atom_site_description
_atom_site_fract_x
_atom_site_fract_y
_atom_site_fract_z
_atom_type_partial_charge
O1    O     O_R   0.438030 0.494310 0.439340 -0.587334
O2    O     O_R   0.561970 0.994310 0.560660 -0.596062
O3    O     O_R   0.556900 0.822900 0.435960 -0.587211
O4    O     O_R   0.443100 0.322900 0.564040 -0.587952
C1    C     C_R   0.575713 0.655989 0.421059 0.964436
C2    C     C_R   0.424298 0.155962 0.578948 0.964342
O5    O     O_R   0.438170 0.823950 0.431660 -0.595640
O6    O     O_R   0.561830 0.323950 0.568340 -0.583063
O7    O     O_R   0.442390 0.995390 0.556340 -0.580280
O8    O     O_R   0.557610 0.495390 0.443660 -0.581984
C3    C     C_R   0.418418 0.655352 0.415688 0.925685
C4    C     C_R   0.581371 0.155284 0.584544 0.924028
O9    O     O_3   0.501520 0.661170 0.540910 -0.282905
O10   O     O_3   0.498480 0.161170 0.459090 -0.283764
V1    V     V_3+5 0.499720 0.935580 0.492410 1.167917
V2    V     V_3+5 0.500280 0.435580 0.507590 1.174001
C5    C     C_R   0.827710 0.940320 0.860006 -0.076554
C6    C     C_R   0.169261 0.738598 0.134152 -0.108941
C7    C     C_R   0.868593 0.084279 0.866544 -0.217316
C8    C     C_R   0.132184 0.583871 0.132477 -0.200854
C9    C     C_R   0.860537 0.242207 0.827705 -0.155681
C10   C     C_R   0.143956 0.439431 0.176529 -0.144794
C11   C     C_R   0.812925 0.256767 0.781741 0.047188
C12   C     C_R   0.191206 0.450341 0.222992 0.048853
C13   C     C_R   0.771735 0.110797 0.775861 -0.102214
C14   C     C_R   0.228393 0.606925 0.224045 -0.075508
C15   C     C_R   0.778367 0.954015 0.816293 -0.024006
C16   C     C_R   0.218087 0.749896 0.178505 -0.013029
C17   C     C_R   0.806076 0.415076 0.742045 0.639627
C18   C     C_R   0.201734 0.307928 0.268655 0.631492
C19   C     C_R   0.757733 0.424051 0.696351 -0.390015
C20   C     C_R   0.249201 0.321565 0.314384 -0.372536
C21   C     C_R   0.717513 0.278732 0.689446 0.195118
C22   C     C_R   0.285825 0.476639 0.316132 0.172385
C23   C     C_R   0.723771 0.122381 0.729969 0.016280
C24   C     C_R   0.275959 0.619768 0.270465 0.033006
C25   C     C_R   0.681697 0.979156 0.724904 -0.067585
C26   C     C_R   0.313874 0.774338 0.271101 -0.061471
C27   C     C_R   0.686080 0.828612 0.768731 0.156423
C28   C     C_R   0.305487 0.912325 0.222817 0.169782
C29   C     C_R   0.734646 0.816200 0.813997 0.452761
C30   C     C_R   0.257489 0.899655 0.176835 0.477415
C31   C     C_R   0.670267 0.290360 0.643261 -0.138282
C32   C     C_R   0.332686 0.488713 0.362521 -0.159946
C33   C     C_R   0.629971 0.145242 0.635266 -0.184231
C34   C     C_R   0.369290 0.644353 0.365597 -0.183697
C35   C     C_R   0.636342 0.989856 0.675788 -0.112173
C36   C     C_R   0.359088 0.787244 0.320358 -0.117292
H1    H     H_    0.833601 0.819766 0.890651 0.172761
H2    H     H_    0.160609 0.849020 0.099644 0.169824
H3    H     H_    0.892253 0.352898 0.832853 0.179574
H4    H     H_    0.115403 0.320144 0.175395 0.172962
H5    H     H_    0.750214 0.545845 0.666787 0.136062
H6    H     H_    0.257843 0.208930 0.348059 0.149335
H7    H     H_    0.665632 0.411051 0.612412 0.123590
H8    H     H_    0.339955 0.377662 0.397172 0.130324
H9    H     H_    0.605513 0.877684 0.668632 0.176389
H10   H     H_    0.386888 0.907806 0.323828 0.177759
C37   C     C_3   0.240901 0.311426 0.801312 0.876427
C38   C     C_3   0.759085 0.811291 0.198583 0.881481
C39   C     C_3   0.256260 0.960345 0.807473 0.200948
C40   C     C_3   0.743858 0.460189 0.192725 0.198356
C41   C     C_3   0.308538 0.981930 0.761890 0.255646
C42   C     C_3   0.691631 0.481646 0.238382 0.257187
H11   H     H_    0.334575 0.345257 0.773245 0.216137
H12   H     H_    0.665354 0.844633 0.226527 0.216541
H13   H     H_    0.233729 0.827643 0.795989 0.114983
H14   H     H_    0.766458 0.327530 0.204218 0.115252
H15   H     H_    0.347836 0.027500 0.792459 0.131984
H16   H     H_    0.652241 0.526776 0.207846 0.130511
C43   C     C_1   0.379088 0.149936 0.625174 -0.319223
C44   C     C_1   0.620956 0.650042 0.374864 -0.321394
C45   C     C_3   0.209261 0.116080 0.794223 -0.220712
C46   C     C_3   0.790801 0.616029 0.205841 -0.221166
C47   C     C_3   0.290418 0.317915 0.750624 -0.696540
C48   C     C_3   0.709524 0.817771 0.249220 -0.698634
C49   C     C_3   0.294012 0.136383 0.710654 -0.104069
C50   C     C_3   0.706065 0.636485 0.289419 -0.103696
C51   C     C_3   0.233203 0.088431 0.675289 0.400897
C52   C     C_3   0.766912 0.588988 0.324823 0.400956
C53   C     C_3   0.182875 0.088492 0.723368 0.306413
C54   C     C_3   0.817215 0.588751 0.276713 0.306295
C55   C     C_1   0.341024 0.145885 0.663705 0.166832
C56   C     C_1   0.659044 0.646035 0.336359 0.166960
C57   C     C_1   0.161009 0.094019 0.839312 0.203981
C58   C     C_1   0.839051 0.593907 0.160757 0.206893
C59   C     C_1   0.121869 0.081875 0.876320 -0.306029
C60   C     C_1   0.878177 0.581793 0.123735 -0.305969
H17   H     H_    0.162785 0.947274 0.722062 -0.011214
H18   H     H_    0.837319 0.447509 0.278140 -0.011640
H19   H     H_    0.284246 0.439300 0.718704 0.235072
H20   H     H_    0.715567 0.939400 0.280988 0.235400
H21   H     H_    0.237402 0.940833 0.661481 0.089052
H22   H     H_    0.762801 0.441509 0.338860 0.088673
O11   O     O_R   0.942420 0.735670 0.056390 -0.580902
O12   O     O_R   0.057580 0.235670 0.943610 -0.578700
O13   O     O_R   0.061840 0.404850 0.068350 -0.585741
O14   O     O_R   0.938160 0.904850 0.931650 -0.587610
C61   C     C_R   0.081836 0.573480 0.083960 0.925172
C62   C     C_R   0.918398 0.073616 0.915755 0.924573
O15   O     O_R   0.943100 0.406010 0.064050 -0.593389
O16   O     O_R   0.056900 0.906010 0.935950 -0.594159
O17   O     O_R   0.938020 0.234710 0.939330 -0.586074
O18   O     O_R   0.061980 0.734710 0.060670 -0.592205
C63   C     C_R   0.924246 0.574060 0.078669 0.962319
C64   C     C_R   0.075772 0.074079 0.921353 0.962237
O19   O     O_3   0.998500 0.567790 0.959120 -0.286207
O20   O     O_3   0.001500 0.067790 0.040880 -0.287481
V3    V     V_3+5 0.000280 0.293330 0.007580 1.170841
V4    V     V_3+5 0.999720 0.793330 0.992420 1.167749
N1    N     N_R   0.266814 0.336161 0.868803 0.220052
O21   O     O_R   0.234580 0.318311 0.918251 -0.429204
O22   O     O_R   0.323044 0.350768 0.881044 -0.434899
N2    N     N_R   0.733217 0.835872 0.131050 0.219685
O23   O     O_R   0.765489 0.817877 0.081644 -0.443895
O24   O     O_R   0.676997 0.850727 0.118748 -0.441902
O25   O     O_3   0.275874 0.962789 0.873826 -0.577580
C65   C     C_3   0.309048 0.804556 0.891687 -0.063815
H23   H     H_    0.355968 0.842833 0.897602 0.146644
H24   H     H_    0.304154 0.688753 0.856750 0.156928
H25   H     H_    0.295192 0.754293 0.939030 0.156060
O26   O     O_3   0.724181 0.462625 0.126390 -0.574030
C66   C     C_3   0.690859 0.304701 0.108684 -0.048862
H26   H     H_    0.643886 0.342902 0.103589 0.142441
H27   H     H_    0.696282 0.188212 0.143319 0.151824
H28   H     H_    0.704108 0.255580 0.060953 0.163371
O27   O     O_3   0.317709 0.810377 0.730457 -0.647844
C67   C     C_3   0.376686 0.753425 0.738240 -0.180842
H29   H     H_    0.388633 0.718634 0.789531 0.146941
H30   H     H_    0.406954 0.859984 0.720836 0.150071
H31   H     H_    0.382349 0.627186 0.708981 0.169737
O28   O     O_3   0.682684 0.310207 0.270032 -0.645792
C68   C     C_3   0.623773 0.252662 0.262377 -0.192019
H32   H     H_    0.611882 0.216997 0.211165 0.146649
H33   H     H_    0.593380 0.359216 0.279539 0.147704
H34   H     H_    0.618248 0.126818 0.291923 0.170822
O29   O     O_3   0.140261 0.226308 0.707645 -0.552167
C69   C     C_3   0.091714 0.151346 0.671679 -0.160541
H35   H     H_    0.066710 0.057257 0.702324 0.110710
H36   H     H_    0.105288 0.077793 0.627833 0.147371
H37   H     H_    0.062199 0.265783 0.655486 0.146294
O30   O     O_3   0.859825 0.726575 0.292285 -0.551958
C70   C     C_3   0.908390 0.651708 0.328303 -0.164510
H38   H     H_    0.933385 0.557403 0.297742 0.109354
H39   H     H_    0.894837 0.578415 0.372232 0.148214
H40   H     H_    0.937907 0.766171 0.344362 0.144434
O31   O     O_3   0.218570 0.172890 0.614166 -0.617460
C71   C     C_3   0.223153 0.366833 0.613136 -0.092424
H41   H     H_    0.202726 0.434673 0.654042 0.205002
H42   H     H_    0.199215 0.417548 0.568536 0.129079
H43   H     H_    0.269352 0.409914 0.609778 0.120847
O32   O     O_3   0.781529 0.674035 0.385810 -0.617731
C72   C     C_3   0.776854 0.867973 0.386541 -0.091817
H44   H     H_    0.797217 0.935466 0.345509 0.205092
H45   H     H_    0.800805 0.919163 0.431037 0.128387
H46   H     H_    0.730638 0.910973 0.389879 0.121335
O33   O     O_3   0.201481 0.458113 0.782015 -0.644458
C73   C     C_3   0.169126 0.538098 0.830966 -0.107070
H47   H     H_    0.197788 0.610922 0.867627 0.144717
H48   H     H_    0.140638 0.437904 0.853960 0.162321
H49   H     H_    0.139675 0.644080 0.808150 0.130586
O34   O     O_3   0.798433 0.958082 0.217821 -0.645056
C74   C     C_3   0.830819 0.037953 0.168856 -0.109000
H50   H     H_    0.802172 0.110794 0.132143 0.145810
H51   H     H_    0.859327 0.937705 0.145931 0.162009
H52   H     H_    0.860257 0.143895 0.191641 0.130013
O35   O     O_3   0.844866 0.561751 0.753478 -0.619280
C75   C     C_3   0.854165 0.666289 0.697478 -0.280679
H53   H     H_    0.818196 0.767571 0.688257 0.147620
H54   H     H_    0.859862 0.577360 0.654436 0.128666
H55   H     H_    0.895103 0.746557 0.706164 0.174605
O36   O     O_3   0.168349 0.148716 0.265344 -0.614392
C76   C     C_3   0.130509 0.149047 0.316678 -0.323840
H56   H     H_    0.102463 0.274781 0.315611 0.130016
H57   H     H_    0.155266 0.136192 0.364272 0.152369
H58   H     H_    0.101115 0.027719 0.311184 0.184282
N3    N     N_R   0.639709 0.694748 0.770711 0.241627
O37   O     O_R   0.651676 0.521126 0.780346 -0.358096
O38   O     O_R   0.585947 0.749932 0.774767 -0.410378
N4    N     N_R   0.347181 0.059561 0.217496 0.240678
O39   O     O_R   0.402522 0.021227 0.214835 -0.407415
O40   O     O_R   0.329508 0.226186 0.203467 -0.359557
O41   O     O_3   0.739562 0.667163 0.855840 -0.602147
C77   C     C_3   0.711727 0.711953 0.912844 -0.036914
H59   H     H_    0.716614 0.593709 0.946778 0.184513
H60   H     H_    0.664084 0.736175 0.902790 0.155927
H61   H     H_    0.732182 0.834279 0.937489 0.126007
O42   O     O_3   0.248678 0.036411 0.130559 -0.595423
C78   C     C_3   0.278679 0.986943 0.075478 -0.072831
H62   H     H_    0.326710 0.978731 0.086750 0.159751
H63   H     H_    0.270855 0.095138 0.038061 0.215951
H64   H     H_    0.262302 0.854156 0.054421 0.093299

loop_
_geom_bond_atom_site_label_1
_geom_bond_atom_site_label_2
_geom_bond_distance
_ccdc_geom_bond_type
C70   H40   1.109122 S    
C26   C28   1.418918 A    
O33   C73   1.413869 S    
O14   V4    2.004352 S    
C38   N2    1.497536 S    
C74   H50   1.108512 S    
O1    C3    1.333164 A    
C71   H43   1.108917 S    
O31   C71   1.409680 S    
C54   O30   1.420561 S    
O2    C4    1.333589 A    
C67   H29   1.110319 S    
C2    O7    1.329462 A    
N2    O23   1.302586 A    
C18   O36   1.383755 S    
C66   H26   1.109540 S    
C27   C29   1.415280 A    
C76   H56   1.114026 S    
C77   H59   1.109441 S    
C53   O29   1.420534 S    
C59   C64   1.449114 S    
C11   C17   1.414418 A    
C23   C25   1.416100 A    
C48   C50   1.559395 S    
C51   H21   1.112903 S    
C1    C44   1.450480 S    
C58   C60   1.215306 T    
C66   H27   1.109742 S    
C49   C55   1.492922 S    
O15   V3    1.981067 S    
C70   H38   1.112184 S    
O20   V3    1.773237 S    
C70   H39   1.112648 S    
C33   C35   1.406510 A    
C45   C53   1.567224 S    
C38   C46   1.593375 S    
C39   C41   1.574165 S    
C39   H13   1.110824 S    
C65   H23   1.109510 S    
C40   C42   1.574169 S    
O11   C63   1.333960 A    
C73   H49   1.109249 S    
O13   C61   1.338364 A    
C28   N4    1.440292 S    
O11   V4    1.962173 S    
C75   H55   1.109164 S    
C41   H15   1.119905 S    
C32   C34   1.404651 A    
O28   C68   1.412097 S    
N3    O38   1.301423 A    
C68   H34   1.109247 S    
C38   O34   1.435846 S    
C19   C21   1.401089 A    
C42   H16   1.119871 S    
C72   H45   1.108924 S    
C40   O26   1.420913 S    
C37   C45   1.593419 S    
C6    C8    1.405807 A    
C47   H19   1.104195 S    
C53   H17   1.121843 S    
C75   H54   1.113894 S    
C61   O18   1.333547 A    
O6    V2    2.004276 S    
C73   H48   1.102278 S    
C42   C50   1.564175 S    
C46   C54   1.567233 S    
C20   H6    1.084032 S    
C27   N3    1.440656 S    
N4    O40   1.300781 A    
C65   H24   1.109789 S    
O26   C66   1.412472 S    
C76   H57   1.112178 S    
O15   C63   1.332763 A    
C2    C43   1.450385 S    
C34   C36   1.406454 A    
C57   C59   1.215332 T    
C39   O25   1.420925 S    
C5    C15   1.409849 A    
C42   O28   1.424721 S    
C74   H52   1.109249 S    
C6    C16   1.407812 A    
C71   H41   1.106292 S    
C52   C54   1.565547 S    
C5    H1    1.083352 S    
O35   C75   1.411237 S    
C51   C53   1.565557 S    
C5    C7    1.403219 A    
C66   H28   1.109282 S    
C51   O31   1.428024 S    
O5    V1    2.005159 S    
C15   C29   1.413114 A    
C39   C45   1.572220 S    
C38   C48   1.589400 S    
C62   O17   1.333701 A    
C19   H5    1.081985 S    
O42   C78   1.411293 S    
C65   H25   1.109020 S    
C21   C31   1.404521 A    
O4    V2    1.980609 S    
C78   H64   1.112924 S    
O5    C3    1.338018 A    
O41   C77   1.411294 S    
C18   C20   1.403318 A    
C35   H9    1.081383 S    
O13   V3    2.005232 S    
C32   H8    1.084367 S    
C37   N1    1.497449 S    
O6    C4    1.337452 A    
H12   C48   1.107487 S    
C49   C51   1.574365 S    
C22   C32   1.401101 A    
N1    O22   1.302076 A    
O1    V2    1.994271 S    
C46   C58   1.495423 S    
C72   H46   1.108929 S    
O2    V1    1.994775 S    
C31   C33   1.402765 A    
C45   C57   1.495470 S    
C44   C56   1.215348 T    
O12   V3    1.962307 S    
C69   H36   1.112649 S    
C13   C23   1.412749 A    
C14   C24   1.413639 A    
C75   H53   1.111190 S    
C48   H20   1.104118 S    
O14   C62   1.338280 A    
C9    C11   1.409181 A    
C73   H47   1.108522 S    
O19   V4    1.773931 S    
C10   C12   1.408078 A    
O16   V4    1.980869 S    
O4    C2    1.326425 A    
C25   C35   1.413218 A    
C8    C10   1.403932 A    
C52   H22   1.112887 S    
O27   C67   1.412140 S    
C67   H31   1.109243 S    
C37   C47   1.589391 S    
C9    H3    1.083352 S    
O3    V1    1.980804 S    
O36   C76   1.409452 S    
C6    H2    1.083166 S    
C10   H4    1.083410 S    
O34   C74   1.413876 S    
C41   C49   1.564312 S    
C76   H58   1.109319 S    
C30   O42   1.384859 S    
C52   O32   1.427994 S    
O12   C64   1.334021 A    
N1    O21   1.302587 A    
C74   H51   1.102237 S    
O30   C70   1.410954 S    
C26   C36   1.414020 A    
C40   C46   1.572201 S    
C12   C14   1.418262 A    
C71   H42   1.108941 S    
C4    C33   1.487286 S    
O3    C1    1.326367 A    
C69   H37   1.109114 S    
C67   H30   1.111397 S    
N2    O24   1.302083 A    
C7    C62   1.486901 S    
O9    V2    1.774425 S    
C36   H10   1.081096 S    
C31   H7    1.084396 S    
C13   C15   1.413961 A    
O29   C69   1.410941 S    
C14   C16   1.411290 A    
C54   H18   1.121843 S    
C77   H61   1.113044 S    
C40   H14   1.110815 S    
O17   V3    1.994760 S    
C17   O35   1.396877 S    
C24   C26   1.416961 A    
O7    V1    1.965584 S    
C1    O8    1.329441 A    
C17   C19   1.415631 A    
O8    V2    1.965443 S    
O25   C65   1.412547 S    
O18   V4    1.994254 S    
C60   C63   1.449069 S    
C37   O33   1.435871 S    
C68   H32   1.110275 S    
C8    C61   1.486856 S    
C16   C30   1.413150 A    
H11   C47   1.107481 S    
C21   C23   1.411948 A    
C22   C24   1.412604 A    
C77   H60   1.112498 S    
O16   C64   1.332854 A    
C50   C52   1.574354 S    
C11   C13   1.417990 A    
C78   H62   1.112536 S    
C12   C18   1.410653 A    
C69   H35   1.112178 S    
C50   C56   1.492998 S    
O32   C72   1.409650 S    
C25   C27   1.418592 A    
N3    O37   1.300481 A    
C47   C49   1.559320 S    
C68   H33   1.111400 S    
C28   C30   1.415090 A    
O10   V1    1.773730 S    
C29   O41   1.384818 S    
C3    C34   1.487743 S    
C43   C55   1.215300 T    
C78   H63   1.109305 S    
C72   H44   1.106263 S    
C41   O27   1.424725 S    
N4    O39   1.301329 A    
C20   C22   1.401602 A    
C7    C9    1.404485 A    
