data_mof_unit_51740.cif
_audit_creation_date              2012-12-11T16:56:21-0500
_audit_creation_method            fapswitch 2.2
_symmetry_space_group_name_H-M    P1
_symmetry_Int_Tables_number       1
_space_group_crystal_system       triclinic
_cell_length_a                    6.989265
_cell_length_b                    14.903895
_cell_length_c                    15.873171
_cell_angle_alpha                 90.438605
_cell_angle_beta                  90.183284
_cell_angle_gamma                 90.487765
_cell_volume                      1653.34774696

loop_
_atom_site_label
_atom_site_type_symbol
_atom_type_description
_atom_site_fract_x
_atom_site_fract_y
_atom_site_fract_z
_atom_type_partial_charge
O1    O     O_R   0.505830 0.583360 0.413880 -0.545897
O2    O     O_R   0.175830 0.595460 0.585520 -0.544122
O3    O     O_R   0.005520 0.416640 0.586120 -0.543421
C1    C     C_R   0.345137 0.617188 0.614473 0.705379
O4    O     O_R   0.176120 0.594390 0.414490 -0.547593
O5    O     O_R   0.005810 0.415570 0.413870 -0.539425
C2    C     C_R   0.346143 0.617224 0.386508 0.679933
O6    O     O_R   0.505540 0.584430 0.586130 -0.535539
O7    O     O_3   0.339200 0.441330 0.500000 -0.361225
V1    V     V_3+5 0.064350 0.510880 0.500000 1.389430
O8    O     O_R   0.676100 0.404540 0.414480 -0.549664
C3    C     C_R   0.843242 0.381851 0.385975 0.666292
O9    O     O_R   0.675810 0.405610 0.585510 -0.499434
C4    C     C_R   0.844211 0.383884 0.613930 0.779510
V2    V     V_3+5 0.564340 0.489120 0.500000 1.436978
O10   O     O_3   0.839360 0.558670 0.500000 -0.385406
C5    C     C_2   0.721067 0.209087 0.787598 -0.231539
C6    C     C_2   0.885593 0.183797 0.824673 -0.354052
H1    H     H_    0.589021 0.176486 0.807084 0.142747
H2    H     H_    0.020393 0.215746 0.808838 0.127474
C7    C     C_2   0.703177 0.281477 0.722730 0.380957
C8    C     C_2   0.856337 0.314063 0.679985 -0.326656
H3    H     H_    0.998262 0.288586 0.692322 0.095294
C9    C     C_R   0.724100 0.230130 0.197967 0.098682
C10   C     C_R   0.884160 0.177363 0.189310 -0.108463
C11   C     C_R   0.033287 0.192267 0.247319 -0.181182
H4    H     H_    0.158626 0.150460 0.245534 0.134622
C12   C     C_R   0.015277 0.257674 0.311713 -0.166288
H5    H     H_    0.127399 0.263756 0.358475 0.126987
C13   C     C_R   0.850481 0.311864 0.318402 -0.132380
C14   C     C_R   0.708515 0.300853 0.254581 0.054332
C15   C     C_3   0.491814 0.287529 0.254545 -0.172333
C16   C     C_3   0.522754 0.202187 0.202330 -0.436287
H6    H     H_    0.436019 0.275813 0.318857 0.127218
H7    H     H_    0.466519 0.195346 0.137573 0.182519
H8    H     H_    0.503776 0.140607 0.240262 0.143053
C17   C     C_R   0.510577 0.745023 0.691397 0.103037
C18   C     C_R   0.353625 0.686740 0.682009 -0.113174
C19   C     C_R   0.200474 0.697897 0.738655 -0.174527
H9    H     H_    0.076599 0.654308 0.734210 0.131917
C20   C     C_R   0.211642 0.760784 0.805470 -0.182448
H10   H     H_    0.095198 0.764484 0.849974 0.131379
C21   C     C_R   0.376952 0.814012 0.818095 -0.113463
C22   C     C_R   0.522044 0.806887 0.757721 0.106104
C23   C     C_3   0.730268 0.790739 0.769849 -0.414382
C24   C     C_3   0.717789 0.723748 0.697363 -0.400883
H11   H     H_    0.761066 0.759001 0.831520 0.169056
H12   H     H_    0.818450 0.850997 0.755133 0.174582
H13   H     H_    0.742060 0.653256 0.716881 0.168044
H14   H     H_    0.798116 0.745450 0.640611 0.176483
C25   C     C_R   0.515290 0.746083 0.312122 0.084475
C26   C     C_R   0.357430 0.689245 0.321580 -0.127089
C27   C     C_R   0.201579 0.707522 0.269505 -0.229869
H15   H     H_    0.080073 0.665842 0.274420 0.156666
C28   C     C_R   0.210428 0.772426 0.205650 -0.156923
H16   H     H_    0.093602 0.775864 0.161023 0.139119
C29   C     C_R   0.374070 0.827261 0.196156 -0.121685
C30   C     C_R   0.515311 0.820537 0.259300 0.044974
C31   C     C_3   0.729551 0.823069 0.254544 -0.218363
C32   C     C_3   0.720046 0.727952 0.292716 -0.197446
H17   H     H_    0.788645 0.828811 0.190237 0.140916
H18   H     H_    0.802954 0.716835 0.351381 0.125737
O11   O     O_R   0.229930 0.912420 0.917160 -0.538141
O12   O     O_R   0.559420 0.902500 0.088780 -0.549655
O13   O     O_R   0.729660 0.081330 0.089380 -0.540167
C33   C     C_R   0.390578 0.886581 0.121600 0.679907
O14   O     O_R   0.559650 0.901420 0.917750 -0.538560
O15   O     O_R   0.729880 0.080250 0.917130 -0.534852
C34   C     C_R   0.390042 0.879415 0.889061 0.700538
O16   O     O_R   0.229700 0.913500 0.089410 -0.537707
O17   O     O_3   0.396250 0.055540 0.003280 -0.375489
V3    V     V_3+5 0.671130 0.986010 0.003260 1.382627
O18   O     O_R   0.059600 0.091310 0.917720 -0.544873
C35   C     C_R   0.891112 0.113478 0.889936 0.773008
O19   O     O_R   0.059370 0.092380 0.088750 -0.548959
C36   C     C_R   0.892112 0.110246 0.120459 0.700432
V4    V     V_3+5 0.171120 0.007820 0.003230 1.382098
O20   O     O_3   0.896130 0.938240 0.003240 -0.376028
C37   C     C_R   0.808090 0.897017 0.312480 0.128322
C38   C     C_R   0.964334 0.883070 0.367055 -0.120923
C39   C     C_R   0.032310 0.952228 0.419407 -0.134221
C40   C     C_R   0.944615 0.035963 0.418730 -0.096738
C41   C     C_R   0.790133 0.050966 0.364970 -0.122283
C42   C     C_R   0.724993 0.982764 0.310918 -0.127192
H19   H     H_    0.034014 0.819130 0.370454 0.123193
H20   H     H_    0.152383 0.940581 0.461039 0.113277
H21   H     H_    0.996404 0.089247 0.459766 0.107185
H22   H     H_    0.721710 0.115799 0.364754 0.124296
H23   H     H_    0.607145 0.996212 0.268696 0.093054
C43   C     C_R   0.737921 0.652811 0.225958 0.112601
C44   C     C_R   0.694335 0.665555 0.139444 -0.136718
C45   C     C_R   0.722325 0.597228 0.080333 -0.144648
C46   C     C_R   0.796056 0.515423 0.105661 -0.061437
C47   C     C_R   0.843461 0.502262 0.189992 -0.112691
C48   C     C_R   0.806861 0.568626 0.250278 -0.186004
H24   H     H_    0.635499 0.727084 0.116204 0.116971
H25   H     H_    0.686333 0.607802 0.014796 0.107941
H26   H     H_    0.818285 0.462575 0.059762 0.104674
H27   H     H_    0.911661 0.440966 0.208217 0.131174
H28   H     H_    0.842515 0.556352 0.315483 0.134238
O21   O     O_3   0.523517 0.314931 0.704833 -0.633753
H29   H     H_    0.428230 0.285817 0.742052 0.270465
C49   C     C_R   0.385509 0.359344 0.204579 0.149667
C50   C     C_R   0.269333 0.339005 0.133252 -0.110872
C51   C     C_R   0.208707 0.406452 0.079300 -0.157674
C52   C     C_R   0.250886 0.495586 0.098265 -0.088689
C53   C     C_R   0.344388 0.516883 0.173305 -0.111686
C54   C     C_R   0.409847 0.449632 0.226768 -0.131244
H30   H     H_    0.225238 0.271670 0.116977 0.117637
H31   H     H_    0.128074 0.389455 0.022990 0.107561
H32   H     H_    0.205550 0.548351 0.056380 0.113485
H33   H     H_    0.373762 0.585727 0.187568 0.146600
H34   H     H_    0.487963 0.467804 0.283161 0.127517

loop_
_geom_bond_atom_site_label_1
_geom_bond_atom_site_label_2
_ccdc_geom_bond_type
C51   H31   S    
C46   C47   A    
C20   H10   S    
C29   C33   S    
C1    O6    A    
C39   C40   A    
C43   C44   A    
C43   C48   A    
C19   C20   A    
C23   C24   S    
C26   C27   A    
C24   H13   S    
C11   H4    S    
C17   C18   A    
O13   C36   A    
C12   H5    S    
C2    C26   S    
O5    C3    A    
C50   H30   S    
C52   C53   A    
O15   C35   A    
C40   H21   S    
C16   H8    S    
C32   H18   S    
O14   V3    S    
O18   C35   A    
V3    O20   S    
C16   H7    S    
C44   H24   S    
O8    V2    S    
C41   C42   A    
C53   C54   A    
C49   C54   A    
O1    V2    S    
O7    V1    S    
C39   H20   S    
C7    O21   S    
C27   C28   A    
C41   H22   S    
C31   C32   S    
C6    C35   S    
O9    C4    A    
O16   V4    S    
C20   C21   A    
C50   C51   A    
C45   H25   S    
C52   H32   S    
C23   H11   S    
C18   C19   A    
C31   H17   S    
C25   C26   A    
O21   H29   S    
O11   C34   A    
C9    C10   A    
C31   C37   S    
C44   C45   A    
O4    C2    A    
C48   H28   S    
C10   C11   A    
V4    O20   S    
C5    C7    S    
O14   C34   A    
O12   C33   A    
C54   H34   S    
O2    C1    A    
O19   C36   A    
C38   H19   S    
C14   C15   S    
C13   C14   A    
O15   V3    S    
C28   H16   S    
C5    C6    D    
C15   C49   S    
C25   C30   A    
O19   V4    S    
O3    C4    A    
C1    C18   S    
O6    V2    S    
C28   C29   A    
C21   C22   A    
C42   H23   S    
O2    V1    S    
O17   V4    S    
C22   C23   S    
O11   V4    S    
C23   H12   S    
C37   C42   A    
C3    C13   S    
O1    C2    A    
C38   C39   A    
O5    V1    S    
O8    C3    A    
C27   H15   S    
C32   C43   S    
O13   V3    S    
C51   C52   A    
C24   H14   S    
C11   C12   A    
C9    C16   S    
C10   C36   S    
C15   C16   S    
C4    C8    S    
C17   C22   A    
O9    V2    S    
C30   C31   S    
C9    C14   A    
O17   V3    S    
O3    V1    S    
V1    O10   S    
C29   C30   A    
C33   O16   A    
C47   H27   S    
C12   C13   A    
C45   C46   A    
C5    H1    S    
C6    H2    S    
O12   V3    S    
O7    V2    S    
C47   C48   A    
C37   C38   A    
C19   H9    S    
O4    V1    S    
C21   C34   S    
C40   C41   A    
C49   C50   A    
O18   V4    S    
C8    H3    S    
C53   H33   S    
C25   C32   S    
C17   C24   S    
C7    C8    D    
C46   H26   S    
V2    O10   S    
C15   H6    S    
