data_mof_unit_44918.cif
_audit_creation_date              2012-12-10T18:57:11-0500
_audit_creation_method            fapswitch 2.2
_symmetry_space_group_name_H-M    P1
_symmetry_Int_Tables_number       1
_space_group_crystal_system       triclinic
_cell_length_a                    8.73196
_cell_length_b                    10.849663
_cell_length_c                    9.611106
_cell_angle_alpha                 90.189294
_cell_angle_beta                  97.631371
_cell_angle_gamma                 91.016301
_cell_volume                      902.323473642

loop_
_atom_site_label
_atom_site_type_symbol
_atom_type_description
_atom_site_fract_x
_atom_site_fract_y
_atom_site_fract_z
_atom_type_partial_charge
C1    C     C_R   0.500063 0.262902 0.499816 0.795755
C2    C     C_R   0.463841 0.934404 0.370867 -0.207340
C3    C     C_R   0.495417 0.869638 0.498348 -0.086765
C4    C     C_R   0.523316 0.938333 0.621187 0.070585
C5    C     C_3   0.574372 0.928593 0.774943 -0.446023
C6    C     C_3   0.576279 0.070853 0.775960 -0.029731
C7    C     C_R   0.597276 0.576941 0.085301 0.217804
C8    C     C_R   0.392573 0.432814 0.058783 0.171643
C9    C     C_R   0.395943 0.430778 0.911043 0.247666
C10   C     C_R   0.595924 0.578176 0.938220 0.197316
C11   C     C_3   0.767791 0.581515 0.951561 -0.487814
C12   C     C_R   0.204377 0.499562 0.464352 0.884285
C13   C     C_3   0.769224 0.576147 0.108928 -0.490346
C14   C     C_R   0.499483 0.737047 0.499947 0.798453
C15   C     C_R   0.795885 0.500525 0.536015 0.874355
C16   C     C_2   0.038963 0.497919 0.445553 -0.368505
C17   C     C_2   0.961847 0.502358 0.556221 -0.367472
C18   C     C_R   0.524947 0.062629 0.621188 0.071040
C19   C     C_R   0.496842 0.130117 0.498250 -0.104192
C20   C     C_R   0.464453 0.063748 0.370836 -0.208097
Cu1   Cu    Cu3+1 0.499990 0.499980 0.640670 0.949785
Cu2   Cu    Cu3+1 0.500010 0.500020 0.359330 0.934037
H1    H     H_    0.980767 0.492187 0.339517 0.162144
H2    H     H_    0.816560 0.497677 0.908775 0.214734
H3    H     H_    0.813187 0.670404 0.915111 0.191415
H4    H     H_    0.812234 0.486574 0.151684 0.207372
H5    H     H_    0.820221 0.660009 0.165014 0.200183
H6    H     H_    0.020766 0.508136 0.662997 0.169188
H7    H     H_    0.440523 0.110970 0.271472 0.160766
H8    H     H_    0.439571 0.885853 0.271513 0.164327
H9    H     H_    0.483187 0.887019 0.831391 0.176319
H10   H     H_    0.690223 0.886704 0.798201 0.198518
H11   H     H_    0.490144 0.112159 0.836606 0.157623
N1    N     N_R   0.500980 0.500930 0.148050 -0.208805
N2    N     N_R   0.500990 0.500890 0.852140 -0.206545
O1    O     O_R   0.500000 0.319640 0.618810 -0.566821
O2    O     O_R   0.500020 0.319680 0.381230 -0.599872
O3    O     O_R   0.274830 0.499980 0.591380 -0.549538
O4    O     O_R   0.274850 0.500020 0.353800 -0.604811
O5    O     O_R   0.499980 0.680320 0.618770 -0.579808
O6    O     O_R   0.500000 0.680360 0.381190 -0.585752
O7    O     O_R   0.725150 0.499980 0.646200 -0.598567
O8    O     O_R   0.725170 0.500020 0.408620 -0.571350
N3    N     N_3   0.288440 0.354341 0.822517 -0.514942
H12   H     H_    0.176655 0.381194 0.834869 0.203861
H13   H     H_    0.301138 0.263350 0.856680 0.199272
N4    N     N_3   0.732199 0.123843 0.810815 -0.573851
H14   H     H_    0.804286 0.092012 0.740166 0.226544
H15   H     H_    0.725241 0.219348 0.798457 0.237368
N5    N     N_3   0.269114 0.364686 0.108572 -0.627635
H16   H     H_    0.307874 0.309906 0.193755 0.263840
H17   H     H_    0.183399 0.425008 0.129958 0.238380

loop_
_geom_bond_atom_site_label_1
_geom_bond_atom_site_label_2
_ccdc_geom_bond_type
C8    C9    A    
C7    C10   A    
N5    H17   S    
C10   N2    A    
Cu1   N2    S    
C19   C20   A    
C6    H11   S    
C1    O2    A    
C2    H8    S    
C5    H10   S    
C4    C18   A    
C17   H6    S    
C12   O4    A    
C2    C3    A    
C15   O8    A    
N4    H15   S    
Cu1   O1    S    
C8    N1    A    
Cu1   Cu2   S    
C11   C13   S    
C3    C14   S    
C14   O6    A    
C6    C18   S    
Cu2   O4    S    
N3    H13   S    
N5    H16   S    
C16   H1    S    
C20   H7    S    
C12   O3    A    
C5    C6    S    
Cu2   N1    S    
C7    N1    A    
C13   H4    S    
C1    C19   S    
Cu2   O6    S    
C10   C11   S    
C11   H3    S    
C2    C20   A    
C3    C4    A    
C8    N5    S    
C11   H2    S    
C7    C13   S    
N3    H12   S    
C15   O7    A    
C15   C17   S    
C18   C19   A    
C6    N4    S    
C9    N2    A    
C4    C5    S    
C9    N3    S    
Cu1   O7    S    
C12   C16   S    
Cu2   O2    S    
C14   O5    A    
Cu2   O8    S    
C13   H5    S    
Cu1   O3    S    
N4    H14   S    
C1    O1    A    
C16   C17   D    
C5    H9    S    
Cu1   O5    S    
