data_mof_unit_65953.cif
_audit_creation_date              2013-03-05T16:33:07-0500
_audit_creation_method            fapswitch 2.2
_symmetry_space_group_name_H-M    P1
_symmetry_Int_Tables_number       1
_space_group_crystal_system       triclinic
_cell_length_a                    38.936693
_cell_length_b                    32.078311
_cell_length_c                    21.722104
_cell_angle_alpha                 89.951273
_cell_angle_beta                  124.495086
_cell_angle_gamma                 90.022023
_cell_volume                      22361.0193453

loop_
_atom_site_label
_atom_site_type_symbol
_atom_site_description
_atom_site_fract_x
_atom_site_fract_y
_atom_site_fract_z
_atom_type_partial_charge
O1    O     O_R   0.939010 0.034440 0.439030 -0.605519
O2    O     O_R   0.060990 0.034440 0.560970 -0.599049
O3    O     O_R   0.439010 0.534440 0.439030 -0.605379
O4    O     O_R   0.560990 0.534440 0.560970 -0.605443
O5    O     O_R   0.939030 0.965580 0.439000 -0.602049
O6    O     O_R   0.060970 0.965580 0.561000 -0.600750
O7    O     O_R   0.439030 0.465580 0.439000 -0.600879
O8    O     O_R   0.560970 0.465580 0.561000 -0.600958
C1    C     C_R   0.919340 0.999991 0.419582 0.926678
C2    C     C_R   0.080676 0.000006 0.580494 0.915679
C3    C     C_R   0.419348 0.499980 0.419654 0.929295
C4    C     C_R   0.580652 0.499976 0.580350 0.929201
O9    O     O_R   0.000000 0.034440 0.591610 -0.602889
O10   O     O_R   0.000000 0.034440 0.408390 -0.609617
O11   O     O_R   0.500000 0.534440 0.591610 -0.610753
O12   O     O_R   0.500000 0.534440 0.408390 -0.610923
O13   O     O_R   0.000010 0.965580 0.591580 -0.601572
O14   O     O_R   0.999990 0.965580 0.408420 -0.605686
O15   O     O_R   0.500010 0.465580 0.591580 -0.605934
O16   O     O_R   0.499990 0.465580 0.408420 -0.605844
C5    C     C_R   0.000211 0.000086 0.620523 0.912250
C6    C     C_R   0.999798 0.000152 0.379420 0.910334
C7    C     C_R   0.500242 0.500117 0.620617 0.909381
C8    C     C_R   0.499779 0.500145 0.379404 0.909405
Zn1   Zn    Zn3+2 0.000000 0.045990 0.500000 1.150958
Zn2   Zn    Zn3+2 0.500000 0.545990 0.500000 1.134175
Zn3   Zn    Zn3+2 0.000000 0.954030 0.500000 1.111728
Zn4   Zn    Zn3+2 0.500000 0.454030 0.500000 1.107597
C9    C     C_R   0.079592 0.116851 0.712857 0.119338
C10   C     C_R   0.939144 0.127977 0.302526 0.115890
C11   C     C_R   0.561142 0.627661 0.697046 0.115086
C12   C     C_R   0.438984 0.627750 0.302813 0.115181
C13   C     C_R   0.048747 0.093619 0.712665 0.192747
C14   C     C_R   0.964499 0.100008 0.295110 0.191374
C15   C     C_R   0.535755 0.599849 0.704726 0.192565
C16   C     C_R   0.464347 0.599925 0.295149 0.192716
C17   C     C_R   0.058207 0.053191 0.744102 -0.216912
C18   C     C_R   0.948781 0.060410 0.262528 -0.204238
C19   C     C_R   0.551378 0.560232 0.737438 -0.203113
C20   C     C_R   0.448697 0.560325 0.262498 -0.203110
C21   C     C_R   0.098626 0.036637 0.777461 0.188510
C22   C     C_R   0.907880 0.048722 0.238001 0.197138
C23   C     C_R   0.592234 0.548395 0.761913 0.197401
C24   C     C_R   0.407840 0.548515 0.238070 0.197395
C25   C     C_R   0.129834 0.060464 0.779899 0.116439
C26   C     C_R   0.882167 0.077232 0.243770 0.121272
C27   C     C_R   0.617988 0.576764 0.755934 0.119709
C28   C     C_R   0.382112 0.576895 0.244041 0.119894
C29   C     C_R   0.120021 0.100284 0.746240 0.099238
C30   C     C_R   0.898180 0.116553 0.277091 0.111687
C31   C     C_R   0.602058 0.616082 0.722416 0.111948
C32   C     C_R   0.398067 0.616198 0.277494 0.111981
C33   C     C_R   0.024660 0.029473 0.807559 -0.040958
C34   C     C_R   0.977100 0.030909 0.193755 -0.014674
C35   C     C_R   0.522955 0.530857 0.806203 -0.015144
C36   C     C_R   0.477077 0.530911 0.193752 -0.015223
C37   C     C_R   0.999102 0.000707 0.812792 -0.108681
C38   C     C_R   0.000893 0.000596 0.187011 -0.107040
C39   C     C_R   0.499088 0.500612 0.812962 -0.105242
C40   C     C_R   0.500919 0.500641 0.187044 -0.105603
C41   C     C_R   0.973561 0.972089 0.755238 0.043794
C42   C     C_R   0.025190 0.970981 0.243411 0.039563
C43   C     C_R   0.474776 0.471005 0.756626 0.041993
C44   C     C_R   0.525243 0.471038 0.243464 0.041916
C45   C     C_R   0.972364 0.973170 0.689849 -0.033822
C46   C     C_R   0.026354 0.972005 0.308750 -0.028120
C47   C     C_R   0.473774 0.471872 0.691440 -0.032430
C48   C     C_R   0.526278 0.471934 0.308678 -0.032176
C49   C     C_R   0.999396 0.000556 0.685937 -0.105212
C50   C     C_R   0.000761 0.000781 0.314055 -0.131668
C51   C     C_R   0.499334 0.500675 0.686033 -0.133474
C52   C     C_R   0.500725 0.500749 0.314025 -0.133437
C53   C     C_R   0.026308 0.027963 0.745082 0.082213
C54   C     C_R   0.976013 0.030175 0.256885 0.076217
C55   C     C_R   0.524065 0.530085 0.743103 0.076830
C56   C     C_R   0.475991 0.530161 0.256881 0.076697
C57   C     C_R   0.905330 0.947304 0.730302 0.289297
C58   C     C_R   0.092564 0.943875 0.267607 0.282028
C59   C     C_R   0.407132 0.444351 0.731807 0.287704
C60   C     C_R   0.592869 0.444318 0.268323 0.287661
C61   C     C_R   0.881870 0.917001 0.737593 -0.228064
C62   C     C_R   0.115089 0.912565 0.260096 -0.228720
C63   C     C_R   0.384316 0.413220 0.739005 -0.226576
C64   C     C_R   0.615650 0.413182 0.261109 -0.226866
H1    H     H_    0.849067 0.922548 0.712505 0.226766
H2    H     H_    0.148072 0.916960 0.285416 0.226077
H3    H     H_    0.351327 0.417820 0.713369 0.227185
H4    H     H_    0.648643 0.417748 0.286738 0.227144
C65   C     C_R   0.900164 0.880077 0.777444 0.313962
C66   C     C_R   0.095684 0.876020 0.219974 0.314953
C67   C     C_R   0.403440 0.376591 0.779196 0.313028
C68   C     C_R   0.596485 0.376599 0.220891 0.313754
C69   C     C_R   0.942589 0.873138 0.809475 -0.237104
C70   C     C_R   0.053022 0.870596 0.187549 -0.240499
C71   C     C_R   0.446101 0.370881 0.811941 -0.238916
C72   C     C_R   0.553817 0.370936 0.188145 -0.239305
H5    H     H_    0.956366 0.844100 0.838584 0.220942
H6    H     H_    0.038327 0.841877 0.158160 0.220210
H7    H     H_    0.460547 0.342070 0.841298 0.220734
H8    H     H_    0.539333 0.342161 0.158761 0.220550
C73   C     C_R   0.967282 0.902644 0.803624 -0.108300
C74   C     C_R   0.029213 0.901225 0.193333 -0.105765
C75   C     C_R   0.470210 0.401329 0.806503 -0.106172
C76   C     C_R   0.529747 0.401386 0.193623 -0.106208
C77   C     C_R   0.948515 0.940411 0.763962 -0.077965
C78   C     C_R   0.049166 0.938454 0.233725 -0.082252
C79   C     C_R   0.450546 0.438678 0.766138 -0.083342
C80   C     C_R   0.549451 0.438690 0.234005 -0.083025
H9    H     H_    0.789697 0.981756 0.201391 0.237816
H10   H     H_    0.210155 0.945904 0.758039 0.217835
H11   H     H_    0.289929 0.481483 0.201439 0.236273
H12   H     H_    0.710076 0.481283 0.798537 0.236228
C81   C     C_R   0.728859 0.992273 0.177758 0.277315
C82   C     C_R   0.271031 0.970102 0.799741 0.287614
C83   C     C_R   0.228945 0.488446 0.178891 0.275479
C84   C     C_R   0.771058 0.488322 0.821093 0.275469
C85   C     C_R   0.706613 0.003233 0.208814 -0.114911
C86   C     C_R   0.293349 0.001432 0.790885 -0.112240
C87   C     C_R   0.206602 0.497935 0.210385 -0.117913
C88   C     C_R   0.793399 0.497914 0.789611 -0.117972
C89   C     C_R   0.727742 0.012572 0.285634 0.240608
C90   C     C_R   0.272324 0.031898 0.734243 0.241586
C91   C     C_R   0.227675 0.506691 0.287410 0.239820
C92   C     C_R   0.772322 0.506771 0.712597 0.239839
C93   C     C_R   0.771698 0.010984 0.332036 -0.157252
C94   C     C_R   0.228362 0.031460 0.686561 -0.143242
C95   C     C_R   0.271661 0.506524 0.333409 -0.158786
C96   C     C_R   0.728337 0.506604 0.666598 -0.158767
C97   C     C_R   0.793467 0.999339 0.300376 -0.031593
C98   C     C_R   0.206485 0.999989 0.696296 -0.022531
C99   C     C_R   0.293548 0.497427 0.300919 -0.030895
C100  C     C_R   0.706452 0.497405 0.699077 -0.030823
C101  C     C_R   0.772200 0.989905 0.224597 -0.125291
C102  C     C_R   0.227701 0.969510 0.751218 -0.140044
C103  C     C_R   0.272366 0.488529 0.224962 -0.126888
C104  C     C_R   0.727637 0.488405 0.775023 -0.126978
C105  C     C_1   0.662002 0.001896 0.163448 0.142354
C106  C     C_1   0.337977 0.000809 0.836281 0.145582
C107  C     C_1   0.161996 0.498816 0.164128 0.148912
C108  C     C_1   0.838004 0.498804 0.835871 0.148804
C109  C     C_1   0.837988 0.999456 0.343102 0.127473
C110  C     C_1   0.161974 0.999934 0.654729 0.120467
C111  C     C_1   0.338033 0.498729 0.343388 0.129519
C112  C     C_1   0.661967 0.498711 0.656614 0.129418
C113  C     C_1   0.875213 0.999812 0.378038 -0.042107
C114  C     C_1   0.124785 0.999968 0.621026 -0.074680
C115  C     C_1   0.375238 0.499661 0.378203 -0.039965
C116  C     C_1   0.624763 0.499650 0.621802 -0.040130
C117  C     C_1   0.624708 0.000869 0.125630 -0.054855
C118  C     C_1   0.375283 0.000381 0.874250 -0.053416
C119  C     C_1   0.124699 0.499469 0.125786 -0.051772
C120  C     C_1   0.875301 0.499463 0.874215 -0.051967
O17   O     O_R   0.034440 0.939000 0.034360 -0.615025
O18   O     O_R   0.965560 0.939000 0.965640 -0.614640
O19   O     O_R   0.534440 0.439000 0.034360 -0.615113
O20   O     O_R   0.465560 0.439000 0.965640 -0.614982
C121  C     C_R   0.999996 0.919306 0.999944 0.860704
C122  C     C_R   0.500002 0.419305 0.000011 0.859515
O21   O     O_R   0.034440 0.999990 0.942780 -0.610345
O22   O     O_R   0.965560 0.999990 0.057220 -0.608557
O23   O     O_R   0.534440 0.499990 0.942780 -0.608367
O24   O     O_R   0.465560 0.499990 0.057220 -0.608318
O25   O     O_R   0.965580 0.000000 0.873940 -0.597326
O26   O     O_R   0.034420 0.000000 0.126060 -0.593467
O27   O     O_R   0.465580 0.500000 0.873940 -0.594787
O28   O     O_R   0.534420 0.500000 0.126060 -0.594879
C123  C     C_R   0.999759 0.999856 0.879516 0.886475
C124  C     C_R   0.000232 0.999646 0.120408 0.887561
C125  C     C_R   0.499763 0.499667 0.879585 0.887150
C126  C     C_R   0.500238 0.499681 0.120417 0.886906
Zn5   Zn    Zn3+2 0.045990 0.999980 0.045940 1.109426
Zn6   Zn    Zn3+2 0.954010 0.999980 0.954060 1.105877
Zn7   Zn    Zn3+2 0.545990 0.499980 0.045940 1.108466
Zn8   Zn    Zn3+2 0.454010 0.499980 0.954060 1.109076
O29   O     O_R   0.034440 0.060970 0.034440 -0.590967
O30   O     O_R   0.965560 0.060970 0.965560 -0.592546
O31   O     O_R   0.534440 0.560970 0.034440 -0.591769
O32   O     O_R   0.465560 0.560970 0.965560 -0.591426
C127  C     C_R   0.999999 0.080607 0.999914 0.978626
C128  C     C_R   0.499997 0.580605 0.999991 0.982152
O33   O     O_R   0.500020 0.939060 0.051770 -0.593759
O34   O     O_R   0.499980 0.939060 0.948230 -0.596965
O35   O     O_R   0.000020 0.439060 0.051770 -0.594212
O36   O     O_R   0.999980 0.439060 0.948230 -0.594095
C129  C     C_R   0.499995 0.919612 0.000018 0.873986
C130  C     C_R   0.000000 0.419613 0.000027 0.876189
O37   O     O_R   0.561000 0.000050 0.112670 -0.593926
O38   O     O_R   0.439000 0.000050 0.887330 -0.602051
O39   O     O_R   0.061000 0.500050 0.112670 -0.592530
O40   O     O_R   0.939000 0.500050 0.887330 -0.592641
O41   O     O_R   0.561000 0.999980 0.009230 -0.590091
O42   O     O_R   0.439000 0.999980 0.990770 -0.590128
O43   O     O_R   0.061000 0.499980 0.009230 -0.592416
O44   O     O_R   0.939000 0.499980 0.990770 -0.592506
C131  C     C_R   0.580493 0.000027 0.080734 0.871958
C132  C     C_R   0.419506 0.000020 0.919251 0.879073
C133  C     C_R   0.080488 0.499991 0.080742 0.872917
C134  C     C_R   0.919512 0.499991 0.919257 0.872759
Zn9   Zn    Zn3+2 0.500010 0.000060 0.069050 1.106202
Zn10  Zn    Zn3+2 0.499990 0.000060 0.930950 1.099868
Zn11  Zn    Zn3+2 0.000010 0.500060 0.069050 1.106006
Zn12  Zn    Zn3+2 0.999990 0.500060 0.930950 1.105881
O45   O     O_R   0.500000 0.061030 0.051640 -0.601253
O46   O     O_R   0.500000 0.061030 0.948360 -0.600368
O47   O     O_R   0.000000 0.561030 0.051640 -0.601714
O48   O     O_R   0.000000 0.561030 0.948360 -0.601938
C135  C     C_R   0.499995 0.080576 0.999972 0.892875
C136  C     C_R   0.999992 0.580576 0.999966 0.886521
H13   H     H_    0.944906 0.788469 0.000785 0.193423
H14   H     H_    0.054721 0.788447 0.997784 0.189898
H15   H     H_    0.445296 0.288420 0.002123 0.192504
H16   H     H_    0.554701 0.288482 0.997851 0.192087
C137  C     C_R   0.469180 0.228304 0.001144 -0.126133
C138  C     C_R   0.530781 0.228340 0.998694 -0.131051
C139  C     C_R   0.968897 0.728332 0.000234 -0.132738
C140  C     C_R   0.030732 0.728321 0.998508 -0.131622
H17   H     H_    0.445269 0.211621 0.002059 0.173838
H18   H     H_    0.554686 0.211686 0.997754 0.171613
H19   H     H_    0.944912 0.711667 0.000945 0.171001
H20   H     H_    0.054743 0.711649 0.997919 0.170655
C141  C     C_R   0.499974 0.206673 0.999896 0.128140
C142  C     C_R   0.999832 0.706676 0.999453 0.129810
C143  C     C_R   0.030710 0.771763 0.998388 -0.074914
C144  C     C_R   0.968893 0.771775 0.000152 -0.085995
C145  C     C_R   0.530784 0.271782 0.998720 -0.078658
C146  C     C_R   0.469203 0.271746 0.001214 -0.079705
C147  C     C_R   0.999807 0.793387 0.999256 0.120848
C148  C     C_R   0.500000 0.293383 0.999992 0.120622
C149  C     C_1   0.499976 0.162211 0.999891 -0.003550
C150  C     C_1   0.999886 0.662213 0.999668 -0.008275
C151  C     C_1   0.999888 0.837785 0.999454 0.034786
C152  C     C_1   0.500006 0.337782 0.000019 0.033053
C153  C     C_1   0.999962 0.875087 0.999699 -0.089489
C154  C     C_1   0.500007 0.375085 0.000021 -0.090544
C155  C     C_1   0.499984 0.124873 0.999913 -0.107109
C156  C     C_1   0.999939 0.624875 0.999835 -0.112935
C157  C     C_R   0.513764 0.771889 0.961141 -0.144535
C158  C     C_R   0.486111 0.771814 0.038835 -0.146270
C159  C     C_R   0.013050 0.271898 0.960062 -0.144888
C160  C     C_R   0.987159 0.271820 0.040512 -0.145877
C161  C     C_R   0.499941 0.793502 0.000003 -0.085426
C162  C     C_R   0.000092 0.293510 0.000273 -0.085363
C163  C     C_R   0.987321 0.227939 0.040476 0.231393
C164  C     C_R   0.012878 0.228021 0.960044 0.228796
C165  C     C_R   0.486304 0.727934 0.038858 0.231328
C166  C     C_R   0.513586 0.728009 0.961107 0.231545
C167  C     C_R   0.000079 0.206514 0.000217 -0.112719
C168  C     C_R   0.499954 0.706507 0.999988 -0.112820
C169  C     C_1   0.499956 0.838184 0.000035 0.110960
C170  C     C_1   0.000051 0.338189 0.000208 0.111012
C171  C     C_1   0.000031 0.161964 0.000105 0.154377
C172  C     C_1   0.499973 0.661959 0.999997 0.155633
C173  C     C_1   0.000005 0.124719 0.999997 -0.001885
C174  C     C_1   0.499988 0.624716 0.999998 0.000695
C175  C     C_1   0.499974 0.875460 0.000044 -0.058950
C176  C     C_1   0.000023 0.375464 0.000121 -0.057519
N1    N     N_R   0.151237 0.124047 0.746103 0.287178
O49   O     O_R   0.172369 0.107283 0.722863 -0.318502
O50   O     O_R   0.158780 0.162448 0.769457 -0.229784
N2    N     N_R   0.871811 0.146332 0.280126 0.289644
O51   O     O_R   0.866949 0.144904 0.334613 -0.239154
O52   O     O_R   0.858171 0.178448 0.235743 -0.246987
N3    N     N_R   0.628461 0.645701 0.719074 0.289226
O53   O     O_R   0.633292 0.644038 0.664569 -0.237774
O54   O     O_R   0.642135 0.677924 0.763121 -0.247685
N4    N     N_R   0.371687 0.645828 0.280817 0.289228
O55   O     O_R   0.366870 0.644154 0.335341 -0.237782
O56   O     O_R   0.358024 0.678071 0.236726 -0.245882
N5    N     N_R   0.875665 0.849557 0.785142 0.236736
O57   O     O_R   0.892794 0.815661 0.823680 -0.364967
O58   O     O_R   0.836053 0.855541 0.754302 -0.304465
N6    N     N_R   0.119299 0.844352 0.212425 0.235645
O59   O     O_R   0.101284 0.810499 0.174608 -0.368018
O60   O     O_R   0.159015 0.849167 0.242877 -0.306880
N7    N     N_R   0.379534 0.345114 0.786460 0.236686
O61   O     O_R   0.397322 0.311267 0.824617 -0.363792
O62   O     O_R   0.339786 0.350121 0.755465 -0.303430
N8    N     N_R   0.620352 0.345122 0.213593 0.236225
O63   O     O_R   0.602523 0.311323 0.175396 -0.366699
O64   O     O_R   0.660107 0.350082 0.244593 -0.304809
C177  C     C_2   0.012169 0.892232 0.838687 0.967817
O65   O     O_2   0.033272 0.911950 0.823398 -0.552862
O66   O     O_R   0.030326 0.858924 0.888940 -0.823216
H21   H     H_    0.060781 0.854787 0.909050 0.372847
C178  C     C_2   0.983923 0.892561 0.157287 0.968004
O67   O     O_2   0.963544 0.912631 0.173748 -0.561586
O68   O     O_R   0.964517 0.860523 0.104638 -0.821977
H22   H     H_    0.933881 0.857500 0.084033 0.373659
C179  C     C_2   0.515471 0.392311 0.842737 0.968695
O69   O     O_2   0.536272 0.412729 0.827599 -0.562703
O70   O     O_R   0.534369 0.359554 0.894049 -0.822742
H23   H     H_    0.565027 0.356365 0.914930 0.372765
C180  C     C_2   0.484481 0.392423 0.157395 0.968515
O71   O     O_2   0.463754 0.412719 0.172804 -0.562405
O72   O     O_R   0.465496 0.359852 0.105786 -0.822598
H24   H     H_    0.434841 0.356680 0.084943 0.373103
N9    N     N_R   0.708151 0.983274 0.099348 0.235596
O73   O     O_R   0.674369 0.003064 0.049397 -0.325945
O74   O     O_R   0.725542 0.958604 0.076990 -0.292932
N10   N     N_R   0.291635 0.938755 0.857273 0.232994
O75   O     O_R   0.325098 0.947654 0.922409 -0.326056
O76   O     O_R   0.274416 0.902399 0.847613 -0.307609
N11   N     N_R   0.208327 0.478850 0.100715 0.231837
O77   O     O_R   0.173552 0.457996 0.064767 -0.343795
O78   O     O_R   0.226622 0.486918 0.067142 -0.270090
N12   N     N_R   0.791680 0.478621 0.899258 0.231750
O79   O     O_R   0.826463 0.457771 0.935181 -0.343943
O80   O     O_R   0.773382 0.486589 0.932840 -0.270512
N13   N     N_R   0.704425 0.021943 0.316791 0.239944
O81   O     O_R   0.676244 0.051110 0.287731 -0.312971
O82   O     O_R   0.710509 0.000495 0.373041 -0.304193
N14   N     N_R   0.295766 0.062148 0.723535 0.239463
O83   O     O_R   0.323471 0.085312 0.778881 -0.316460
O84   O     O_R   0.290332 0.065703 0.658884 -0.306995
N15   N     N_R   0.204335 0.514301 0.319096 0.240269
O85   O     O_R   0.176341 0.543624 0.292368 -0.315728
O86   O     O_R   0.210637 0.491471 0.374153 -0.300916
N16   N     N_R   0.795659 0.514486 0.680920 0.240247
O87   O     O_R   0.823643 0.543816 0.707681 -0.316265
O88   O     O_R   0.789365 0.491745 0.625836 -0.301105
C181  C     C_2   0.794509 0.022863 0.412258 1.046390
O89   O     O_2   0.825268 0.003209 0.459700 -0.562434
O90   O     O_R   0.780774 0.056662 0.433510 -0.691134
H25   H     H_    0.798755 0.061596 0.489441 0.390800
C182  C     C_2   0.205634 0.064519 0.628884 1.067187
O91   O     O_2   0.174405 0.055833 0.567569 -0.553304
O92   O     O_R   0.219909 0.105696 0.644860 -0.671571
H26   H     H_    0.201816 0.125254 0.601369 0.387201
C183  C     C_2   0.294334 0.517415 0.414048 1.045400
O93   O     O_2   0.325792 0.498311 0.460632 -0.561613
O94   O     O_R   0.279683 0.549649 0.436689 -0.691026
H27   H     H_    0.297675 0.554022 0.492772 0.392199
C184  C     C_2   0.705659 0.517601 0.585973 1.045398
O95   O     O_2   0.674207 0.498523 0.539366 -0.561477
O96   O     O_R   0.720301 0.549905 0.563372 -0.691291
H28   H     H_    0.702309 0.554348 0.507294 0.391977
N17   N     N_R   0.024475 0.205214 0.917443 0.242748
O97   O     O_R   0.053791 0.177232 0.949569 -0.312251
O98   O     O_R   0.005331 0.212009 0.846154 -0.266265
N18   N     N_R   0.975739 0.205046 0.083076 0.243044
O99   O     O_R   0.946374 0.177125 0.050908 -0.318828
O100  O     O_R   0.994937 0.211706 0.154397 -0.264368
N19   N     N_R   0.526034 0.705200 0.919776 0.242797
O101  O     O_R   0.555242 0.677153 0.952817 -0.320049
O102  O     O_R   0.507752 0.712038 0.848700 -0.264760
N20   N     N_R   0.473849 0.705046 0.080159 0.242701
O103  O     O_R   0.444643 0.677010 0.047086 -0.318228
O104  O     O_R   0.492114 0.711809 0.151234 -0.265475
N21   N     N_R   0.069866 0.157452 0.679104 0.275504
O105  O     O_R   0.077455 0.166398 0.629453 -0.248022
O106  O     O_R   0.053149 0.185549 0.697554 -0.220842
N22   N     N_R   0.954566 0.168698 0.333818 0.272379
O107  O     O_R   0.949255 0.183619 0.383551 -0.235767
O108  O     O_R   0.973603 0.191269 0.312043 -0.221637
N23   N     N_R   0.545796 0.668370 0.665486 0.272478
O109  O     O_R   0.551020 0.683075 0.615484 -0.235080
O110  O     O_R   0.526892 0.691134 0.687246 -0.221072
N24   N     N_R   0.454356 0.668444 0.334306 0.272602
O111  O     O_R   0.449153 0.683142 0.384300 -0.235105
O112  O     O_R   0.473264 0.691200 0.312492 -0.220279
C185  C     C_2   0.529446 0.794965 0.922193 1.018518
O113  O     O_2   0.561429 0.783640 0.929012 -0.518628
O114  O     O_R   0.507611 0.829522 0.877625 -0.770524
H29   H     H_    0.521473 0.842540 0.854409 0.373796
C186  C     C_2   0.470401 0.794812 0.077755 1.024514
O115  O     O_2   0.438417 0.783442 0.070910 -0.511112
O116  O     O_R   0.492208 0.829348 0.122320 -0.770059
H30   H     H_    0.478326 0.842313 0.145511 0.375787
C187  C     C_2   0.027823 0.294974 0.919639 1.020710
O117  O     O_2   0.059383 0.283658 0.924898 -0.515329
O118  O     O_R   0.005611 0.329516 0.875456 -0.769904
H31   H     H_    0.018854 0.342530 0.851116 0.375068
C188  C     C_2   0.972421 0.294818 0.081006 1.021216
O119  O     O_2   0.940915 0.283432 0.075898 -0.515698
O120  O     O_R   0.994602 0.329371 0.125081 -0.769379
H32   H     H_    0.981390 0.342327 0.149488 0.375277
N25   N     N_R   0.007267 0.110172 0.676803 0.261974
O121  O     O_R   0.988353 0.109605 0.710557 -0.291083
O122  O     O_R   0.988052 0.125650 0.609724 -0.266881
N26   N     N_R   0.007308 0.110515 0.326483 0.261534
O123  O     O_R   0.022532 0.107743 0.286610 -0.287809
O124  O     O_R   0.031219 0.123294 0.395292 -0.263582
N27   N     N_R   0.492986 0.610507 0.673416 0.260483
O125  O     O_R   0.477795 0.607835 0.713360 -0.291210
O126  O     O_R   0.469071 0.623295 0.604577 -0.265960
N28   N     N_R   0.507117 0.610552 0.326408 0.260444
O127  O     O_R   0.522285 0.607884 0.286434 -0.291276
O128  O     O_R   0.531056 0.623304 0.395230 -0.266045
N29   N     N_R   0.108627 0.996636 0.813406 0.263742
O129  O     O_R   0.088916 0.963413 0.775256 -0.340385
O130  O     O_R   0.137001 0.993464 0.884741 -0.235561
N30   N     N_R   0.892833 0.007446 0.209342 0.255706
O131  O     O_R   0.875455 0.985207 0.234712 -0.383066
O132  O     O_R   0.895773 0.992099 0.157083 -0.274162
N31   N     N_R   0.607182 0.507097 0.790689 0.255570
O133  O     O_R   0.624474 0.484745 0.765332 -0.384363
O134  O     O_R   0.604235 0.491839 0.843031 -0.274281
N32   N     N_R   0.392864 0.507232 0.209360 0.255585
O135  O     O_R   0.375564 0.484888 0.234760 -0.384379
O136  O     O_R   0.395796 0.491979 0.157035 -0.274174
N33   N     N_R   0.171834 0.044872 0.818801 0.262866
O137  O     O_R   0.203187 0.069068 0.863491 -0.253608
O138  O     O_R   0.178903 0.005804 0.813883 -0.343844
N34   N     N_R   0.838937 0.067460 0.210516 0.243186
O139  O     O_R   0.820532 0.078584 0.242567 -0.328015
O140  O     O_R   0.816939 0.049744 0.145211 -0.264865
N35   N     N_R   0.661185 0.566850 0.789175 0.243159
O141  O     O_R   0.679557 0.577693 0.756907 -0.327862
O142  O     O_R   0.683181 0.549252 0.854633 -0.258760
N36   N     N_R   0.338915 0.567010 0.210861 0.243293
O143  O     O_R   0.320580 0.577823 0.243184 -0.327609
O144  O     O_R   0.316887 0.549458 0.145413 -0.258194
C189  C     C_2   0.047845 0.062476 0.865325 0.995309
O145  O     O_2   0.029314 0.084584 0.883285 -0.573387
O146  O     O_R   0.090507 0.068261 0.898964 -0.752715
H33   H     H_    0.102379 0.091750 0.936813 0.383473
C190  C     C_2   0.954797 0.064408 0.136484 0.995977
O147  O     O_2   0.973467 0.084875 0.116759 -0.580529
O148  O     O_R   0.912782 0.072648 0.105674 -0.740458
H34   H     H_    0.901459 0.096250 0.068006 0.383883
C191  C     C_2   0.545307 0.564333 0.863416 0.995933
O149  O     O_2   0.526672 0.584840 0.883122 -0.581569
O150  O     O_R   0.587331 0.572503 0.894196 -0.740329
H35   H     H_    0.598690 0.596094 0.931823 0.384107
C192  C     C_2   0.454728 0.564390 0.136455 0.996180
O151  O     O_2   0.473363 0.584882 0.116685 -0.581869
O152  O     O_R   0.412709 0.572586 0.105676 -0.739782
H36   H     H_    0.401352 0.596179 0.067987 0.384708
C193  C     C_2   0.942212 0.946431 0.625234 0.960512
O153  O     O_2   0.941370 0.908794 0.633312 -0.581346
O154  O     O_R   0.914812 0.964593 0.555219 -0.761740
H37   H     H_    0.895780 0.943383 0.515766 0.365372
C194  C     C_2   0.055703 0.944312 0.372504 0.960108
O155  O     O_2   0.054925 0.906607 0.363532 -0.584186
O156  O     O_R   0.084275 0.961702 0.442702 -0.768645
H38   H     H_    0.102647 0.939920 0.481554 0.356315
C195  C     C_2   0.444706 0.443885 0.628026 0.962924
O157  O     O_2   0.445603 0.406226 0.637644 -0.584122
O158  O     O_R   0.416309 0.460921 0.557391 -0.757132
H39   H     H_    0.398191 0.438940 0.518830 0.365989
C196  C     C_2   0.555362 0.443952 0.372173 0.963062
O159  O     O_2   0.554486 0.406294 0.362666 -0.584194
O160  O     O_R   0.583747 0.460994 0.442760 -0.757137
H40   H     H_    0.601880 0.439018 0.481384 0.365907
N37   N     N_R   0.884614 0.984520 0.687920 0.223042
O161  O     O_R   0.845231 0.983397 0.633713 -0.305684
O162  O     O_R   0.903609 0.020348 0.706927 -0.324301
N38   N     N_R   0.114455 0.980544 0.310591 0.223473
O163  O     O_R   0.153826 0.978288 0.364557 -0.307030
O164  O     O_R   0.096544 0.016931 0.292457 -0.309684
N39   N     N_R   0.385509 0.481079 0.688597 0.223700
O165  O     O_R   0.346226 0.478957 0.634144 -0.307113
O166  O     O_R   0.403555 0.517395 0.706948 -0.320597
N40   N     N_R   0.614526 0.481011 0.311511 0.223599
O167  O     O_R   0.653806 0.478836 0.365966 -0.307138
O168  O     O_R   0.596515 0.517349 0.293125 -0.320800

loop_
_geom_bond_atom_site_label_1
_geom_bond_atom_site_label_2
_geom_bond_distance
_ccdc_geom_bond_type
C100  C112  1.429361 S    
O1    Zn1   1.992113 S    
O152  H36   1.013757 S    
C139  C142  1.399105 A    
C164  N17   1.438829 S    
C35   C39   1.407130 A    
C183  O94   1.398426 S    
C192  O151  1.222733 D    
C110  C114  1.196675 T    
O70   H23   1.013854 S    
C148  C152  1.424245 S    
C105  C117  1.197240 T    
N17   O97   1.301197 A    
N11   O78   1.301629 A    
C195  O157  1.222926 D    
C74   C178  1.495377 S    
N26   O124  1.301324 A    
C71   H7    1.081824 S    
C9    C13   1.411181 A    
C145  C148  1.398482 A    
C119  C133  1.418860 S    
C12   C32   1.409027 A    
C137  C146  1.393548 A    
C34   C54   1.395880 A    
O30   C127  1.272216 A    
N6    O59   1.301673 A    
C50   C54   1.415298 A    
C150  C156  1.197761 T    
O4    C4    1.272928 A    
C41   C77   1.492579 S    
C108  C120  1.197117 T    
C109  C113  1.196223 T    
C189  O146  1.397447 S    
C81   C101  1.394282 A    
O19   C122  1.273098 A    
C95   C183  1.489610 S    
C98   C102  1.394256 A    
C43   C47   1.394506 A    
C34   C190  1.493763 S    
O27   C125  1.265604 A    
H9    C101  1.084379 S    
O90   H25   1.013942 S    
O35   Zn11  1.992808 S    
O26   C124  1.265724 A    
C161  C169  1.433311 S    
N18   O99   1.301184 A    
C24   N32   1.439312 S    
C69   C73   1.404983 A    
C42   C46   1.394549 A    
O16   Zn4   2.022993 S    
C76   C180  1.495784 S    
C184  O95   1.222876 D    
O44   Zn11  1.989787 S    
O13   C5    1.271287 A    
O7    Zn4   1.991396 S    
C20   C56   1.492809 S    
O34   C129  1.285596 A    
N28   O128  1.301326 A    
C129  C175  1.416321 S    
C58   C62   1.402731 A    
O32   C128  1.272125 A    
N11   O77   1.301234 A    
C48   C52   1.410557 A    
N22   O107  1.301111 A    
C152  C154  1.196627 T    
N12   O79   1.301234 A    
O22   Zn6   2.020449 S    
O9    C5    1.265661 A    
N34   O139  1.300500 A    
C23   N31   1.439300 S    
O25   Zn6   2.029755 S    
C97   C101  1.394136 A    
H16   C145  1.083569 S    
C169  C175  1.195758 T    
C87   C91   1.413214 A    
N5    O58   1.301594 A    
N29   O129  1.300797 A    
O8    Zn4   1.991470 S    
N27   O125  1.300459 A    
C91   C95   1.411832 A    
C99   C111  1.429355 S    
N10   O75   1.301294 A    
O39   C133  1.285642 A    
N3    O54   1.300645 A    
C137  H17   1.083572 S    
O3    Zn2   1.992113 S    
C64   H4    1.082404 S    
Zn9   O45   1.991685 S    
C19   C23   1.414063 A    
O120  H32   1.013873 S    
C37   C41   1.409861 A    
C42   C78   1.492677 S    
C11   N23   1.437845 S    
C63   C67   1.399937 A    
C39   C43   1.408850 A    
C164  C167  1.406103 A    
C40   C44   1.408807 A    
C58   C78   1.420777 A    
N38   O163  1.301523 A    
O20   C122  1.273104 A    
C87   C107  1.431845 S    
C178  O68   1.399165 S    
C186  O115  1.223145 D    
C13   N25   1.439507 S    
C46   C50   1.410434 A    
C30   N2    1.431265 S    
C158  C165  1.407621 A    
C67   N7    1.440895 S    
C191  O150  1.397824 S    
O21   C123  1.268900 A    
O48   C136  1.285047 A    
O22   C124  1.267994 A    
C68   N8    1.440886 S    
N37   O161  1.301551 A    
C95   C99   1.411149 A    
O3    C3    1.272926 A    
O96   H28   1.013950 S    
N9    O73   1.301291 A    
C41   C45   1.394922 A    
C28   C32   1.411797 A    
C70   C74   1.404771 A    
C181  O89   1.222844 D    
C165  C168  1.406190 A    
C92   N16   1.438098 S    
H13   C144  1.083606 S    
C94   C98   1.411554 A    
C75   C79   1.424431 A    
C39   C125  1.432764 S    
C23   C27   1.413213 A    
C24   C28   1.413202 A    
N26   O123  1.300463 A    
C147  C151  1.424217 S    
C191  O149  1.222755 D    
O148  H34   1.013755 S    
C60   N40   1.442792 S    
N33   O137  1.301297 A    
C158  C186  1.490065 S    
C135  C155  1.420982 S    
C9    C29   1.411841 A    
C193  O153  1.222939 D    
O5    C1    1.271902 A    
C12   C16   1.409540 A    
C27   N35   1.440807 S    
C48   C196  1.489949 S    
C143  C147  1.398486 A    
C75   C179  1.495902 S    
O38   Zn10  1.997142 S    
C68   C72   1.400176 A    
N14   O83   1.301202 A    
N1    O49   1.300892 A    
C86   C90   1.413084 A    
C182  O92   1.398542 S    
C28   N36   1.440786 S    
O5    Zn3   1.991396 S    
C29   N1    1.435877 S    
O146  H33   1.013745 S    
N14   O84   1.301226 A    
C166  N19   1.438951 S    
C88   C108  1.431849 S    
C19   C55   1.492855 S    
C38   C124  1.432686 S    
C33   C189  1.492902 S    
O8    C4    1.271495 A    
O23   C125  1.268157 A    
C9    N21   1.435805 S    
N9    O74   1.301613 A    
H12   C104  1.084380 S    
C21   N29   1.436005 S    
C190  O148  1.397816 S    
C71   C75   1.404943 A    
C44   C80   1.492622 S    
N13   O82   1.301261 A    
C170  C176  1.195716 T    
C160  C188  1.490103 S    
C10   C14   1.409471 A    
O18   Zn6   1.990903 S    
O13   Zn3   2.023615 S    
O34   Zn10  1.992181 S    
O41   Zn10  1.989783 S    
C138  H18   1.083572 S    
O35   C130  1.285559 A    
O40   Zn12  1.997142 S    
O27   Zn8   2.029755 S    
C31   N3    1.431274 S    
C84   C88   1.411461 A    
C5    C49   1.439249 S    
C89   C93   1.412037 A    
C180  O71   1.222309 D    
C93   C97   1.411340 A    
N20   O104  1.301247 A    
O154  H37   1.013807 S    
C100  C104  1.394033 A    
C179  O69   1.222296 D    
C82   C102  1.394109 A    
C82   C86   1.410865 A    
N24   O112  1.301359 A    
O15   Zn4   2.023615 S    
N36   O143  1.300501 A    
N4    O56   1.300643 A    
C2    C114  1.418484 S    
C81   C85   1.411161 A    
N23   O110  1.301356 A    
O28   C126  1.265599 A    
C83   C87   1.411456 A    
N19   O102  1.301246 A    
C91   N15   1.438098 S    
N32   O136  1.300871 A    
H10   C102  1.084519 S    
O33   Zn9   1.992808 S    
C69   H5    1.081876 S    
C8    C52   1.441448 S    
C22   N30   1.439305 S    
C18   C54   1.492724 S    
C66   N6    1.440885 S    
C136  C156  1.421021 S    
C81   N9    1.442092 S    
O14   C6    1.272896 A    
C140  H20   1.083574 S    
C11   C31   1.409022 A    
N2    O51   1.300925 A    
C83   N11   1.442057 S    
C84   N12   1.442057 S    
C177  O66   1.399106 S    
C60   C80   1.420847 A    
C73   C177  1.496160 S    
O10   C6    1.265470 A    
C86   C106  1.432286 S    
C122  C154  1.418500 S    
O44   C134  1.285971 A    
C83   C103  1.394088 A    
C72   H8    1.081838 S    
C94   C182  1.489976 S    
C107  C119  1.197111 T    
N35   O142  1.301407 A    
C65   C69   1.400176 A    
C98   C110  1.430554 S    
O41   C131  1.285798 A    
N25   O122  1.301415 A    
C67   C71   1.400162 A    
N39   O165  1.301561 A    
C127  C173  1.415063 S    
C168  C172  1.429025 S    
C20   C24   1.414072 A    
C142  C150  1.426303 S    
C89   N13   1.438454 S    
O66   H21   1.013860 S    
Zn11  O47   1.991685 S    
N8    O63   1.301693 A    
C64   C68   1.399961 A    
C6    C50   1.441558 S    
C61   H1    1.082409 S    
Zn6   O30   1.991301 S    
C187  O118  1.398438 S    
C157  C185  1.490056 S    
C38   C42   1.408670 A    
C63   H3    1.082403 S    
C189  O145  1.222871 D    
C16   N28   1.438653 S    
N7    O61   1.301692 A    
C60   C64   1.402607 A    
C139  C144  1.393584 A    
C84   C104  1.394087 A    
N3    O53   1.300919 A    
C15   N27   1.438669 S    
C185  O114  1.398411 S    
C158  C161  1.413782 A    
O20   Zn8   1.990903 S    
N21   O105  1.301231 A    
O21   Zn5   2.020451 S    
O42   C132  1.286085 A    
N18   O100  1.301268 A    
C188  O120  1.398438 S    
C12   N24   1.437846 S    
C196  O160  1.397435 S    
C97   C109  1.429713 S    
C70   H6    1.081912 S    
O118  H31   1.013876 S    
C22   C26   1.413311 A    
C138  C145  1.393534 A    
C14   N26   1.438653 S    
C45   C193  1.489592 S    
C137  C141  1.399086 A    
C194  O156  1.397689 S    
H15   C146  1.083578 S    
N22   O108  1.301361 A    
N12   O80   1.301627 A    
O114  H29   1.013833 S    
C49   C53   1.413466 A    
Zn8   O32   1.991301 S    
C52   C56   1.415305 A    
C92   C96   1.411831 A    
C61   C65   1.400058 A    
C184  O96   1.398421 S    
C10   C30   1.409031 A    
N15   O85   1.301175 A    
N5    O57   1.301742 A    
C82   N10   1.442021 S    
C192  O152  1.397821 S    
N17   O98   1.301251 A    
N10   O76   1.301588 A    
C66   C70   1.400143 A    
C195  O158  1.397438 S    
O12   Zn2   2.024469 S    
C33   C53   1.395357 A    
C162  C170  1.433227 S    
C7    C51   1.441412 S    
O1    C1    1.272742 A    
O18   C121  1.272943 A    
O72   H24   1.013852 S    
C33   C37   1.407831 A    
C27   C31   1.411805 A    
C62   H2    1.082391 S    
C160  C163  1.407638 A    
C13   C17   1.413463 A    
O43   Zn12  1.989783 S    
C36   C40   1.407153 A    
O37   Zn9   1.997147 S    
N38   O164  1.301035 A    
C149  C155  1.197737 T    
C15   C19   1.414035 A    
O158  H39   1.013791 S    
C178  O67   1.222333 D    
C138  C141  1.399069 A    
C139  H19   1.083566 S    
C36   C192  1.493781 S    
O23   Zn7   2.020451 S    
O68   H22   1.013848 S    
O24   C126  1.268165 A    
O46   C135  1.285094 A    
C57   C61   1.402610 A    
C90   N14   1.438123 S    
C59   C79   1.420865 A    
C151  C153  1.196603 T    
C25   N33   1.439868 S    
N30   O132  1.300871 A    
C167  C171  1.429104 S    
C11   C15   1.409538 A    
C144  C147  1.398483 A    
C44   C48   1.394489 A    
C76   C80   1.424387 A    
O40   C134  1.285644 A    
C172  C174  1.194680 T    
O28   Zn7   2.029753 S    
C10   N22   1.437873 S    
H14   C143  1.083591 S    
C26   N34   1.440879 S    
N30   O131  1.300694 A    
O6    C2    1.272672 A    
O4    Zn2   1.992034 S    
N31   O133  1.300713 A    
C37   C123  1.435300 S    
C157  C161  1.413793 A    
C62   C66   1.399978 A    
C93   C181  1.489455 S    
C40   C126  1.432775 S    
C57   C77   1.420699 A    
N28   O127  1.300462 A    
C140  C143  1.393533 A    
O92   H26   1.013844 S    
O94   H27   1.013951 S    
C21   C25   1.410647 A    
C59   C63   1.402604 A    
H11   C103  1.084377 S    
C45   C49   1.409726 A    
C1    C113  1.417856 S    
O36   C130  1.285642 A    
C157  C166  1.407597 A    
O2    Zn1   1.992034 S    
C47   C51   1.410495 A    
O10   Zn1   2.024469 S    
O17   C121  1.273239 A    
C182  O91   1.223143 D    
C159  C187  1.490097 S    
C141  C149  1.426266 S    
N29   O130  1.301068 A    
C35   C191  1.493848 S    
N40   O168  1.301031 A    
C117  C131  1.419144 S    
N39   O166  1.301030 A    
C32   N4    1.431273 S    
N19   O101  1.301194 A    
C36   C56   1.395872 A    
C183  O93   1.222874 D    
O15   C7    1.272801 A    
O116  H30   1.013831 S    
C112  C116  1.196018 T    
C190  O147  1.222719 D    
C196  O159  1.222925 D    
N13   O81   1.301210 A    
C106  C118  1.197268 T    
C111  C115  1.196015 T    
C65   N5    1.440881 S    
N7    O62   1.301591 A    
N34   O140  1.301419 A    
C18   C22   1.414055 A    
C99   C103  1.394034 A    
C186  O116  1.398411 S    
C171  C173  1.194734 T    
O42   Zn9   1.989787 S    
N37   O162  1.301045 A    
C85   C89   1.413099 A    
N23   O109  1.301125 A    
C181  O90   1.398431 S    
C128  C174  1.414997 S    
N16   O88   1.301213 A    
N35   O141  1.300504 A    
C159  C164  1.407519 A    
C25   C29   1.412315 A    
N36   O144  1.301405 A    
C57   N37   1.442616 S    
O19   Zn7   1.990984 S    
O11   C7    1.265494 A    
N21   O106  1.301229 A    
C17   C21   1.411450 A    
O9    Zn1   2.023848 S    
C96   C100  1.411150 A    
N33   O138  1.300582 A    
C193  O154  1.397092 S    
C73   C77   1.424683 A    
C166  C168  1.406172 A    
N15   O86   1.301215 A    
O36   Zn12  1.992181 S    
C96   C184  1.489610 S    
O16   C8    1.272683 A    
C16   C20   1.414007 A    
N2    O52   1.300644 A    
O150  H35   1.013756 S    
O33   C129  1.285639 A    
O11   Zn2   2.023848 S    
O29   C127  1.272106 A    
O39   Zn11  1.997147 S    
C177  O65   1.222245 D    
Zn5   O29   1.991222 S    
C3    C115  1.417417 S    
N1    O50   1.301187 A    
C90   C94   1.412418 A    
O25   C123  1.266155 A    
N27   O126  1.301327 A    
C130  C176  1.416251 S    
N16   O87   1.301173 A    
Zn10  O46   1.992316 S    
O7    C3    1.271493 A    
O6    Zn3   1.991470 S    
Zn7   O31   1.991222 S    
O31   C128  1.272151 A    
O17   Zn5   1.990984 S    
C160  C162  1.413822 A    
C120  C134  1.418863 S    
C165  N20   1.438936 S    
C118  C132  1.419192 S    
N25   O121  1.300704 A    
N40   O167  1.301560 A    
C163  N18   1.438842 S    
O45   C135  1.285040 A    
N6    O60   1.301592 A    
C146  C148  1.398485 A    
N8    O64   1.301594 A    
C43   C79   1.492576 S    
O2    C2    1.272454 A    
C59   N39   1.442809 S    
C187  O117  1.223176 D    
C34   C38   1.407110 A    
O47   C136  1.285105 A    
C17   C53   1.492354 S    
C47   C195  1.489928 S    
O37   C131  1.285967 A    
C14   C18   1.413953 A    
C85   C105  1.432260 S    
O14   Zn3   2.022993 S    
O24   Zn8   2.020449 S    
C185  O113  1.223146 D    
C26   C30   1.411887 A    
C163  C167  1.406144 A    
C4    C116  1.417416 S    
C72   C76   1.404900 A    
C35   C55   1.395841 A    
O160  H40   1.013790 S    
C180  O72   1.399145 S    
C188  O119  1.223181 D    
C51   C55   1.415383 A    
N31   O134  1.300874 A    
C121  C153  1.418470 S    
N20   O103  1.301190 A    
O43   C133  1.285970 A    
C179  O70   1.399138 S    
C74   C78   1.424268 A    
C159  C162  1.413738 A    
N24   O111  1.301123 A    
C46   C194  1.489653 S    
C140  C142  1.399083 A    
N4    O55   1.300922 A    
O156  H38   1.013774 S    
C58   N38   1.442765 S    
O38   C132  1.285696 A    
O12   C8    1.265625 A    
C194  O155  1.222918 D    
Zn12  O48   1.992316 S    
N32   O135  1.300708 A    
O26   Zn5   2.029753 S    
C88   C92   1.413215 A    
