data_mof_unit_57339.cif
_audit_creation_date              2012-12-10T19:09:37-0500
_audit_creation_method            fapswitch 2.2
_symmetry_space_group_name_H-M    P1
_symmetry_Int_Tables_number       1
_space_group_crystal_system       triclinic
_cell_length_a                    9.604406
_cell_length_b                    10.995004
_cell_length_c                    17.092496
_cell_angle_alpha                 86.137025
_cell_angle_beta                  90.942232
_cell_angle_gamma                 90.94936
_cell_volume                      1800.41518799

loop_
_atom_site_label
_atom_site_type_symbol
_atom_type_description
_atom_site_fract_x
_atom_site_fract_y
_atom_site_fract_z
_atom_type_partial_charge
C1    C     C_R   0.498405 0.262015 0.498370 0.868918
C2    C     C_R   0.640322 0.553670 0.774174 -0.310711
C3    C     C_R   0.592757 0.453827 0.137589 0.240583
C4    C     C_R   0.602101 0.451176 0.219878 0.178142
C5    C     C_R   0.461972 0.469997 0.099776 0.159170
C6    C     C_R   0.480597 0.463046 0.264711 -0.275346
C7    C     C_R   0.351175 0.444513 0.226603 0.203962
C8    C     C_R   0.340463 0.459254 0.144611 0.156932
C9    C     C_R   0.599163 0.065451 0.460119 0.106916
C10   C     C_R   0.492039 0.127836 0.493827 -0.212365
C11   C     C_R   0.376181 0.057055 0.522217 0.174299
C12   C     C_R   0.513657 0.505567 0.650789 0.808996
C13   C     C_R   0.383982 0.928744 0.532151 0.198586
C14   C     C_R   0.498260 0.869335 0.501767 -0.158281
C15   C     C_R   0.600707 0.939291 0.462813 0.054466
C16   C     C_3   0.754391 0.935507 0.474941 -0.503164
C17   C     C_3   0.752991 0.073244 0.470763 0.101753
C18   C     C_R   0.073654 0.591822 0.460735 0.151419
C19   C     C_R   0.074235 0.423533 0.550684 0.265671
C20   C     C_R   0.925189 0.421243 0.549708 0.298020
C21   C     C_R   0.927516 0.594718 0.463317 0.099052
C22   C     C_3   0.917632 0.644165 0.380148 -0.454086
C23   C     C_R   0.500595 0.736754 0.502199 0.852788
C24   C     C_3   0.074640 0.632732 0.375724 0.084950
C25   C     C_R   0.485529 0.487323 0.349959 0.894454
C26   C     C_R   0.514240 0.523923 0.736346 -0.071630
C27   C     C_R   0.390761 0.516624 0.781358 0.239169
C28   C     C_R   0.398950 0.525463 0.862305 -0.240735
C29   C     C_R   0.527058 0.545558 0.899982 0.367422
C30   C     C_R   0.646583 0.564214 0.855108 -0.157705
Cu1   Cu    Cu3+1 0.640670 0.499980 0.500000 1.006156
Cu2   Cu    Cu3+1 0.359330 0.500020 0.500000 1.045754
H1    H     H_    0.785637 0.893952 0.533622 0.172199
H2    H     H_    0.807266 0.898871 0.424994 0.238899
H3    H     H_    0.784778 0.110331 0.526612 0.106420
H4    H     H_    0.859341 0.584975 0.342307 0.247420
H5    H     H_    0.882331 0.739279 0.374261 0.210858
H6    H     H_    0.104805 0.560858 0.337931 0.205231
H7    H     H_    0.745661 0.583432 0.883224 0.169122
H8    H     H_    0.734578 0.569528 0.741219 0.170726
H9    H     H_    0.304012 0.517505 0.895816 0.151654
N1    N     N_2   0.538852 0.544411 0.982803 -0.179659
N2    N     N_2   0.448008 0.479077 0.016932 -0.219199
N3    N     N_R   0.147870 0.500930 0.499500 -0.223060
N4    N     N_R   0.851960 0.500890 0.499500 -0.188091
O1    O     O_R   0.618810 0.319640 0.500000 -0.555976
O2    O     O_R   0.381230 0.319680 0.499990 -0.519079
O3    O     O_R   0.631790 0.498830 0.613930 -0.582187
O4    O     O_R   0.394210 0.498870 0.613920 -0.509092
O5    O     O_R   0.618770 0.680320 0.500010 -0.599584
O6    O     O_R   0.381190 0.680360 0.500000 -0.529906
O7    O     O_R   0.605790 0.501130 0.386080 -0.551553
O8    O     O_R   0.368210 0.501170 0.386070 -0.554797
Br1   Br    Br    0.775269 0.400756 0.267593 -0.366936
N5    N     N_2   0.292715 0.862422 0.585132 -0.437000
H10   H     H_    0.304484 0.885287 0.642433 0.231854
C31   C     C_3   0.148862 0.845024 0.561010 -0.616615
H11   H     H_    0.079116 0.898889 0.596088 0.187457
H12   H     H_    0.119253 0.747854 0.571940 0.228180
H13   H     H_    0.131941 0.871884 0.498162 0.275586
Br2   Br    Br    0.841800 0.143124 0.377184 -0.391026
Br3   Br    Br    0.169203 0.321878 0.628607 -0.557038
N6    N     N_2   0.852957 0.332009 0.598485 -0.371463
H14   H     H_    0.885403 0.245554 0.589660 0.238297
C32   C     C_3   0.852084 0.351176 0.681701 -0.589884
H15   H     H_    0.917631 0.282803 0.715177 0.228470
H16   H     H_    0.744776 0.337794 0.703879 0.233617
H17   H     H_    0.891900 0.443483 0.693873 0.210563
Br4   Br    Br    0.171200 0.786640 0.351503 -0.503610
Br5   Br    Br    0.755727 0.419352 0.077819 -0.421386
Br6   Br    Br    0.200203 0.358718 0.280648 -0.413381
N7    N     N_2   0.206364 0.458290 0.107522 -0.372944
H18   H     H_    0.200661 0.430719 0.051066 0.274484
C33   C     C_3   0.117587 0.559782 0.121544 -0.494519
H19   H     H_    0.165169 0.620988 0.164204 0.224792
H20   H     H_    0.017320 0.524169 0.145532 0.289559
H21   H     H_    0.096944 0.614540 0.065666 0.202368
N8    N     N_2   0.256844 0.502684 0.746651 -0.366965
H22   H     H_    0.192238 0.443717 0.779276 0.270994
C34   C     C_3   0.189363 0.616807 0.725300 -0.647290
H23   H     H_    0.091452 0.599305 0.692234 0.216796
H24   H     H_    0.164143 0.664068 0.778650 0.206015
H25   H     H_    0.258513 0.676064 0.687590 0.252359
N9    N     N_2   0.251181 0.113706 0.540859 -0.393089
H26   H     H_    0.208591 0.082016 0.593431 0.276702
C35   C     C_3   0.150606 0.127537 0.476834 -0.461417
H27   H     H_    0.051082 0.082326 0.494727 0.197143
H28   H     H_    0.186672 0.087382 0.422768 0.258006
H29   H     H_    0.131023 0.225564 0.462533 0.267421

loop_
_geom_bond_atom_site_label_1
_geom_bond_atom_site_label_2
_ccdc_geom_bond_type
N5    H10   S    
N6    C32   S    
C29   N1    S    
C18   C21   A    
C19   C20   A    
Cu1   O7    S    
C12   O3    A    
C27   N8    S    
C12   O4    A    
C7    C8    A    
C26   C27   A    
C33   H20   S    
C18   C24   S    
C28   C29   A    
N9    C35   S    
C7    Br6   S    
C34   H23   S    
N8    C34   S    
C1    O1    A    
C31   H12   S    
C6    C25   S    
C19   Br3   S    
C15   C16   S    
C28   H9    S    
C17   Br2   S    
C16   C17   S    
C32   H16   S    
C33   H21   S    
C24   H6    S    
C9    C10   A    
C20   N4    A    
C16   H2    S    
C5    N2    S    
C21   C22   S    
C34   H25   S    
C24   Br4   S    
C21   N4    A    
C8    N7    S    
C33   H19   S    
C3    Br5   S    
N9    H26   S    
N7    C33   S    
N8    H22   S    
C1    O2    A    
C23   O5    A    
C22   H5    S    
Cu1   O1    S    
C12   C26   S    
C14   C23   S    
Cu2   O6    S    
C29   C30   A    
C18   N3    A    
C16   H1    S    
C23   O6    A    
Cu1   Cu2   S    
C32   H17   S    
Cu2   N3    S    
C2    C26   A    
C9    C17   S    
Cu1   O3    S    
N5    C31   S    
Cu2   O2    S    
C22   C24   S    
C4    C6    A    
N1    N2    D    
Cu1   O5    S    
C3    C4    A    
Cu2   O8    S    
C19   N3    A    
C4    Br1   S    
C35   H27   S    
C1    C10   S    
C25   O8    A    
N7    H18   S    
C3    C5    A    
C35   H29   S    
C5    C8    A    
C6    C7    A    
C11   N9    S    
C22   H4    S    
C2    C30   A    
C20   N6    S    
C9    C15   A    
C25   O7    A    
C11   C13   A    
C31   H11   S    
C34   H24   S    
C30   H7    S    
C35   H28   S    
Cu2   O4    S    
C10   C11   A    
N6    H14   S    
C2    H8    S    
C31   H13   S    
C32   H15   S    
Cu1   N4    S    
C27   C28   A    
C14   C15   A    
C17   H3    S    
C13   C14   A    
C13   N5    S    
