data_mof_unit_24418.cif
_audit_creation_date              2012-12-10T16:59:19-0500
_audit_creation_method            fapswitch 2.2
_symmetry_space_group_name_H-M    P1
_symmetry_Int_Tables_number       1
_space_group_crystal_system       triclinic
_cell_length_a                    7.78554
_cell_length_b                    8.547872
_cell_length_c                    27.713207
_cell_angle_alpha                 91.49377
_cell_angle_beta                  85.834548
_cell_angle_gamma                 93.379998
_cell_volume                      1835.79714454

loop_
_atom_site_label
_atom_site_type_symbol
_atom_type_description
_atom_site_fract_x
_atom_site_fract_y
_atom_site_fract_z
_atom_type_partial_charge
C1    C     C_R   0.545551 0.794593 0.498574 0.954699
C2    C     C_R   0.454660 0.205500 0.500737 0.962610
C3    C     C_R   0.520908 0.509393 0.897810 -0.088285
C4    C     C_R   0.461263 0.513614 0.102786 -0.088614
C5    C     C_R   0.584802 0.644866 0.872166 -0.043351
C6    C     C_R   0.397893 0.377766 0.128320 -0.043162
C7    C     C_R   0.644413 0.779283 0.898520 0.185110
C8    C     C_R   0.334133 0.244959 0.101971 0.185933
C9    C     C_R   0.470952 0.371618 0.871981 -0.010362
C10   C     C_R   0.514115 0.650287 0.128699 -0.009864
C11   C     C_R   0.508608 0.502935 0.646393 -0.079445
C12   C     C_R   0.490321 0.503940 0.353621 -0.078366
C13   C     C_R   0.536623 0.651218 0.026582 0.067835
C14   C     C_R   0.442203 0.373246 0.974071 0.068019
C15   C     C_R   0.421383 0.376380 0.025390 -0.003668
C16   C     C_R   0.556240 0.648496 0.975205 -0.003415
C17   C     C_R   0.473061 0.513591 0.051414 0.073360
C18   C     C_R   0.506278 0.510628 0.949199 0.073405
C19   C     C_R   0.576380 0.788269 0.054261 -0.226798
C20   C     C_R   0.404380 0.235480 0.946549 -0.227501
C21   C     C_R   0.568227 0.786603 0.104175 -0.153065
C22   C     C_R   0.415420 0.235915 0.896635 -0.153349
C23   C     C_R   0.502460 0.500776 0.593856 0.865541
C24   C     C_R   0.497523 0.500527 0.406126 0.859891
C25   C     C_R   0.629861 0.778336 0.949001 -0.221090
C26   C     C_R   0.345705 0.247227 0.051519 -0.221427
C27   C     C_2   0.570135 0.958020 0.497953 -0.389414
C28   C     C_2   0.431102 0.042231 0.499931 -0.374541
C29   C     C_R   0.585767 0.638874 0.821072 0.509942
C30   C     C_R   0.401422 0.381836 0.179294 0.508949
C31   C     C_R   0.477113 0.372047 0.821657 0.502468
C32   C     C_R   0.512542 0.647962 0.178953 0.502763
C33   C     C_R   0.365631 0.536687 0.726471 0.236130
C34   C     C_R   0.628083 0.473253 0.272766 0.240825
C35   C     C_R   0.360649 0.534493 0.676224 -0.208366
C36   C     C_R   0.635222 0.470026 0.322916 -0.210331
C37   C     C_R   0.662726 0.474369 0.667042 -0.209799
C38   C     C_R   0.337307 0.541525 0.333885 -0.228032
C39   C     C_R   0.668356 0.475492 0.716938 -0.155955
C40   C     C_R   0.329186 0.545005 0.284148 -0.147804
C41   C     C_R   0.520796 0.505882 0.746580 0.330950
C42   C     C_R   0.473518 0.511351 0.253659 0.329264
H1    H     H_    0.778652 0.450343 0.644727 0.190181
H2    H     H_    0.223835 0.568633 0.356811 0.169699
H3    H     H_    0.787245 0.452344 0.732747 0.147516
H4    H     H_    0.210649 0.573752 0.269126 0.146592
H5    H     H_    0.753186 0.440129 0.337832 0.142170
H6    H     H_    0.241666 0.557975 0.660454 0.165401
H7    H     H_    0.605328 0.893661 0.123530 0.189574
H8    H     H_    0.379845 0.128255 0.877385 0.189535
H9    H     H_    0.613456 0.900522 0.038881 0.142897
H10   H     H_    0.367675 0.123381 0.962112 0.143105
H11   H     H_    0.681541 0.881583 0.966983 0.144619
H12   H     H_    0.290170 0.145731 0.033465 0.144978
H13   H     H_    0.701973 0.008548 0.496521 0.185580
H14   H     H_    0.299889 0.992148 0.500743 0.166516
N1    N     N_R   0.529377 0.505253 0.797735 -0.351159
N2    N     N_R   0.461345 0.514112 0.202669 -0.351679
N3    N     N_2   0.950320 0.457960 0.486880 0.161069
N4    N     N_2   0.049680 0.542040 0.513120 0.161271
O1    O     O_R   0.389250 0.738570 0.503220 -0.664364
O2    O     O_R   0.610750 0.261430 0.496780 -0.641012
O3    O     O_R   0.678390 0.711630 0.494810 -0.599355
O4    O     O_R   0.321610 0.288370 0.505190 -0.567469
O5    O     O_R   0.355440 0.513440 0.575450 -0.647572
O6    O     O_R   0.644560 0.486560 0.424550 -0.677582
O7    O     O_R   0.644590 0.486500 0.567040 -0.566460
O8    O     O_R   0.355410 0.513500 0.432960 -0.594728
O9    O     O_2   0.639167 0.764599 0.794448 -0.553418
O10   O     O_2   0.348970 0.255482 0.205748 -0.555451
O11   O     O_2   0.564040 0.777625 0.204140 -0.553376
O12   O     O_2   0.429093 0.241070 0.796564 -0.552718
Zn1   Zn    Zn3+2 0.306940 0.517990 0.505620 1.016041
Zn2   Zn    Zn3+2 0.693060 0.482010 0.494380 1.013302
O13   O     O_3   0.036037 0.347749 0.460981 -0.521032
C43   C     C_3   0.951734 0.311759 0.418842 0.175304
H15   H     H_    0.945725 0.419358 0.397510 0.134041
H16   H     H_    0.821710 0.255735 0.427523 0.180207
C44   C     C_3   0.054725 0.195442 0.387959 -0.871222
H17   H     H_    0.061690 0.085161 0.407894 0.254145
H18   H     H_    0.991327 0.168454 0.353848 0.226158
H19   H     H_    0.187658 0.245496 0.378922 0.269518
O14   O     O_3   0.961052 0.619327 0.548864 -0.523850
C45   C     C_3   0.053358 0.760488 0.558850 0.179156
H20   H     H_    0.076239 0.829659 0.525399 0.134082
H21   H     H_    0.176049 0.739037 0.574736 0.176617
C46   C     C_3   0.946160 0.855813 0.595649 -0.857252
H22   H     H_    0.920222 0.790066 0.629716 0.261942
H23   H     H_    0.017174 0.968924 0.603660 0.222121
H24   H     H_    0.821447 0.880138 0.581090 0.259739
C47   C     C_3   0.727978 0.925096 0.874776 -0.768104
H25   H     H_    0.771965 0.015043 0.901526 0.205093
H26   H     H_    0.843558 0.894534 0.851369 0.263763
H27   H     H_    0.634498 0.980848 0.853305 0.277743
C48   C     C_3   0.249653 0.099487 0.125694 -0.768677
H28   H     H_    0.201369 0.011455 0.098970 0.205102
H29   H     H_    0.344013 0.040985 0.146152 0.276017
H30   H     H_    0.136782 0.131152 0.150035 0.263446
C49   C     C_3   0.783653 0.435360 0.239996 -0.885919
H31   H     H_    0.893594 0.406153 0.260876 0.237081
H32   H     H_    0.751035 0.333181 0.216138 0.256611
H33   H     H_    0.825762 0.537650 0.217312 0.250923
C50   C     C_3   0.207005 0.572391 0.758286 -0.881734
H34   H     H_    0.097579 0.597505 0.736647 0.235814
H35   H     H_    0.166416 0.470693 0.781364 0.251999
H36   H     H_    0.235202 0.676631 0.781758 0.255778

loop_
_geom_bond_atom_site_label_1
_geom_bond_atom_site_label_2
_ccdc_geom_bond_type
C45   H21   S    
C46   H22   S    
C8    C26   A    
C14   C18   A    
C48   H28   S    
C34   C42   A    
C43   C44   S    
C32   N2    A    
C42   N2    S    
C21   H7    S    
C28   H14   S    
C48   H30   S    
C39   C41   A    
C40   H4    S    
C36   H5    S    
C19   C21   A    
C25   H11   S    
N4    O14   S    
C27   H13   S    
C9    C22   A    
O6    Zn2   S    
C26   H12   S    
N4    Zn1   S    
O5    Zn1   S    
C3    C18   A    
C23   O7    A    
C11   C37   A    
C49   H31   S    
O4    Zn1   S    
C45   C46   S    
C12   C36   A    
C29   O9    S    
C24   O6    A    
C39   H3    S    
C40   C42   A    
N3    N4    D    
C8    C48   S    
C35   H6    S    
C1    O3    A    
C30   O10   S    
C2    O4    A    
C32   O11   S    
C5    C29   A    
C10   C21   A    
C13   C19   A    
C14   C20   A    
C22   H8    S    
C43   H15   S    
C4    C6    A    
C47   H25   S    
C44   H18   S    
C9    C31   A    
C15   C26   A    
C6    C8    A    
O1    Zn1   S    
O8    Zn1   S    
C37   H1    S    
O13   C43   S    
C38   H2    S    
C3    C9    A    
C19   H9    S    
C47   H26   S    
O14   C45   S    
C7    C47   S    
C34   C49   S    
C50   H35   S    
O7    Zn2   S    
C45   H20   S    
N3    Zn2   S    
C4    C17   A    
C16   C18   A    
C31   O12   S    
C49   H32   S    
C20   C22   A    
C46   H23   S    
C46   H24   S    
C4    C10   A    
N3    O13   S    
C50   H34   S    
C5    C7    A    
C29   N1    A    
C16   C25   A    
C15   C17   A    
C6    C30   A    
C33   C50   S    
C43   H16   S    
C3    C5    A    
C1    O1    A    
C44   H19   S    
C48   H29   S    
O3    Zn2   S    
C12   C24   S    
C7    C25   A    
C13   C17   A    
C33   C41   A    
C23   O5    A    
C11   C35   A    
C41   N1    S    
C20   H10   S    
C47   H27   S    
C38   C40   A    
C31   N1    A    
C30   N2    A    
C11   C23   S    
C33   C35   A    
C50   H36   S    
C34   C36   A    
C12   C38   A    
C24   O8    A    
C44   H17   S    
C10   C32   A    
C49   H33   S    
C37   C39   A    
C13   C16   A    
C27   C28   D    
C1    C27   S    
C14   C15   A    
O2    Zn2   S    
C2    C28   S    
C2    O2    A    
