data_mof_unit_10296.cif
_audit_creation_date              2012-12-11T16:27:33-0500
_audit_creation_method            fapswitch 2.2
_symmetry_space_group_name_H-M    P1
_symmetry_Int_Tables_number       1
_space_group_crystal_system       triclinic
_cell_length_a                    21.676808
_cell_length_b                    6.922201
_cell_length_c                    14.679028
_cell_angle_alpha                 89.999958
_cell_angle_beta                  104.850456
_cell_angle_gamma                 90.000026
_cell_volume                      2129.03477791

loop_
_atom_site_label
_atom_site_type_symbol
_atom_type_description
_atom_site_fract_x
_atom_site_fract_y
_atom_site_fract_z
_atom_type_partial_charge
O1    O     O_R   0.835850 0.638310 0.002120 -0.535613
O2    O     O_R   0.164150 0.361690 0.997880 -0.535613
O3    O     O_R   0.664150 0.138310 0.997880 -0.535613
O4    O     O_R   0.335850 0.861690 0.002120 -0.535613
O5    O     O_R   0.717530 0.306070 0.861970 -0.533574
O6    O     O_R   0.282470 0.693930 0.138030 -0.533574
O7    O     O_R   0.782470 0.806070 0.138030 -0.533575
O8    O     O_R   0.217530 0.193930 0.861970 -0.533575
C1    C     C_R   0.704108 0.478348 0.824115 0.715988
C2    C     C_R   0.295892 0.521652 0.175884 0.715987
C3    C     C_R   0.795892 0.978348 0.175884 0.715988
C4    C     C_R   0.204107 0.021652 0.824115 0.715988
O9    O     O_R   0.838690 0.308440 0.993250 -0.534482
O10   O     O_R   0.161310 0.691560 0.006750 -0.534482
O11   O     O_R   0.661310 0.808440 0.006750 -0.534483
O12   O     O_R   0.338690 0.191560 0.993250 -0.534483
O13   O     O_R   0.786170 0.140510 0.130090 -0.549002
O14   O     O_R   0.213830 0.859490 0.869910 -0.549001
O15   O     O_R   0.713830 0.640510 0.869910 -0.549002
O16   O     O_R   0.286170 0.359490 0.130090 -0.549002
C5    C     C_R   0.864511 0.478048 0.993841 0.686706
C6    C     C_R   0.135489 0.521952 0.006158 0.686706
C7    C     C_R   0.635489 0.978048 0.006159 0.686706
C8    C     C_R   0.364511 0.021952 0.993841 0.686706
O17   O     O_3   0.732630 0.472520 0.044740 -0.367885
O18   O     O_3   0.267370 0.527480 0.955260 -0.367885
O19   O     O_3   0.767370 0.972520 0.955260 -0.367885
O20   O     O_3   0.232630 0.027480 0.044740 -0.367885
V1    V     V_3+5 0.753220 0.196740 0.991700 1.492158
V2    V     V_3+5 0.246780 0.803260 0.008300 1.492158
V3    V     V_3+5 0.746780 0.696740 0.008300 1.492156
V4    V     V_3+5 0.253220 0.303260 0.991700 1.492155
C9    C     C_R   0.539005 0.896018 0.836782 -0.140530
C10   C     C_R   0.460995 0.103982 0.163218 -0.140531
C11   C     C_R   0.960995 0.396033 0.163220 -0.140528
C12   C     C_R   0.039005 0.603966 0.836780 -0.140529
C13   C     C_R   0.494047 0.852648 0.753519 -0.074441
C14   C     C_R   0.505953 0.147353 0.246481 -0.074441
C15   C     C_R   0.005953 0.352664 0.246483 -0.074442
C16   C     C_R   0.994046 0.647334 0.753516 -0.074442
C17   C     C_R   0.429532 0.854574 0.750428 0.368294
C18   C     C_R   0.570468 0.145428 0.249572 0.368295
C19   C     C_R   0.070469 0.354585 0.249573 0.368293
C20   C     C_R   0.929531 0.645413 0.750426 0.368294
C21   C     C_R   0.409095 0.906821 0.829886 -0.141532
C22   C     C_R   0.590906 0.093179 0.170114 -0.141531
C23   C     C_R   0.090906 0.406829 0.170115 -0.141530
C24   C     C_R   0.909094 0.593170 0.829885 -0.141530
C25   C     C_R   0.453769 0.954499 0.915374 0.032147
C26   C     C_R   0.546231 0.045501 0.084627 0.032148
C27   C     C_R   0.046231 0.454504 0.084627 0.032148
C28   C     C_R   0.953769 0.545495 0.915373 0.032147
C29   C     C_R   0.520142 0.945603 0.919177 0.090050
C30   C     C_R   0.479858 0.054397 0.080823 0.090051
C31   C     C_R   0.979858 0.445611 0.080823 0.090050
C32   C     C_R   0.020141 0.554389 0.919176 0.090050
C33   C     C_R   0.433578 0.011038 0.996155 -0.129625
C34   C     C_R   0.566422 0.988962 0.003846 -0.129625
C35   C     C_R   0.066422 0.511037 0.003845 -0.129626
C36   C     C_R   0.933578 0.488963 0.996155 -0.129626
H1    H     H_    0.588619 0.891036 0.835296 0.120974
H2    H     H_    0.411381 0.108964 0.164704 0.120974
H3    H     H_    0.911382 0.391053 0.164706 0.120972
H4    H     H_    0.088618 0.608946 0.835294 0.120971
H5    H     H_    0.509610 0.814644 0.691373 0.151010
H6    H     H_    0.490390 0.185358 0.308627 0.151009
H7    H     H_    0.990391 0.314663 0.308629 0.151008
H8    H     H_    0.009609 0.685335 0.691370 0.151008
H9    H     H_    0.358313 0.908957 0.824025 0.104998
H10   H     H_    0.641687 0.091044 0.175975 0.104998
H11   H     H_    0.141687 0.408961 0.175975 0.104999
H12   H     H_    0.858313 0.591038 0.824024 0.104998
C37   C     C_R   0.177460 0.997137 0.721486 -0.117955
C38   C     C_R   0.822540 0.002863 0.278514 -0.117954
C39   C     C_R   0.322540 0.497137 0.278514 -0.117955
C40   C     C_R   0.677460 0.502864 0.721486 -0.117954
C41   C     C_R   0.174772 0.792110 0.586672 0.359466
C42   C     C_R   0.825228 0.207892 0.413328 0.359464
C43   C     C_R   0.325229 0.292108 0.413328 0.359464
C44   C     C_R   0.674771 0.707897 0.586673 0.359461
C45   C     C_R   0.205261 0.856791 0.676449 -0.139280
C46   C     C_R   0.794739 0.143211 0.323550 -0.139280
C47   C     C_R   0.294739 0.356788 0.323550 -0.139279
C48   C     C_R   0.705261 0.643215 0.676451 -0.139279
C49   C     C_R   0.117222 0.070700 0.675299 -0.131660
C50   C     C_R   0.882777 0.929299 0.324701 -0.131659
C51   C     C_R   0.382777 0.570702 0.324702 -0.131660
C52   C     C_R   0.617224 0.429297 0.675297 -0.131656
C53   C     C_R   0.080847 0.987848 0.589366 0.055594
C54   C     C_R   0.919152 0.012151 0.410633 0.055595
C55   C     C_R   0.419153 0.487850 0.410633 0.055593
C56   C     C_R   0.580848 0.512150 0.589366 0.055595
C57   C     C_R   0.113066 0.859530 0.541764 -0.001083
C58   C     C_R   0.886934 0.140470 0.458236 -0.001083
C59   C     C_R   0.386935 0.359530 0.458236 -0.001083
C60   C     C_R   0.613066 0.640473 0.541764 -0.001082
C61   C     C_R   0.014501 0.029844 0.547972 -0.013593
C62   C     C_R   0.985498 0.970155 0.452028 -0.013593
C63   C     C_R   0.485499 0.529846 0.452028 -0.013593
C64   C     C_R   0.514502 0.470153 0.547971 -0.013593
C65   C     C_R   0.024903 0.875791 0.401434 0.231033
C66   C     C_R   0.975097 0.124206 0.598566 0.231033
C67   C     C_R   0.475098 0.375787 0.598565 0.231030
C68   C     C_R   0.524903 0.624214 0.401435 0.231032
C69   C     C_R   0.084881 0.808778 0.448522 -0.078728
C70   C     C_R   0.915119 0.191220 0.551478 -0.078728
C71   C     C_R   0.415120 0.308778 0.551477 -0.078727
C72   C     C_R   0.584880 0.691226 0.448523 -0.078728
H13   H     H_    0.111774 0.729452 0.408160 0.218487
H14   H     H_    0.888225 0.270545 0.591840 0.218487
H15   H     H_    0.388227 0.229453 0.591839 0.218488
H16   H     H_    0.611774 0.770554 0.408162 0.218488
H17   H     H_    0.899909 0.808730 0.292154 0.170366
H18   H     H_    0.100090 0.191269 0.707846 0.170366
H19   H     H_    0.600093 0.308724 0.707843 0.170368
H20   H     H_    0.399909 0.691272 0.292155 0.170369
H21   H     H_    0.749411 0.206696 0.287329 0.165357
H22   H     H_    0.250589 0.793308 0.712670 0.165357
H23   H     H_    0.750588 0.706703 0.712672 0.165357
H24   H     H_    0.249412 0.293302 0.287329 0.165357
Br1   Br    Br    0.629923 0.220366 0.362860 -0.473981
Br2   Br    Br    0.370077 0.779636 0.637140 -0.473982
Br3   Br    Br    0.870076 0.720356 0.637139 -0.473981
Br4   Br    Br    0.129923 0.279642 0.362861 -0.473982
Br5   Br    Br    0.217866 0.596984 0.533380 -0.385984
Br6   Br    Br    0.782134 0.403021 0.466619 -0.385983
Br7   Br    Br    0.282135 0.096979 0.466619 -0.385984
Br8   Br    Br    0.717864 0.903030 0.533384 -0.385987
Br9   Br    Br    0.010337 0.865196 0.266041 -0.613676
Br10  Br    Br    0.989662 0.134801 0.733959 -0.613676
Br11  Br    Br    0.489665 0.365182 0.733959 -0.613680
Br12  Br    Br    0.510337 0.634820 0.266041 -0.613679

loop_
_geom_bond_atom_site_label_1
_geom_bond_atom_site_label_2
_ccdc_geom_bond_type
O17   V3    S    
C7    C34   S    
O1    C5    A    
C51   C55   A    
O19   V1    S    
O13   V1    S    
O3    C7    A    
C56   C60   A    
C44   C48   A    
O15   V3    S    
C40   C48   A    
C61   C62   A    
O7    C3    A    
C26   C30   A    
C50   H17   S    
O9    V1    S    
C49   H18   S    
C24   H12   S    
C14   C18   A    
C70   H14   S    
O4    C8    A    
O1    V3    S    
C25   C33   A    
O17   V1    S    
O2    V4    S    
C18   C22   A    
O3    V1    S    
C12   C16   A    
C43   Br7   S    
C28   C36   A    
C57   C69   A    
C1    O15   A    
C58   C70   A    
C14   H6    S    
C2    O16   A    
C8    C33   S    
C13   H5    S    
C4    C37   S    
O2    C6    A    
O14   V2    S    
C1    C40   S    
C21   C25   A    
C44   C60   A    
C40   C52   A    
C16   C20   A    
C61   C66   A    
O11   C7    A    
C63   C68   A    
C60   C72   A    
O12   C8    A    
C31   C36   A    
C65   C69   A    
C47   H24   S    
C15   H7    S    
O10   V2    S    
C37   C45   A    
C54   C58   A    
O5    V1    S    
C9    C29   A    
O7    V3    S    
C21   H9    S    
C26   C34   A    
C52   C56   A    
O20   V4    S    
C5    C36   S    
C50   C54   A    
C6    C35   S    
C49   C53   A    
O18   V4    S    
C15   C19   A    
C44   Br8   S    
O19   V3    S    
C45   H22   S    
C64   C67   A    
C9    C13   A    
C72   H16   S    
C53   C61   A    
O8    V4    S    
C17   Br2   S    
C11   C15   A    
O5    C1    A    
C12   C32   A    
C2    C39   S    
C42   C46   A    
C63   C64   A    
C41   C45   A    
O8    C4    A    
C37   C49   A    
C51   H20   S    
O9    C5    A    
C38   C50   A    
O11   V3    S    
C23   H11   S    
C11   C31   A    
C59   C71   A    
C39   C51   A    
O6    V2    S    
O18   V2    S    
C16   H8    S    
C27   C35   A    
C42   Br6   S    
C10   H2    S    
C68   C72   A    
C41   Br5   S    
C56   C64   A    
C67   C71   A    
O16   V4    S    
C69   H13   S    
C3    O13   A    
C53   C57   A    
C10   C14   A    
C71   H15   S    
C66   Br10  S    
C3    C38   S    
O6    C2    A    
C23   C27   A    
C29   C34   A    
C10   C30   A    
O12   V4    S    
C62   C65   A    
C22   C26   A    
C20   Br3   S    
C32   C35   A    
O10   C6    A    
C52   H19   S    
O20   V2    S    
C43   C47   A    
C39   C47   A    
C67   Br11  S    
C42   C58   A    
C48   H23   S    
C25   C29   A    
C41   C57   A    
C66   C70   A    
C27   C31   A    
C13   C17   A    
O4    V2    S    
C22   H10   S    
C55   C59   A    
C28   C32   A    
C24   C28   A    
C9    H1    S    
C68   Br12  S    
C4    O14   A    
C17   C21   A    
C11   H3    S    
C46   H21   S    
C55   C63   A    
C12   H4    S    
C43   C59   A    
C19   C23   A    
C19   Br4   S    
C54   C62   A    
C38   C46   A    
C20   C24   A    
C18   Br1   S    
C30   C33   A    
C65   Br9   S    
