data_mof_unit_32660.cif
_audit_creation_date              2012-12-11T16:28:26-0500
_audit_creation_method            fapswitch 2.2
_symmetry_space_group_name_H-M    P1
_symmetry_Int_Tables_number       1
_space_group_crystal_system       triclinic
_cell_length_a                    16.859873
_cell_length_b                    7.302164
_cell_length_c                    15.03703
_cell_angle_alpha                 89.999904
_cell_angle_beta                  94.458669
_cell_angle_gamma                 89.999862
_cell_volume                      1845.65973275

loop_
_atom_site_label
_atom_site_type_symbol
_atom_type_description
_atom_site_fract_x
_atom_site_fract_y
_atom_site_fract_z
_atom_type_partial_charge
O1    O     O_R   0.663460 0.361760 0.165970 -0.533562
O2    O     O_R   0.336540 0.638240 0.834030 -0.533114
O3    O     O_R   0.836540 0.861760 0.334030 -0.533562
O4    O     O_R   0.163460 0.138240 0.665970 -0.533115
O5    O     O_R   0.827100 0.689870 0.163730 -0.537465
O6    O     O_R   0.172900 0.310130 0.836270 -0.532502
O7    O     O_R   0.672900 0.189870 0.336270 -0.537465
O8    O     O_R   0.327100 0.810130 0.663730 -0.532501
C1    C     C_R   0.854247 0.522692 0.144960 0.704487
C2    C     C_R   0.146040 0.476316 0.855493 0.703064
C3    C     C_R   0.645753 0.022692 0.355040 0.704487
C4    C     C_R   0.353959 0.976317 0.644507 0.703064
O9    O     O_R   0.663490 0.691370 0.155500 -0.537771
O10   O     O_R   0.336510 0.308630 0.844500 -0.538533
O11   O     O_R   0.836510 0.191370 0.344500 -0.537771
O12   O     O_R   0.163490 0.808630 0.655500 -0.538534
O13   O     O_R   0.671770 0.863320 0.325740 -0.527407
O14   O     O_R   0.328230 0.136680 0.674260 -0.531942
O15   O     O_R   0.828230 0.363320 0.174260 -0.527408
O16   O     O_R   0.171770 0.636680 0.825740 -0.531940
C5    C     C_R   0.637819 0.523679 0.131614 0.693826
C6    C     C_R   0.359193 0.478475 0.872026 0.689511
C7    C     C_R   0.862181 0.023679 0.368386 0.693825
C8    C     C_R   0.140807 0.978476 0.627974 0.689514
O17   O     O_3   0.752910 0.528800 0.305860 -0.376328
O18   O     O_3   0.247090 0.471200 0.694140 -0.377172
O19   O     O_3   0.747090 0.028800 0.194140 -0.376329
O20   O     O_3   0.252910 0.971200 0.805860 -0.377172
V1    V     V_3+5 0.749460 0.803010 0.239640 1.407857
V2    V     V_3+5 0.250540 0.196990 0.760360 1.397818
V3    V     V_3+5 0.750540 0.303010 0.260360 1.407857
V4    V     V_3+5 0.249460 0.696990 0.739640 1.397818
C9    C     C_1   0.467367 0.988500 0.528112 -0.013556
C10   C     C_1   0.529078 0.998716 0.466959 0.013416
C11   C     C_1   0.032634 0.488498 0.971888 -0.013549
C12   C     C_1   0.970923 0.498714 0.033042 0.013418
C13   C     C_R   0.019317 0.063348 0.311881 -0.286383
C14   C     C_R   0.982177 0.908431 0.673116 -0.301369
C15   C     C_R   0.480684 0.563343 0.188120 -0.286375
C16   C     C_R   0.517823 0.408433 0.826884 -0.301375
C17   C     C_R   0.091928 0.105108 0.279489 0.371121
C18   C     C_R   0.907319 0.915994 0.705883 0.340404
C19   C     C_R   0.408073 0.605103 0.220512 0.371117
C20   C     C_R   0.592681 0.415996 0.794117 0.340406
C21   C     C_R   0.159391 0.124412 0.339077 0.345575
C22   C     C_R   0.843794 0.995002 0.653929 0.347847
C23   C     C_R   0.340610 0.624409 0.160926 0.345568
C24   C     C_R   0.656205 0.495003 0.846072 0.347850
C25   C     C_R   0.151992 0.111328 0.432373 -0.038213
C26   C     C_R   0.854784 0.056450 0.567280 -0.017539
C27   C     C_R   0.348007 0.611324 0.067629 -0.038206
C28   C     C_R   0.645215 0.556451 0.932720 -0.017542
C29   C     C_R   0.079984 0.044029 0.465696 0.006987
C30   C     C_R   0.926488 0.013635 0.527804 -0.002355
C31   C     C_R   0.420015 0.544026 0.034305 0.006985
C32   C     C_R   0.573512 0.513636 0.972196 -0.002354
C33   C     C_R   0.011110 0.036097 0.403660 -0.025119
C34   C     C_R   0.994179 0.967286 0.585679 -0.014785
C35   C     C_R   0.488890 0.536095 0.096340 -0.025122
C36   C     C_R   0.505820 0.467286 0.914322 -0.014783
C37   C     C_R   0.071999 0.991930 0.557554 -0.085201
C38   C     C_R   0.933869 0.021493 0.434390 -0.081582
C39   C     C_R   0.428000 0.491929 0.942447 -0.085199
C40   C     C_R   0.566130 0.521493 0.065610 -0.081581
C41   C     C_1   0.415632 0.983032 0.580869 -0.201009
C42   C     C_1   0.582109 0.010808 0.416038 -0.187282
C43   C     C_1   0.084368 0.483031 0.919131 -0.201007
C44   C     C_1   0.917892 0.510807 0.083963 -0.187287
H1    H     H_    0.968319 0.061826 0.263509 0.158444
H2    H     H_    0.030455 0.856955 0.717714 0.165797
H3    H     H_    0.531681 0.561819 0.236492 0.158445
H4    H     H_    0.469545 0.356957 0.782286 0.165797
C45   C     C_3   0.211940 0.214785 0.491746 -0.695194
H5    H     H_    0.248606 0.308582 0.454295 0.201891
H6    H     H_    0.181173 0.307770 0.535933 0.229154
H7    H     H_    0.251618 0.116478 0.527977 0.183246
C46   C     C_3   0.798489 0.201010 0.528660 -0.688132
H8    H     H_    0.770788 0.278156 0.581767 0.230740
H9    H     H_    0.831024 0.306758 0.493130 0.210957
H10   H     H_    0.750976 0.135991 0.485168 0.186602
C47   C     C_3   0.288053 0.714762 0.008255 -0.695185
H11   H     H_    0.251379 0.808547 0.045703 0.201890
H12   H     H_    0.318816 0.807758 0.964068 0.229154
H13   H     H_    0.248383 0.616438 0.972023 0.183236
C48   C     C_3   0.701509 0.701014 0.971340 -0.688136
H14   H     H_    0.729209 0.778161 0.918232 0.230738
H15   H     H_    0.668974 0.806761 0.006870 0.210958
H16   H     H_    0.749023 0.635996 0.014832 0.186603
O21   O     O_3   0.091239 0.170231 0.192828 -0.555123
C49   C     C_3   0.137836 0.060945 0.139596 0.125921
H17   H     H_    0.175682 0.958447 0.176816 0.161507
H18   H     H_    0.178229 0.151717 0.104839 0.132425
C50   C     C_3   0.083393 0.964716 0.069618 -0.772165
H19   H     H_    0.049111 0.068917 0.028942 0.240553
H20   H     H_    0.118276 0.881752 0.024838 0.188469
H21   H     H_    0.041859 0.873507 0.102591 0.228393
O22   O     O_3   0.896795 0.840381 0.788234 -0.550712
C51   C     C_3   0.898449 0.978824 0.853482 0.113337
H22   H     H_    0.840332 0.048820 0.850698 0.148148
H23   H     H_    0.947836 0.078432 0.846894 0.109690
C52   C     C_3   0.910977 0.891902 0.944556 -0.738625
H24   H     H_    0.970936 0.830330 0.950929 0.235505
H25   H     H_    0.905879 0.996632 0.997368 0.188695
H26   H     H_    0.866350 0.783058 0.952125 0.237809
O23   O     O_3   0.408764 0.670222 0.307175 -0.555121
C53   C     C_3   0.362160 0.560950 0.360405 0.125918
H27   H     H_    0.324324 0.458433 0.323188 0.161505
H28   H     H_    0.321759 0.651725 0.395144 0.132430
C54   C     C_3   0.416593 0.464752 0.430400 -0.772183
H29   H     H_    0.450870 0.568967 0.471070 0.240563
H30   H     H_    0.381704 0.381808 0.475182 0.188473
H31   H     H_    0.458131 0.373529 0.397444 0.228398
O24   O     O_3   0.603205 0.340389 0.711765 -0.550710
C55   C     C_3   0.601547 0.478836 0.646519 0.113341
H32   H     H_    0.659663 0.548835 0.649301 0.148145
H33   H     H_    0.552158 0.578442 0.653111 0.109690
C56   C     C_3   0.589014 0.391920 0.555443 -0.738629
H34   H     H_    0.529059 0.330332 0.549077 0.235511
H35   H     H_    0.594101 0.496656 0.502633 0.188699
H36   H     H_    0.633647 0.283092 0.547867 0.237804
O25   O     O_3   0.774235 0.035762 0.692207 -0.564719
C57   C     C_3   0.719852 0.892518 0.674627 0.088957
H37   H     H_    0.746901 0.762162 0.698856 0.182662
H38   H     H_    0.702609 0.880703 0.601789 0.101030
C58   C     C_3   0.645523 0.929921 0.723443 -0.615563
H39   H     H_    0.602666 0.011766 0.680331 0.241837
H40   H     H_    0.615682 0.801233 0.739789 0.152333
H41   H     H_    0.660825 0.002955 0.787248 0.227925
O26   O     O_3   0.228246 0.189561 0.305262 -0.579908
C59   C     C_3   0.291122 0.062148 0.319627 0.062982
H42   H     H_    0.269916 0.917936 0.319410 0.167636
H43   H     H_    0.324913 0.089398 0.384556 0.145088
C60   C     C_3   0.348049 0.084168 0.246216 -0.655268
H44   H     H_    0.367032 0.228273 0.240379 0.183665
H45   H     H_    0.402283 0.000945 0.261596 0.227476
H46   H     H_    0.318885 0.040752 0.180964 0.214802
O27   O     O_3   0.725765 0.535761 0.807794 -0.564717
C61   C     C_3   0.780148 0.392517 0.825376 0.088956
H47   H     H_    0.753099 0.262160 0.801147 0.182659
H48   H     H_    0.797389 0.380703 0.898215 0.101026
C62   C     C_3   0.854477 0.429916 0.776561 -0.615558
H49   H     H_    0.897334 0.511760 0.819674 0.241835
H50   H     H_    0.884318 0.301227 0.760216 0.152332
H51   H     H_    0.839176 0.502950 0.712755 0.227929
O28   O     O_3   0.271755 0.689562 0.194741 -0.579909
C63   C     C_3   0.208879 0.562144 0.180382 0.062988
H52   H     H_    0.230086 0.417932 0.180603 0.167649
H53   H     H_    0.175086 0.589385 0.115453 0.145085
C64   C     C_3   0.151954 0.584175 0.253795 -0.655259
H54   H     H_    0.132969 0.728281 0.259624 0.183669
H55   H     H_    0.097720 0.500944 0.238422 0.227474
H56   H     H_    0.181121 0.540775 0.319049 0.214786

loop_
_geom_bond_atom_site_label_1
_geom_bond_atom_site_label_2
_ccdc_geom_bond_type
O17   V3    S    
C17   O21   S    
C14   H2    S    
O1    C5    A    
C50   H19   S    
C16   C36   A    
C31   C35   A    
C47   H13   S    
O19   V1    S    
O13   V1    S    
C45   H5    S    
O23   C53   S    
O3    C7    A    
C11   C12   S    
O15   V3    S    
C10   C42   T    
C23   O28   S    
C55   H32   S    
C9    C41   T    
C33   C38   A    
C2    C43   S    
O7    C3    A    
C35   C40   A    
C52   H24   S    
C24   O27   S    
C36   C39   A    
O9    V1    S    
C28   C48   S    
C14   C18   A    
C13   H1    S    
C64   H55   S    
C18   C22   A    
O4    C8    A    
C48   H16   S    
C64   H54   S    
C53   H27   S    
O1    V3    S    
O2    V4    S    
C19   O23   S    
O3    V1    S    
C5    C40   S    
C54   H30   S    
C6    C39   S    
C14   C34   A    
C29   C37   A    
C1    O15   A    
C7    C38   S    
C23   C27   A    
C2    O16   A    
C31   C39   A    
O2    C6    A    
C60   H46   S    
C32   C40   A    
C22   O25   S    
O14   V2    S    
C11   C43   T    
C27   C47   S    
C16   C20   A    
O5    V1    S    
C3    C42   S    
C46   H8    S    
C34   C37   A    
O11   C7    A    
C50   H20   S    
C56   H36   S    
C45   H6    S    
O10   V2    S    
C47   H12   S    
O22   C51   S    
C63   H53   S    
C57   H37   S    
C48   H15   S    
O7    V3    S    
O8    V4    S    
O24   C55   S    
C64   H56   S    
C29   C33   A    
O18   V4    S    
C15   C19   A    
C30   C38   A    
C48   H14   S    
C47   H11   S    
C32   C36   A    
C62   H50   S    
C59   H43   S    
O5    C1    A    
C58   H41   S    
C63   C64   S    
C4    C41   S    
C49   H18   S    
C21   C25   A    
O8    C4    A    
C15   C35   A    
C30   C34   A    
C9    C10   S    
C46   H9    S    
O9    C5    A    
C26   C30   A    
O25   C57   S    
C61   H48   S    
C8    C37   S    
O6    V2    S    
C20   O24   S    
C50   H21   S    
C51   H23   S    
C62   H49   S    
C58   H39   S    
C45   H7    S    
C25   C45   S    
C54   H31   S    
C59   C60   S    
C57   H38   S    
C26   C46   S    
O28   C63   S    
C18   O22   S    
C49   C50   S    
C60   H45   S    
C63   H52   S    
O16   V4    S    
C46   H10   S    
C3    O13   A    
C15   H3    S    
C16   H4    S    
C61   C62   S    
O6    C2    A    
C55   H33   S    
C12   C44   T    
O11   V3    S    
C62   H51   S    
O12   V4    S    
C51   C52   S    
O27   C61   S    
C22   C26   A    
C52   H25   S    
O10   C6    A    
C57   C58   S    
C56   H35   S    
C59   H42   S    
O26   C59   S    
C1    C44   S    
C54   H29   S    
C49   H17   S    
C60   H44   S    
C53   H28   S    
C25   C29   A    
C21   O26   S    
O20   V2    S    
C27   C31   A    
C13   C17   A    
O4    V2    S    
C55   C56   S    
C61   H47   S    
C28   C32   A    
C24   C28   A    
O12   C8    A    
C51   H22   S    
C4    O14   A    
C58   H40   S    
C17   C21   A    
C52   H26   S    
O21   C49   S    
C56   H34   S    
C19   C23   A    
C13   C33   A    
C20   C24   A    
C53   C54   S    
