data_mof_unit_59473.cif
_audit_creation_date              2012-12-10T17:23:43-0500
_audit_creation_method            fapswitch 2.2
_symmetry_space_group_name_H-M    P1
_symmetry_Int_Tables_number       1
_space_group_crystal_system       triclinic
_cell_length_a                    9.635558
_cell_length_b                    10.754168
_cell_length_c                    17.361647
_cell_angle_alpha                 92.792925
_cell_angle_beta                  86.441139
_cell_angle_gamma                 89.087565
_cell_volume                      1793.12942444

loop_
_atom_site_label
_atom_site_type_symbol
_atom_type_description
_atom_site_fract_x
_atom_site_fract_y
_atom_site_fract_z
_atom_type_partial_charge
C1    C     C_R   0.498846 0.737307 0.502974 0.789056
C2    C     C_R   0.344332 0.496305 0.775427 -0.189082
C3    C     C_R   0.409448 0.526439 0.147769 -0.152012
C4    C     C_R   0.403148 0.520325 0.227480 -0.217474
C5    C     C_R   0.655038 0.510819 0.224592 -0.197268
C6    C     C_R   0.661385 0.516476 0.144583 -0.176649
C7    C     C_R   0.538710 0.521442 0.105644 0.196639
C8    C     C_2   0.449761 0.473896 0.978352 -0.233437
C9    C     C_2   0.548614 0.522341 0.021143 -0.231921
C10   C     C_R   0.525729 0.510183 0.266421 -0.027622
C11   C     C_R   0.629822 0.878051 0.626441 -0.182597
C12   C     C_R   0.482259 0.498438 0.649569 0.763830
C13   C     C_R   0.695613 0.946472 0.683408 -0.140465
C14   C     C_R   0.697827 0.075699 0.682742 -0.131323
C15   C     C_R   0.634331 0.137297 0.625085 -0.181616
C16   C     C_R   0.568942 0.069750 0.565919 0.093191
C17   C     C_R   0.566667 0.938385 0.566594 0.099428
C18   C     C_R   0.496985 0.871608 0.508732 -0.100115
C19   C     C_R   0.426098 0.933434 0.453889 -0.193156
C20   C     C_R   0.428221 0.061524 0.453265 -0.205788
C21   C     C_R   0.501172 0.129567 0.507498 -0.094553
C22   C     C_R   0.879788 0.367063 0.375752 0.220768
C23   C     C_R   0.500517 0.263092 0.502644 0.771587
C24   C     C_R   0.963211 0.356116 0.306593 -0.223570
C25   C     C_R   0.105097 0.342606 0.311518 -0.270621
C26   C     C_R   0.161399 0.366929 0.382071 -0.134627
C27   C     C_R   0.083304 0.433614 0.442154 0.182658
C28   C     C_R   0.934378 0.433299 0.440989 0.177189
C29   C     C_R   0.918791 0.563244 0.555464 -0.067354
C30   C     C_R   0.066388 0.563454 0.555310 -0.058832
C31   C     C_R   0.517676 0.502464 0.350436 0.771424
C32   C     C_R   0.473819 0.490890 0.733516 -0.022043
C33   C     C_R   0.595832 0.474825 0.772243 -0.222841
C34   C     C_R   0.588847 0.466833 0.851857 -0.151351
C35   C     C_R   0.459708 0.476168 0.893975 0.196498
C36   C     C_R   0.337471 0.488347 0.855296 -0.173162
Cu1   Cu    Cu3+1 0.359340 0.500010 0.500010 0.937378
Cu2   Cu    Cu3+1 0.640660 0.499990 0.499990 0.934039
H1    H     H_    0.696840 0.467686 0.741124 0.149315
H2    H     H_    0.761986 0.514957 0.112944 0.120586
H3    H     H_    0.371837 0.881959 0.410094 0.152332
H4    H     H_    0.626740 0.778216 0.630928 0.138648
H5    H     H_    0.743464 0.899074 0.728858 0.130618
H6    H     H_    0.747383 0.128617 0.727674 0.134049
H7    H     H_    0.635127 0.237837 0.628478 0.153553
H8    H     H_    0.374827 0.107858 0.409221 0.137869
H9    H     H_    0.858026 0.615652 0.600844 0.131043
H10   H     H_    0.919912 0.320742 0.253838 0.152357
H11   H     H_    0.302106 0.524591 0.258481 0.169762
H12   H     H_    0.169440 0.303703 0.262593 0.159371
H13   H     H_    0.264973 0.333084 0.387208 0.192044
H14   H     H_    0.115096 0.616093 0.600601 0.133374
H15   H     H_    0.751054 0.507065 0.253494 0.158991
H16   H     H_    0.641316 0.561372 0.993724 0.143905
H17   H     H_    0.237018 0.494255 0.887105 0.119546
H18   H     H_    0.313077 0.536520 0.119656 0.123555
H19   H     H_    0.248593 0.507386 0.746714 0.147233
H20   H     H_    0.356839 0.434870 0.005458 0.143207
H21   H     H_    0.684419 0.452261 0.880063 0.121157
N1    N     N_R   0.852190 0.498790 0.499250 -0.193629
N2    N     N_R   0.148060 0.498710 0.499220 -0.193434
O1    O     O_R   0.381190 0.680360 0.500010 -0.571237
O2    O     O_R   0.618760 0.680340 0.500000 -0.574800
O3    O     O_R   0.367440 0.500030 0.613600 -0.584494
O4    O     O_R   0.605010 0.500010 0.613590 -0.602593
O5    O     O_R   0.381240 0.319660 0.500000 -0.588449
O6    O     O_R   0.618810 0.319640 0.499990 -0.588621
O7    O     O_R   0.394990 0.499990 0.386410 -0.601584
O8    O     O_R   0.632560 0.499970 0.386400 -0.576958
C37   C     C_3   0.796653 0.250445 0.384980 -0.750861
H22   H     H_    0.836044 0.172202 0.344675 0.194025
H23   H     H_    0.808864 0.213197 0.442711 0.238237
H24   H     H_    0.687716 0.266374 0.370400 0.227676

loop_
_geom_bond_atom_site_label_1
_geom_bond_atom_site_label_2
_ccdc_geom_bond_type
C17   C18   A    
C8    C9    D    
Cu1   N2    S    
C24   C25   A    
C29   N1    A    
C16   C21   A    
C9    H16   S    
C6    H2    S    
C12   O4    A    
C8    C35   S    
C31   O7    A    
C19   C20   A    
Cu2   O4    S    
C13   H5    S    
C4    H11   S    
Cu1   O5    S    
C20   C21   A    
C37   H24   S    
C28   N1    A    
Cu1   O1    S    
C1    C18   S    
Cu2   O8    S    
C5    C10   A    
C36   H17   S    
C22   C28   A    
C13   C14   A    
C12   C32   S    
C2    C32   A    
C11   C13   A    
C26   C27   A    
C29   C30   A    
C29   H9    S    
Cu2   N1    S    
C1    O2    A    
C23   O5    A    
C5    H15   S    
Cu1   Cu2   S    
C22   C37   S    
C33   C34   A    
C6    C7    A    
C3    C7    A    
C21   C23   S    
C5    C6    A    
C12   O3    A    
C22   C24   A    
C2    H19   S    
C16   C17   A    
C15   H7    S    
C4    C10   A    
C15   C16   A    
C24   H10   S    
Cu1   O7    S    
C20   H8    S    
C31   O8    A    
C37   H22   S    
C2    C36   A    
Cu2   O6    S    
C1    O1    A    
C14   H6    S    
C34   C35   A    
C3    H18   S    
C30   N2    A    
C23   O6    A    
C27   C28   A    
C7    C9    S    
C30   H14   S    
C14   C15   A    
C18   C19   A    
C37   H23   S    
C11   H4    S    
C27   N2    A    
C8    H20   S    
C25   C26   A    
C26   H13   S    
C34   H21   S    
C10   C31   S    
C33   H1    S    
C25   H12   S    
C3    C4    A    
C19   H3    S    
C32   C33   A    
Cu1   O3    S    
Cu2   O2    S    
C35   C36   A    
C11   C17   A    
