data_mof_unit_7528.cif
_audit_creation_date              2012-12-11T20:07:20-0500
_audit_creation_method            fapswitch 2.2
_symmetry_space_group_name_H-M    P1
_symmetry_Int_Tables_number       1
_space_group_crystal_system       triclinic
_cell_length_a                    8.248079
_cell_length_b                    16.941357
_cell_length_c                    18.6992
_cell_angle_alpha                 111.501522
_cell_angle_beta                  91.662703
_cell_angle_gamma                 83.041405
_cell_volume                      2412.82717283

loop_
_atom_site_label
_atom_site_type_symbol
_atom_type_description
_atom_site_fract_x
_atom_site_fract_y
_atom_site_fract_z
_atom_type_partial_charge
Ba1   Ba    Ba6+2 0.333520 0.539550 0.472180 1.666040
Ba2   Ba    Ba6+2 0.856270 0.460520 0.527840 1.685835
C1    C     C_3   0.070006 0.829167 0.321936 -0.337996
C2    C     C_R   0.445927 0.411498 0.074681 -0.110461
C3    C     C_R   0.291055 0.446890 0.946068 -0.106417
C4    C     C_3   0.492737 0.684855 0.289939 0.313596
C5    C     C_R   0.446379 0.470740 0.972267 0.024592
C6    C     C_R   0.235076 0.446306 0.875346 -0.103200
C7    C     C_R   0.330174 0.470902 0.827994 -0.038497
C8    C     C_R   0.475408 0.506929 0.857430 -0.001246
C9    C     C_R   0.534332 0.506535 0.929993 0.025999
C10   C     C_R   0.282455 0.461752 0.752652 -0.023809
C11   C     C_R   0.374248 0.492599 0.708786 -0.293882
C12   C     C_3   0.063444 0.748648 0.339464 0.389334
C13   C     C_R   0.509538 0.536131 0.739104 0.040359
C14   C     C_R   0.561035 0.543472 0.814684 -0.051039
C15   C     C_R   0.665651 0.490566 0.066979 0.024831
C16   C     C_3   0.440324 0.689459 0.211830 -0.391037
C17   C     C_R   0.730892 0.482070 0.136063 -0.002883
C18   C     C_R   0.645770 0.442669 0.176770 -0.099300
C19   C     C_R   0.516228 0.398008 0.138464 0.009098
C20   C     C_R   0.692697 0.587545 0.850038 -0.022795
C21   C     C_R   0.754344 0.584109 0.919252 -0.092059
C22   C     C_R   0.682365 0.539878 0.958686 0.010831
C23   C     C_3   0.046512 0.311626 0.279067 0.259533
C24   C     C_R   0.750871 0.529741 0.026395 0.023191
C25   C     C_R   0.905999 0.553610 0.053021 -0.086284
C26   C     C_R   0.881409 0.512699 0.163907 0.003888
C27   C     C_R   0.969754 0.544738 0.119676 -0.020774
C28   C     C_3   0.583740 0.741543 0.673564 0.280561
C29   C     C_R   0.937414 0.513006 0.236205 0.068584
C30   C     C_R   0.846872 0.479020 0.277949 -0.227812
C31   C     C_R   0.698240 0.447030 0.251930 -0.000809
C32   C     C_2   0.394494 0.251141 0.501182 -0.213828
C33   C     C_R   0.783889 0.752406 0.515854 -0.267123
C34   C     C_3   0.995818 0.277481 0.193489 -0.229655
C35   C     C_2   0.330959 0.135220 0.383296 -0.093869
C36   C     C_2   0.283979 0.213928 0.434609 0.084294
C37   C     C_2   0.517953 0.199678 0.517961 -0.020591
C38   C     C_3   0.519833 0.106361 0.475726 0.016463
C39   C     C_3   0.495198 0.090547 0.390981 0.012397
C40   C     C_3   0.479561 0.827569 0.714664 -0.203543
C41   C     C_2   0.630045 0.040266 0.498129 -0.068649
C42   C     C_2   0.597586 0.957371 0.475275 0.017281
C43   C     C_R   0.855628 0.914318 0.535454 -0.032169
C44   C     C_R   0.707125 0.890604 0.498717 -0.043259
C45   C     C_3   0.676959 0.305875 0.708743 0.374251
C46   C     C_R   0.964373 0.860327 0.561559 -0.120790
C47   C     C_R   0.930823 0.778080 0.552158 0.050661
C48   C     C_R   0.672216 0.805726 0.487917 0.019040
C49   C     C_3   0.631159 0.255196 0.328184 0.161860
C50   C     C_3   0.721662 0.170213 0.271541 -0.192616
C51   C     C_3   0.120050 0.686219 0.724631 0.278753
C52   C     C_3   0.087272 0.728439 0.811484 -0.214033
C53   C     C_3   0.494816 0.895168 0.679597 -0.266081
C54   C     C_3   0.645802 0.941333 0.707393 -0.399668
C55   C     C_2   0.615317 0.127121 0.204893 0.978630
C56   C     C_3   0.708822 0.292963 0.784555 -0.312978
C57   C     C_2   0.794903 0.105601 0.305253 0.811010
C58   C     C_3   0.148650 0.670394 0.854903 -0.289387
C59   C     C_3   0.124339 0.716448 0.941529 -0.391433
C60   C     C_2   0.072654 0.189018 0.144428 0.981740
C61   C     C_2   0.140754 0.171535 0.629877 0.918806
C62   C     C_2   0.488696 0.317693 0.145166 0.908726
C63   C     C_2   0.672918 0.674358 0.294610 0.735731
C64   C     C_3   0.459023 0.933680 0.418717 -0.175427
C65   C     C_3   0.527981 0.895821 0.336247 -0.337546
C66   C     C_3   0.207651 0.250885 0.682874 0.353353
C67   C     C_3   0.307810 0.228964 0.744559 -0.429155
C68   C     C_R   0.514870 0.460178 0.039309 -0.002331
H1    H     H_    0.155709 0.744331 0.381856 0.106024
H2    H     H_    0.148648 0.787587 0.833896 0.131058
H3    H     H_    0.953476 0.746964 0.822012 0.126046
H4    H     H_    0.943339 0.758858 0.367007 -0.017383
H5    H     H_    0.965719 0.836951 0.285224 0.138062
H6    H     H_    0.932875 0.338944 0.314153 -0.045684
H7    H     H_    0.123915 0.363763 0.288756 0.073447
H8    H     H_    0.861864 0.277319 0.190616 0.055337
H9    H     H_    0.021625 0.323587 0.166820 0.065390
H10   H     H_    0.184306 0.825916 0.291284 0.131941
H11   H     H_    0.486138 0.629208 0.164983 0.089062
H12   H     H_    0.511825 0.853452 0.776496 0.135094
H13   H     H_    0.723272 0.366026 0.712436 0.086328
H14   H     H_    0.543550 0.311325 0.699092 -0.092634
H15   H     H_    0.839796 0.295693 0.799280 0.160711
H16   H     H_    0.634965 0.343272 0.831361 0.055713
H17   H     H_    0.675437 0.229852 0.780248 0.127415
H18   H     H_    0.290530 0.271490 0.648944 -0.085168
H19   H     H_    0.409479 0.177894 0.717506 0.074021
H20   H     H_    0.229937 0.207009 0.779399 0.160555
H21   H     H_    0.450443 0.627883 0.294238 0.100193
H22   H     H_    0.360325 0.285975 0.783800 0.109153
H23   H     H_    0.349713 0.815899 0.712796 0.120305
H24   H     H_    0.334833 0.486202 0.651431 0.073163
H25   H     H_    0.116726 0.425110 0.858258 0.111502
H26   H     H_    0.752867 0.623878 0.824224 0.105321
H27   H     H_    0.090558 0.563017 0.135640 0.099357
H28   H     H_    0.886281 0.484832 0.335205 0.070880
H29   H     H_    0.208913 0.428423 0.979359 0.076208
H30   H     H_    0.348364 0.374144 0.047935 0.081513
H31   H     H_    0.858008 0.618017 0.941186 0.066689
H32   H     H_    0.983737 0.577793 0.022501 0.062208
H33   H     H_    0.264024 0.108897 0.330708 0.153062
H34   H     H_    0.528839 0.241294 0.356535 -0.009710
H35   H     H_    0.073841 0.883930 0.590582 0.105076
H36   H     H_    0.388816 0.320095 0.527916 0.052961
H37   H     H_    0.755312 0.689792 0.510157 0.088221
H38   H     H_    0.731438 0.061522 0.535621 0.093231
H39   H     H_    0.306681 0.697839 0.206780 0.157443
H40   H     H_    0.489365 0.742755 0.201885 0.135176
H41   H     H_    0.709089 0.752116 0.662638 0.001731
H42   H     H_    0.527904 0.707068 0.617918 0.064164
H43   H     H_    0.637647 0.976507 0.770548 0.154017
H44   H     H_    0.758604 0.895436 0.693463 0.133589
H45   H     H_    0.708799 0.291112 0.373266 0.099394
H46   H     H_    0.653303 0.988123 0.679113 0.137763
H47   H     H_    0.497001 0.865665 0.616349 0.134788
H48   H     H_    0.385250 0.943555 0.696604 0.140639
H49   H     H_    0.401510 0.080900 0.169395 0.321329
H50   H     H_    0.836007 0.982053 0.294550 0.303654
H51   H     H_    0.198903 0.770631 0.962719 0.148259
H52   H     H_    0.993783 0.741235 0.955969 0.140282
H53   H     H_    0.163700 0.671256 0.971004 0.129683
H54   H     H_    0.082072 0.613227 0.835688 0.134579
H55   H     H_    0.280761 0.650787 0.842923 0.121659
H56   H     H_    0.826163 0.188207 0.248814 0.077651
H57   H     H_    0.114478 0.063554 0.127580 0.311271
H58   H     H_    0.005572 0.076175 0.618493 0.304320
H59   H     H_    0.346075 0.253974 0.182558 0.334973
H60   H     H_    0.840239 0.659155 0.371550 0.273819
H61   H     H_    0.622380 0.841769 0.329735 0.155255
H62   H     H_    0.428462 0.877320 0.294735 0.135645
H63   H     H_    0.591826 0.940731 0.321118 0.155515
H64   H     H_    0.374477 0.898203 0.434148 0.150411
H65   H     H_    0.363435 0.986851 0.423407 0.117362
H66   H     H_    0.253110 0.667467 0.712906 -0.018370
H67   H     H_    0.053389 0.629225 0.700781 0.060120
H68   H     H_    0.061832 0.885895 0.376323 0.073845
O1    O     O_2   0.402610 0.439360 0.314250 -0.424202
O2    O     O_2   0.855698 0.199246 0.508234 -0.392096
O3    O     O_3   0.758568 0.235994 0.649770 -0.571240
O4    O     O_3   0.648560 0.446300 0.404730 -0.494972
O5    O     O_3   0.025080 0.609480 0.556050 -0.493319
O6    O     O_2   0.948320 0.280590 0.426090 -0.442996
O7    O     O_3   0.132935 0.248100 0.301391 -0.600101
O8    O     O_2   0.943850 0.469244 0.749565 -0.503516
O9    O     O_3   0.075921 0.313512 0.718440 -0.602001
O10   O     O_3   0.108870 0.604000 0.387500 -0.507660
O11   O     O_2   0.265606 0.532673 0.250320 -0.512876
O12   O     O_3   0.063997 0.748090 0.693909 -0.648318
O13   O     O_3   0.567021 0.303088 0.284597 -0.623491
O14   O     O_3   0.082515 0.675969 0.270559 -0.588005
O15   O     O_2   0.241370 0.719440 0.573960 -0.476154
O16   O     O_3   0.507090 0.652150 0.432150 -0.433827
O17   O     O_2   0.330892 0.799097 0.496031 -0.520888
O18   O     O_2   0.669402 0.102104 0.139116 -0.535802
O19   O     O_R   0.458283 0.112403 0.218589 -0.765072
O20   O     O_2   0.890132 0.125741 0.357989 -0.570464
O21   O     O_R   0.768712 0.019816 0.270589 -0.752627
O22   O     O_2   0.138269 0.177729 0.083050 -0.589809
O23   O     O_3   0.423922 0.757954 0.351164 -0.656793
O24   O     O_R   0.063538 0.119565 0.166955 -0.723800
O25   O     O_2   0.174305 0.143753 0.561215 -0.642018
O26   O     O_R   0.042174 0.128858 0.659611 -0.734837
O27   O     O_2   0.593993 0.256560 0.121925 -0.587740
O28   O     O_R   0.341113 0.309899 0.174197 -0.746758
O29   O     O_2   0.759960 0.697206 0.255951 -0.627312
O30   O     O_R   0.736734 0.639605 0.347297 -0.798433
O31   O     O_2   0.787080 0.560670 0.685800 -0.465826
O32   O     O_3   0.541120 0.553770 0.595290 -0.499561
O33   O     O_3   0.080800 0.396070 0.612520 -0.461202
O34   O     O_3   0.593623 0.697606 0.724307 -0.651548
O35   O     O_3   0.164600 0.390590 0.443970 -0.498771
O36   O     O_3   0.682580 0.347920 0.567870 -0.500672
P1    P     P_3+3 0.582960 0.413890 0.320860 1.011425
P2    P     P_3+3 0.071690 0.707860 0.593450 0.969979
P3    P     P_3+3 0.482878 0.757839 0.443238 0.930704
P4    P     P_3+3 0.606720 0.586180 0.679160 0.963603
P5    P     P_3+3 0.705100 0.243322 0.561145 0.991578
P6    P     P_3+3 0.099646 0.579378 0.287592 0.961747
P7    P     P_3+3 0.131231 0.282225 0.402327 1.030794
P8    P     P_3+3 0.098516 0.411141 0.709132 0.945406

loop_
_geom_bond_atom_site_label_1
_geom_bond_atom_site_label_2
_ccdc_geom_bond_type
O12   P2    S    
C53   C54   S    
Ba1   P2    S    
C38   C39   S    
C25   C27   A    
C40   H23   S    
Ba2   O6    S    
C12   H1    S    
Ba1   O32   S    
O33   P8    S    
O1    P1    D    
C65   H62   S    
C40   H12   S    
C16   H39   S    
C56   H17   S    
O2    P5    D    
C5    C68   A    
C2    C68   A    
C52   C58   S    
C51   C52   S    
C61   O25   D    
C6    H25   S    
O15   P2    D    
Ba1   O35   S    
C24   C25   A    
C62   O27   D    
C36   P7    S    
H59   O28   S    
O32   P4    S    
C51   H67   S    
C15   C24   A    
C12   H4    S    
C26   C27   A    
C65   H63   S    
C22   C24   A    
Ba2   O35   S    
C57   O20   D    
C34   C60   S    
C28   H41   S    
C13   C14   A    
O7    P7    S    
C9    C22   A    
H58   O26   S    
C16   H11   S    
C59   H51   S    
Ba1   Ba2   S    
C58   H54   S    
C19   C62   S    
C62   O28   S    
Ba1   O4    S    
C64   H64   S    
C57   O21   S    
C4    C63   S    
C10   P8    S    
C3    H29   S    
C6    C7    A    
C33   C47   A    
H50   O21   S    
C54   H43   S    
C45   H13   S    
C67   H22   S    
C1    H5    S    
C7    C8    A    
Ba1   O1    S    
Ba2   O33   S    
C60   O24   S    
C64   C65   S    
C49   O13   S    
C15   C68   A    
O10   P6    S    
O3    P5    S    
Ba2   O5    S    
C51   H66   S    
O5    P2    S    
C28   C40   S    
C67   H19   S    
C1    H10   S    
C56   H16   S    
C42   C44   S    
C44   C48   A    
C38   C41   S    
C61   O26   S    
C4    C16   S    
C55   O18   D    
O13   P1    S    
O8    P8    D    
C49   C50   S    
C32   H36   S    
C48   P3    S    
C8    C9    A    
C37   C38   S    
C3    C5    A    
C50   H56   S    
C66   C67   S    
C23   C34   S    
C49   H34   S    
C43   C44   A    
O11   P6    D    
C49   H45   S    
C32   C37   D    
C28   H42   S    
C59   H52   S    
O14   P6    S    
C5    C9    A    
C41   C42   D    
C26   C29   A    
C35   C36   D    
Ba1   O5    S    
C50   C57   S    
C40   C53   S    
C52   H3    S    
C46   H35   S    
C63   O30   S    
C4    O23   S    
H49   O19   S    
C33   C48   A    
C54   H46   S    
C11   H24   S    
C1    H68   S    
C45   H14   S    
C10   C11   A    
Ba1   O15   S    
C17   C26   A    
C66   O9    S    
C28   O34   S    
C42   C64   S    
C1    C12   S    
Ba2   O32   S    
C18   C31   A    
O9    P8    S    
C46   C47   A    
H57   O24   S    
C11   C13   A    
C51   O12   S    
Ba2   O4    S    
C23   H7    S    
O16   P3    S    
C4    H21   S    
O23   P3    S    
C67   H20   S    
C56   H15   S    
O31   P4    D    
C35   H33   S    
C53   H47   S    
C43   C46   A    
O34   P4    S    
C63   O29   D    
O6    P7    D    
C58   H55   S    
C14   C20   A    
C21   C22   A    
C61   C66   S    
C32   C36   S    
C20   H26   S    
C29   C30   A    
C65   H61   S    
C16   H40   S    
C34   H9    S    
C3    C6    A    
C37   P5    S    
O4    P1    S    
C45   O3    S    
C25   H32   S    
C55   O19   S    
C34   H8    S    
C27   H27   S    
C29   P6    S    
C59   H53   S    
C23   H6    S    
C30   C31   A    
C17   C18   A    
C2    H30   S    
C8    C14   A    
Ba2   O36   S    
C45   C56   S    
C2    C19   A    
C21   H31   S    
C66   H18   S    
C15   C17   A    
C30   H28   S    
C60   O22   D    
C41   H38   S    
C35   C39   S    
Ba1   O16   S    
C31   P1    S    
C7    C10   A    
C33   H37   S    
C50   C55   S    
Ba2   O31   S    
O35   P7    S    
C64   H65   S    
H60   O30   S    
C52   H2    S    
C18   C19   A    
C13   P4    S    
C12   O14   S    
C54   H44   S    
C20   C21   A    
C58   C59   S    
Ba1   O10   S    
C23   O7    S    
Ba2   P4    S    
O36   P5    S    
C53   H48   S    
C47   P2    S    
O17   P3    D    
Ba1   P1    S    
