data_mof_unit_26004.cif
_audit_creation_date              2012-12-11T17:07:30-0500
_audit_creation_method            fapswitch 2.2
_symmetry_space_group_name_H-M    P1
_symmetry_Int_Tables_number       1
_space_group_crystal_system       triclinic
_cell_length_a                    17.141922
_cell_length_b                    17.142019
_cell_length_c                    17.311237
_cell_angle_alpha                 90.0
_cell_angle_beta                  89.999784
_cell_angle_gamma                 90.000742
_cell_volume                      5086.85770033

loop_
_atom_site_label
_atom_site_type_symbol
_atom_type_description
_atom_site_fract_x
_atom_site_fract_y
_atom_site_fract_z
_atom_type_partial_charge
C1    C     C_R   0.394453 0.301459 0.900399 -0.161166
C2    C     C_R   0.669338 0.423626 0.855869 -0.096487
C3    C     C_R   0.605543 0.698541 0.900397 -0.161186
C4    C     C_R   0.330663 0.576374 0.855868 -0.096478
C5    C     C_R   0.423629 0.669336 0.144131 -0.096474
C6    C     C_R   0.698541 0.605541 0.099604 -0.161211
C7    C     C_R   0.576370 0.330664 0.144131 -0.096453
C8    C     C_R   0.301458 0.394455 0.099601 -0.161163
C9    C     C_R   0.923627 0.830665 0.355868 -0.096467
C10   C     C_R   0.198540 0.894462 0.400394 -0.161220
C11   C     C_R   0.076376 0.169334 0.355866 -0.096403
C12   C     C_R   0.801460 0.105536 0.400392 -0.161220
C13   C     C_R   0.894460 0.198540 0.599604 -0.161190
C14   C     C_R   0.169337 0.076378 0.644134 -0.096482
C15   C     C_R   0.105541 0.801460 0.599605 -0.161189
C16   C     C_R   0.830663 0.923625 0.644133 -0.096490
C17   C     C_3   0.865469 0.344839 0.697910 -0.409092
C18   C     C_3   0.681350 0.887041 0.740540 -0.395897
C19   C     C_3   0.134547 0.655125 0.697864 -0.409073
C20   C     C_3   0.318628 0.112893 0.740618 -0.395898
C21   C     C_3   0.886960 0.681331 0.259552 -0.395918
C22   C     C_3   0.655239 0.134497 0.301983 -0.409009
C23   C     C_3   0.112938 0.318637 0.259431 -0.395921
C24   C     C_3   0.344777 0.865491 0.302009 -0.409021
C25   C     C_3   0.386910 0.818686 0.240387 -0.395939
C26   C     C_3   0.155082 0.365427 0.197802 -0.409112
C27   C     C_3   0.613104 0.181305 0.240364 -0.395944
C28   C     C_3   0.844822 0.634530 0.197928 -0.409115
C29   C     C_3   0.365413 0.155045 0.802247 -0.409134
C30   C     C_3   0.181342 0.612985 0.759492 -0.395916
C31   C     C_3   0.634558 0.844897 0.802168 -0.409146
C32   C     C_3   0.818670 0.386976 0.759536 -0.395914
C33   C     C_R   0.419463 0.672002 0.856592 -0.068001
C34   C     C_R   0.302138 0.391753 0.898324 -0.122105
C35   C     C_R   0.580538 0.327998 0.856593 -0.067969
C36   C     C_R   0.697860 0.608250 0.898322 -0.122072
C37   C     C_R   0.391751 0.302139 0.101675 -0.122063
C38   C     C_R   0.328000 0.580536 0.143410 -0.068019
C39   C     C_R   0.608251 0.697859 0.101679 -0.122030
C40   C     C_R   0.671999 0.419463 0.143410 -0.068032
C41   C     C_R   0.891749 0.197858 0.398318 -0.122068
C42   C     C_R   0.828000 0.919463 0.356591 -0.068072
C43   C     C_R   0.108250 0.802141 0.398319 -0.122039
C44   C     C_R   0.172005 0.080539 0.356595 -0.068128
C45   C     C_R   0.919461 0.827998 0.643407 -0.068021
C46   C     C_R   0.802140 0.108250 0.601679 -0.122073
C47   C     C_R   0.080539 0.172005 0.643405 -0.068078
C48   C     C_R   0.197860 0.891752 0.601679 -0.122099
C49   C     C_R   0.317117 0.313589 0.884116 0.082976
C50   C     C_R   0.640176 0.361972 0.813528 0.032730
C51   C     C_R   0.682878 0.686412 0.884112 0.082975
C52   C     C_R   0.359826 0.638028 0.813527 0.032750
C53   C     C_R   0.361976 0.640173 0.186473 0.032715
C54   C     C_R   0.686412 0.682873 0.115891 0.082968
C55   C     C_R   0.638022 0.359826 0.186472 0.032692
C56   C     C_R   0.313588 0.317120 0.115884 0.082987
C57   C     C_R   0.861975 0.859827 0.313526 0.032750
C58   C     C_R   0.186411 0.817130 0.384105 0.082945
C59   C     C_R   0.138032 0.140173 0.313527 0.032748
C60   C     C_R   0.813589 0.182866 0.384102 0.082946
C61   C     C_R   0.817127 0.186411 0.615891 0.082958
C62   C     C_R   0.140175 0.138033 0.686473 0.032833
C63   C     C_R   0.182875 0.813590 0.615891 0.082966
C64   C     C_R   0.859825 0.861972 0.686474 0.032785
C65   C     C_R   0.746620 0.360732 0.716818 0.113782
C66   C     C_R   0.710997 0.820237 0.837638 0.117730
C67   C     C_R   0.253396 0.639259 0.716797 0.113797
C68   C     C_R   0.288971 0.179753 0.837677 0.117703
C69   C     C_R   0.820220 0.710965 0.162409 0.117770
C70   C     C_R   0.639285 0.253348 0.283134 0.113745
C71   C     C_R   0.179759 0.288987 0.162345 0.117778
C72   C     C_R   0.360719 0.746641 0.283147 0.113767
C73   C     C_R   0.320209 0.789058 0.337559 0.117757
C74   C     C_R   0.139248 0.246580 0.216767 0.113781
C75   C     C_R   0.679794 0.210929 0.337545 0.117770
C76   C     C_R   0.860731 0.753380 0.216823 0.113775
C77   C     C_R   0.246566 0.139240 0.783254 0.113827
C78   C     C_R   0.210985 0.679770 0.662379 0.117709
C79   C     C_R   0.753406 0.860748 0.783218 0.113806
C80   C     C_R   0.789032 0.320223 0.662400 0.117749
C81   C     C_R   0.672965 0.334809 0.740823 0.054157
C82   C     C_R   0.738172 0.747472 0.863135 0.032617
C83   C     C_R   0.327043 0.665191 0.740818 0.054136
C84   C     C_R   0.261812 0.252534 0.863146 0.032598
C85   C     C_R   0.747475 0.738159 0.136878 0.032608
C86   C     C_R   0.665186 0.327023 0.259169 0.054128
C87   C     C_R   0.252530 0.261820 0.136859 0.032591
C88   C     C_R   0.334812 0.672971 0.259172 0.054144
C89   C     C_R   0.247475 0.761853 0.363111 0.032640
C90   C     C_R   0.165195 0.172947 0.240812 0.054068
C91   C     C_R   0.752522 0.238140 0.363105 0.032626
C92   C     C_R   0.834812 0.827038 0.240821 0.054108
C93   C     C_R   0.172941 0.165195 0.759192 0.054108
C94   C     C_R   0.238166 0.752529 0.636873 0.032627
C95   C     C_R   0.827047 0.834810 0.759186 0.054134
C96   C     C_R   0.761842 0.247474 0.636877 0.032636
C97   C     C_R   0.230087 0.682182 0.352957 -0.152693
C98   C     C_R   0.225730 0.137452 0.198718 -0.138680
C99   C     C_R   0.769904 0.317812 0.352959 -0.152686
C100  C     C_R   0.774305 0.862541 0.198695 -0.138659
C101  C     C_R   0.137449 0.225739 0.801276 -0.138734
C102  C     C_R   0.317827 0.769942 0.647061 -0.152695
C103  C     C_R   0.862545 0.774285 0.801290 -0.138745
C104  C     C_R   0.682177 0.230070 0.647054 -0.152711
C105  C     C_R   0.637462 0.274298 0.698701 -0.138775
C106  C     C_R   0.817830 0.730055 0.852938 -0.152679
C107  C     C_R   0.362542 0.725711 0.698707 -0.138754
C108  C     C_R   0.182160 0.269968 0.852926 -0.152648
C109  C     C_R   0.730075 0.817824 0.147049 -0.152650
C110  C     C_R   0.725674 0.362531 0.301316 -0.138697
C111  C     C_R   0.269957 0.182165 0.147066 -0.152650
C112  C     C_R   0.274316 0.637464 0.301312 -0.138730
H1    H     H_    0.422484 0.246206 0.910683 0.118704
H2    H     H_    0.713232 0.465022 0.838730 0.107888
H3    H     H_    0.577512 0.753795 0.910679 0.118680
H4    H     H_    0.286773 0.534976 0.838727 0.107886
H5    H     H_    0.465022 0.713233 0.161267 0.107890
H6    H     H_    0.753795 0.577509 0.089325 0.118676
H7    H     H_    0.534976 0.286766 0.161266 0.107890
H8    H     H_    0.246205 0.422486 0.089320 0.118674
H9    H     H_    0.965023 0.786771 0.338729 0.107883
H10   H     H_    0.253795 0.922495 0.410672 0.118701
H11   H     H_    0.034974 0.213219 0.338721 0.107910
H12   H     H_    0.746205 0.077503 0.410668 0.118689
H13   H     H_    0.922493 0.253795 0.589324 0.118686
H14   H     H_    0.213220 0.034976 0.661278 0.107881
H15   H     H_    0.077509 0.746205 0.589324 0.118702
H16   H     H_    0.786775 0.965024 0.661274 0.107882
H17   H     H_    0.900949 0.295420 0.720542 0.158465
H18   H     H_    0.674127 0.951613 0.740977 0.166802
H19   H     H_    0.099048 0.704528 0.720500 0.158460
H20   H     H_    0.325819 0.048318 0.741089 0.166844
H21   H     H_    0.951528 0.674069 0.259153 0.166784
H22   H     H_    0.704691 0.099059 0.279356 0.158487
H23   H     H_    0.048364 0.325846 0.258984 0.166828
H24   H     H_    0.295332 0.900939 0.279383 0.158476
H25   H     H_    0.451476 0.825971 0.240764 0.166801
H26   H     H_    0.204468 0.400948 0.220442 0.158490
H27   H     H_    0.548539 0.174013 0.240736 0.166781
H28   H     H_    0.795396 0.599058 0.220559 0.158472
H29   H     H_    0.400952 0.204415 0.779600 0.158448
H30   H     H_    0.174107 0.548414 0.759068 0.166812
H31   H     H_    0.599048 0.795502 0.779529 0.158456
H32   H     H_    0.825924 0.451545 0.759129 0.166790
H33   H     H_    0.455599 0.721128 0.840888 0.122611
H34   H     H_    0.245395 0.418902 0.902565 0.111429
H35   H     H_    0.544403 0.278870 0.840888 0.122567
H36   H     H_    0.754605 0.581103 0.902560 0.111401
H37   H     H_    0.418899 0.245395 0.097436 0.111370
H38   H     H_    0.278871 0.544403 0.159116 0.122605
H39   H     H_    0.581106 0.754605 0.097444 0.111373
H40   H     H_    0.721127 0.455595 0.159118 0.122697
H41   H     H_    0.918893 0.254605 0.402548 0.111475
H42   H     H_    0.778873 0.955597 0.340884 0.122760
H43   H     H_    0.081106 0.745394 0.402551 0.111402
H44   H     H_    0.221131 0.044403 0.340892 0.122739
H45   H     H_    0.955597 0.778872 0.659111 0.122635
H46   H     H_    0.745394 0.081104 0.597445 0.111438
H47   H     H_    0.044401 0.221130 0.659107 0.122658
H48   H     H_    0.254605 0.918899 0.597444 0.111477
H49   H     H_    0.177595 0.656822 0.376844 0.138447
H50   H     H_    0.244911 0.078826 0.212033 0.135407
H51   H     H_    0.822391 0.343175 0.376852 0.138478
H52   H     H_    0.755148 0.921181 0.211982 0.135405
H53   H     H_    0.078826 0.244925 0.787952 0.135393
H54   H     H_    0.343178 0.822450 0.623205 0.138482
H55   H     H_    0.921176 0.755113 0.787984 0.135376
H56   H     H_    0.656823 0.177568 0.623186 0.138468
H57   H     H_    0.578824 0.255136 0.711993 0.135352
H58   H     H_    0.843179 0.677542 0.876786 0.138455
H59   H     H_    0.421177 0.744878 0.712005 0.135374
H60   H     H_    0.156818 0.322493 0.876757 0.138465
H61   H     H_    0.677576 0.843179 0.123176 0.138446
H62   H     H_    0.744818 0.421181 0.288049 0.135387
H63   H     H_    0.322476 0.156820 0.123225 0.138442
H64   H     H_    0.255168 0.578817 0.288038 0.135361
N1    N     N_R   0.425360 0.368540 0.922560 -0.044661
N2    N     N_R   0.631460 0.425360 0.922560 -0.042991
N3    N     N_R   0.574640 0.631460 0.922560 -0.044659
N4    N     N_R   0.368540 0.574640 0.922560 -0.042993
N5    N     N_R   0.425360 0.631460 0.077440 -0.042981
N6    N     N_R   0.631460 0.574640 0.077440 -0.044659
N7    N     N_R   0.574640 0.368540 0.077440 -0.042976
N8    N     N_R   0.368540 0.425360 0.077440 -0.044661
N9    N     N_R   0.925360 0.868540 0.422560 -0.042983
N10   N     N_R   0.131460 0.925360 0.422560 -0.044653
N11   N     N_R   0.074640 0.131460 0.422560 -0.042990
N12   N     N_R   0.868540 0.074640 0.422560 -0.044656
N13   N     N_R   0.925360 0.131460 0.577440 -0.044653
N14   N     N_R   0.131460 0.074640 0.577440 -0.043002
N15   N     N_R   0.074640 0.868540 0.577440 -0.044655
N16   N     N_R   0.868540 0.925360 0.577440 -0.042996
N17   N     N_R   0.425340 0.631500 0.922560 -0.046421
N18   N     N_R   0.368500 0.425340 0.922560 -0.046458
N19   N     N_R   0.574660 0.368500 0.922560 -0.046418
N20   N     N_R   0.631500 0.574660 0.922560 -0.046458
N21   N     N_R   0.425340 0.368500 0.077440 -0.046459
N22   N     N_R   0.368500 0.574660 0.077440 -0.046428
N23   N     N_R   0.574660 0.631500 0.077440 -0.046460
N24   N     N_R   0.631500 0.425340 0.077440 -0.046428
N25   N     N_R   0.925340 0.131500 0.422560 -0.046460
N26   N     N_R   0.868500 0.925340 0.422560 -0.046433
N27   N     N_R   0.074660 0.868500 0.422560 -0.046457
N28   N     N_R   0.131500 0.074660 0.422560 -0.046434
N29   N     N_R   0.925340 0.868500 0.577440 -0.046422
N30   N     N_R   0.868500 0.074660 0.577440 -0.046457
N31   N     N_R   0.074660 0.131500 0.577440 -0.046425
N32   N     N_R   0.131500 0.925340 0.577440 -0.046456
Ni1   Ni    Ni4+2 0.500000 0.369720 0.000000 0.244529
Ni2   Ni    Ni4+2 0.630280 0.500000 0.000000 0.244494
Ni3   Ni    Ni4+2 0.500000 0.630280 0.000000 0.244510
Ni4   Ni    Ni4+2 0.369720 0.500000 0.000000 0.244498
Ni5   Ni    Ni4+2 0.000000 0.869720 0.500000 0.244513
Ni6   Ni    Ni4+2 0.130280 0.000000 0.500000 0.244481
Ni7   Ni    Ni4+2 0.000000 0.130280 0.500000 0.244510
Ni8   Ni    Ni4+2 0.869720 0.000000 0.500000 0.244489
C113  C     C_2   0.911100 0.399690 0.646880 1.069928
O1    O     O_2   0.981677 0.391578 0.640762 -0.648212
O2    O     O_R   0.873038 0.459626 0.607026 -0.769589
H65   H     H_    0.910165 0.492107 0.574719 0.354478
C114  C     C_2   0.670207 0.850474 0.661831 1.069298
O3    O     O_2   0.647484 0.890692 0.608035 -0.638934
O4    O     O_R   0.685577 0.771117 0.650611 -0.783136
H66   H     H_    0.676213 0.754004 0.595331 0.332586
C115  C     C_2   0.088947 0.600274 0.646808 1.069959
O5    O     O_2   0.018372 0.608380 0.640658 -0.648206
O6    O     O_R   0.127033 0.540347 0.606964 -0.769631
H67   H     H_    0.089925 0.507864 0.574639 0.354416
C116  C     C_2   0.329829 0.149418 0.661898 1.069258
O7    O     O_2   0.352570 0.109166 0.608133 -0.638950
O8    O     O_R   0.314500 0.228777 0.650633 -0.783143
H68   H     H_    0.323917 0.245863 0.595354 0.332597
C117  C     C_2   0.850343 0.670258 0.338249 1.069347
O9    O     O_2   0.890521 0.647563 0.392086 -0.638890
O10   O     O_R   0.770984 0.685663 0.349412 -0.783134
H69   H     H_    0.753834 0.676355 0.404689 0.332591
C118  C     C_2   0.600388 0.088806 0.352959 1.069783
O11   O     O_2   0.608535 0.018230 0.359037 -0.648301
O12   O     O_R   0.540414 0.126810 0.392811 -0.769567
H70   H     H_    0.507939 0.089647 0.425082 0.354399
C119  C     C_2   0.149493 0.329797 0.338143 1.069303
O13   O     O_2   0.109252 0.352466 0.391945 -0.638984
O14   O     O_R   0.228866 0.314503 0.349361 -0.783151
H71   H     H_    0.245971 0.323875 0.404641 0.332598
C120  C     C_2   0.399629 0.911165 0.352998 1.069816
O15   O     O_2   0.391487 0.981740 0.359095 -0.648332
O16   O     O_R   0.459599 0.873146 0.392841 -0.769550
H72   H     H_    0.492077 0.910297 0.425122 0.354387
C121  C     C_2   0.350266 0.829717 0.161697 1.069352
O17   O     O_2   0.390423 0.852396 0.107838 -0.638916
O18   O     O_R   0.270907 0.814287 0.150566 -0.783136
H73   H     H_    0.253738 0.823564 0.095289 0.332591
C122  C     C_2   0.100231 0.410997 0.146720 1.070021
O19   O     O_2   0.108299 0.481576 0.140576 -0.648167
O20   O     O_R   0.040342 0.372877 0.106850 -0.769623
H74   H     H_    0.007840 0.409969 0.074525 0.354412
C123  C     C_2   0.649752 0.170288 0.161675 1.069366
O21   O     O_2   0.609595 0.147625 0.107809 -0.638882
O22   O     O_R   0.729113 0.185715 0.150550 -0.783130
H75   H     H_    0.746282 0.176450 0.095271 0.332589
C124  C     C_2   0.899674 0.588891 0.146906 1.069951
O23   O     O_2   0.891561 0.518313 0.140799 -0.648157
O24   O     O_R   0.959608 0.626948 0.107045 -0.769603
H76   H     H_    0.992087 0.589820 0.074739 0.354507
C125  C     C_2   0.410953 0.100201 0.853363 1.070089
O25   O     O_2   0.481528 0.108275 0.859553 -0.648115
O26   O     O_R   0.372809 0.040315 0.893214 -0.769641
H77   H     H_    0.409879 0.007828 0.925578 0.354454
C126  C     C_2   0.170221 0.649567 0.838197 1.069300
O27   O     O_2   0.147514 0.609360 0.892008 -0.638915
O28   O     O_R   0.185596 0.728927 0.849397 -0.783132
H78   H     H_    0.176253 0.746051 0.904676 0.332586
C127  C     C_2   0.588971 0.899746 0.853238 1.070027
O29   O     O_2   0.518393 0.891656 0.859384 -0.648094
O30   O     O_R   0.627073 0.959654 0.893096 -0.769624
H79   H     H_    0.589972 0.992139 0.925428 0.354530
C128  C     C_2   0.829759 0.350372 0.838235 1.069327
O31   O     O_2   0.852459 0.390560 0.892062 -0.638946
O32   O     O_R   0.814360 0.271013 0.849411 -0.783132
H80   H     H_    0.823678 0.253875 0.904690 0.332586

loop_
_geom_bond_atom_site_label_1
_geom_bond_atom_site_label_2
_ccdc_geom_bond_type
C31   C66   S    
C120  O16   S    
C67   C83   A    
C57   C92   S    
N28   Ni6   S    
C19   C78   S    
C27   H27   S    
C29   C125  S    
N16   N29   A    
C25   H25   S    
O30   H79   S    
C28   H28   S    
C7    C55   A    
C36   C51   A    
C8    C56   A    
C47   C62   A    
C2    C50   A    
N12   Ni8   S    
C61   C96   S    
C69   C85   A    
O18   H73   S    
C107  H59   S    
C33   C52   A    
C103  H55   S    
C66   C79   A    
C48   H48   S    
C21   C76   S    
N2    Ni2   S    
C121  O17   D    
C114  O3    D    
C105  H57   S    
C20   C77   S    
C22   H22   S    
C111  H63   S    
C49   C84   S    
C5    C53   A    
C86   C110  A    
O12   H70   S    
C4    N4    A    
N19   Ni1   S    
C9    N9    A    
C122  O19   D    
C117  O10   S    
C109  H61   S    
C24   C73   S    
N17   Ni3   S    
C39   C54   A    
C66   C82   A    
C44   C59   A    
O14   H71   S    
C46   H46   S    
C39   H39   S    
N12   N25   A    
N6    Ni2   S    
C7    N7    A    
C41   C60   A    
C40   H40   S    
C69   C76   A    
C46   N30   A    
C123  O21   D    
C23   C26   S    
N1    Ni1   S    
N4    Ni4   S    
C18   C114  S    
C3    N3    A    
N25   Ni7   S    
C15   N15   A    
C16   N16   A    
C43   C58   A    
C72   C88   A    
C37   C56   A    
C1    N1    A    
C36   H36   S    
C21   C117  S    
O4    H66   S    
C83   C107  A    
C18   C79   S    
C63   C94   S    
N27   Ni5   S    
C9    H9    S    
O10   H69   S    
C38   N22   A    
C20   C116  S    
C37   N21   A    
C80   C96   A    
N13   Ni7   S    
C125  O25   D    
N23   Ni3   S    
C30   C67   S    
C35   N19   A    
O22   H75   S    
C20   C29   S    
C22   C118  S    
N20   Ni2   S    
C8    N8    A    
C101  C108  A    
O28   H78   S    
N29   Ni5   S    
C100  C109  A    
C102  H54   S    
C65   C80   A    
C15   H15   S    
C126  O27   D    
C11   N11   A    
C26   C71   S    
C106  H58   S    
C12   N12   A    
C24   C120  S    
C67   C78   A    
C1    H1    S    
C22   C75   S    
C6    C54   A    
C11   C59   A    
N5    N22   A    
C42   C57   A    
C5    N5    A    
C104  C105  A    
C98   H50   S    
C95   C103  A    
N8    Ni4   S    
C35   C50   A    
C41   H41   S    
N3    N20   A    
C110  H62   S    
C19   H19   S    
C47   N31   A    
C115  O6    S    
N11   Ni7   S    
C121  O18   S    
C32   H32   S    
N1    N18   A    
C46   C61   A    
C17   H17   S    
C44   H44   S    
C7    H7    S    
O24   H76   S    
C14   N14   A    
C45   H45   S    
C24   C25   S    
C43   H43   S    
C81   C105  A    
C93   C101  A    
O2    H65   S    
C122  O20   S    
C126  O28   S    
C3    C51   A    
N3    Ni3   S    
C47   H47   S    
C40   N24   A    
C10   H10   S    
C113  O1    D    
C99   C110  A    
N18   Ni4   S    
N11   N28   A    
C17   C80   S    
N24   Ni2   S    
C48   C63   A    
C89   C97   A    
C119  O14   S    
C59   C90   S    
C12   C60   A    
N9    N26   A    
C20   H20   S    
C52   C83   S    
C25   C121  S    
C36   N20   A    
C79   C95   A    
C116  O7    D    
C10   N10   A    
C104  H56   S    
C29   C68   S    
C125  O26   S    
C65   C81   A    
O6    H67   S    
C12   H12   S    
N13   N30   A    
O32   H80   S    
C40   C55   A    
C29   H29   S    
N22   Ni4   S    
C48   N32   A    
C28   C69   S    
N31   Ni7   S    
C127  O29   D    
C13   C61   A    
C102  C107  A    
C100  H52   S    
C25   C72   S    
C35   H35   S    
C90   C98   A    
C123  O22   S    
C101  H53   S    
N14   Ni6   S    
C51   C82   S    
C27   C70   S    
C33   H33   S    
C76   C92   A    
C70   C86   A    
C71   C87   A    
C42   H42   S    
C21   C28   S    
C4    C52   A    
C53   C88   S    
C97   H49   S    
C22   C27   S    
C118  O12   S    
C43   N27   A    
C27   C123  S    
C128  O31   D    
C99   H51   S    
C42   N26   A    
C23   C119  S    
C23   C74   S    
C41   N25   A    
O20   H74   S    
C31   C127  S    
C21   H21   S    
C70   C75   A    
C17   C113  S    
N21   Ni1   S    
C92   C100  A    
C96   C104  A    
C124  O24   S    
C117  O9    D    
C60   C91   S    
N30   Ni8   S    
C68   C77   A    
C97   C112  A    
C8    H8    S    
C39   N23   A    
C54   C85   S    
C34   C49   A    
C45   N29   A    
C98   C111  A    
C16   H16   S    
C10   C58   A    
C30   C126  S    
C68   C84   A    
C4    H4    S    
C11   H11   S    
N6    N23   A    
C26   H26   S    
C64   C95   S    
N32   Ni6   S    
C72   C73   A    
C56   C87   S    
C26   C122  S    
C14   H14   S    
C24   H24   S    
C71   C74   A    
O26   H77   S    
C75   C91   A    
N7    Ni1   S    
C2    N2    A    
N2    N19   A    
C45   C64   A    
C85   C109  A    
N7    N24   A    
C30   H30   S    
C23   H23   S    
N5    Ni3   S    
C91   C99   A    
C74   C90   A    
C55   C86   S    
C128  O32   S    
C13   N13   A    
C19   C115  S    
C37   H37   S    
C73   C89   A    
C114  O4    S    
C3    H3    S    
N15   Ni5   S    
C112  H64   S    
C119  O13   D    
C2    H2    S    
C34   N18   A    
C124  O23   D    
C38   C53   A    
C78   C94   A    
C108  H60   S    
N10   Ni6   S    
C77   C93   A    
C127  O30   S    
N16   Ni8   S    
N9    Ni5   S    
N10   N27   A    
C103  C106  A    
C9    C57   A    
N15   N32   A    
C82   C106  A    
C50   C81   S    
C31   H31   S    
C113  O2    S    
C58   C89   S    
C118  O11   D    
C6    N6    A    
C18   H18   S    
C32   C128  S    
C33   N17   A    
C88   C112  A    
N14   N31   A    
C84   C108  A    
C87   C111  A    
C94   C102  A    
C116  O8    S    
N8    N21   A    
C62   C93   S    
C5    H5    S    
O8    H68   S    
C44   N28   A    
C17   C32   S    
C15   C63   A    
C34   H34   S    
C18   C31   S    
C16   C64   A    
N26   Ni8   S    
C120  O15   D    
C19   C30   S    
C1    C49   A    
C13   H13   S    
C38   H38   S    
N4    N17   A    
C28   C124  S    
O16   H72   S    
C6    H6    S    
C32   C65   S    
C115  O5    D    
C14   C62   A    
