data_mof_unit_41199.cif
_audit_creation_date              2012-12-10T18:43:35-0500
_audit_creation_method            fapswitch 2.2
_symmetry_space_group_name_H-M    P1
_symmetry_Int_Tables_number       1
_space_group_crystal_system       triclinic
_cell_length_a                    19.410402
_cell_length_b                    18.142508
_cell_length_c                    10.912737
_cell_angle_alpha                 89.902132
_cell_angle_beta                  90.01726
_cell_angle_gamma                 90.04897
_cell_volume                      3842.94996687

loop_
_atom_site_label
_atom_site_type_symbol
_atom_type_description
_atom_site_fract_x
_atom_site_fract_y
_atom_site_fract_z
_atom_type_partial_charge
C1    C     C_R   0.367774 0.500084 0.496577 0.803716
C2    C     C_R   0.963769 0.431223 0.480671 -0.149796
C3    C     C_R   0.465188 0.720792 0.589018 0.048857
C4    C     C_R   0.534815 0.721263 0.411233 0.052451
C5    C     C_R   0.465126 0.798121 0.591683 -0.252622
C6    C     C_R   0.535195 0.798637 0.409534 -0.263252
C7    C     C_R   0.500290 0.838397 0.500923 0.139951
C8    C     C_R   0.563547 0.961231 0.488075 0.413267
C9    C     C_R   0.439105 0.961663 0.516502 0.395782
C10   C     C_R   0.562677 0.038722 0.481667 -0.258472
C11   C     C_R   0.440157 0.039253 0.518854 -0.289215
C12   C     C_R   0.632332 0.500188 0.502388 0.803292
C13   C     C_R   0.501487 0.078539 0.499001 -0.026343
C14   C     C_R   0.500906 0.500050 0.265069 0.845823
C15   C     C_R   0.499134 0.499955 0.734920 0.848395
C16   C     C_R   0.501063 0.921333 0.502240 -0.110413
C17   C     C_R   0.468650 0.201703 0.403011 0.000878
C18   C     C_R   0.534024 0.201273 0.594847 -0.009917
C19   C     C_R   0.467691 0.279281 0.408468 0.029770
C20   C     C_R   0.532961 0.279308 0.591128 0.047810
C21   C     C_R   0.501636 0.161416 0.498333 0.076037
C22   C     C_2   0.502354 0.439217 0.933169 -0.158094
C23   C     C_R   0.707809 0.500675 0.500799 -0.139301
C24   C     C_2   0.499060 0.439242 0.067166 -0.156971
C25   C     C_2   0.495344 0.500932 0.866833 -0.326146
C26   C     C_2   0.504664 0.501173 0.133126 -0.327298
C27   C     C_R   0.740870 0.452961 0.419075 -0.279946
C28   C     C_R   0.256045 0.454325 0.569125 -0.279498
C29   C     C_R   0.812197 0.453994 0.406176 0.473725
C30   C     C_R   0.184336 0.454225 0.570087 0.473341
C31   C     C_R   0.851928 0.499248 0.483632 -0.044807
C32   C     C_R   0.148186 0.497555 0.484245 -0.042779
C33   C     C_R   0.819082 0.546060 0.567488 -0.236110
C34   C     C_R   0.292509 0.500282 0.489009 -0.136260
C35   C     C_R   0.184641 0.542531 0.402015 -0.240053
C36   C     C_R   0.746839 0.548661 0.576409 0.083552
C37   C     C_R   0.257057 0.544879 0.402792 0.081072
C38   C     C_3   0.649084 0.898608 0.589569 0.070130
C39   C     C_3   0.694846 0.955833 0.652883 -0.362774
C40   C     C_3   0.725032 0.925434 0.771798 -0.921608
C41   C     C_3   0.346988 0.915315 0.414311 0.059409
C42   C     C_3   0.285799 0.862780 0.426544 -0.312096
C43   C     C_3   0.249955 0.851033 0.303645 -0.940280
C44   C     C_3   0.434153 0.165014 0.294161 -0.426816
C45   C     C_R   0.964645 0.564847 0.476468 -0.206936
C46   C     C_3   0.473067 0.181198 0.174607 -0.338706
C47   C     C_3   0.437410 0.145107 0.065357 -0.855296
C48   C     C_3   0.568617 0.159537 0.699683 -0.407192
C49   C     C_3   0.592843 0.206409 0.808807 -0.383590
C50   C     C_3   0.623355 0.158037 0.909797 -0.837042
C51   C     C_3   0.858231 0.449818 0.212994 0.059213
C52   C     C_3   0.798039 0.447307 0.122035 -0.352657
C53   C     C_3   0.816669 0.484879 0.001269 -0.928515
C54   C     C_3   0.130139 0.451321 0.756651 0.058449
C55   C     C_3   0.182118 0.440628 0.860789 -0.343994
C56   C     C_R   0.036316 0.564424 0.477761 -0.205544
C57   C     C_3   0.157953 0.477892 0.978404 -0.932240
C58   C     C_3   0.710571 0.600211 0.666197 -0.362224
C59   C     C_3   0.757336 0.643258 0.754510 -0.388442
C60   C     C_3   0.714852 0.690303 0.842332 -0.849461
C61   C     C_3   0.297524 0.591985 0.311626 -0.358819
C62   C     C_3   0.255439 0.628148 0.208529 -0.380427
C63   C     C_3   0.302520 0.666550 0.116268 -0.845983
C64   C     C_R   0.072287 0.497419 0.480484 0.119698
C65   C     C_R   0.927821 0.498282 0.478897 0.118214
C66   C     C_R   0.035527 0.430790 0.480213 -0.148268
Cu1   Cu    Cu3+1 0.500000 0.573360 0.500000 0.919559
Cu2   Cu    Cu3+1 0.500000 0.426640 0.500000 0.930534
H1    H     H_    0.509706 0.386331 0.888454 0.155141
H2    H     H_    0.513811 0.554548 0.091866 0.143864
H3    H     H_    0.710862 0.416647 0.361009 0.163196
H4    H     H_    0.283470 0.419786 0.633937 0.159842
H5    H     H_    0.850916 0.579877 0.626034 0.146681
H6    H     H_    0.155570 0.575028 0.337037 0.147331
H7    H     H_    0.937883 0.617197 0.474131 0.133677
H8    H     H_    0.063710 0.616464 0.478372 0.133522
H9    H     H_    0.062315 0.378463 0.480149 0.166191
H10   H     H_    0.936385 0.379243 0.484261 0.166235
H11   H     H_    0.437544 0.690488 0.658855 0.125875
H12   H     H_    0.492938 0.386190 0.112223 0.154689
H13   H     H_    0.562409 0.691314 0.341138 0.125928
H14   H     H_    0.680156 0.848288 0.572191 0.167185
H15   H     H_    0.606531 0.881536 0.652259 0.128517
H16   H     H_    0.737542 0.972006 0.590520 0.230600
H17   H     H_    0.663986 0.005658 0.674318 0.208030
H18   H     H_    0.683100 0.910040 0.836240 0.256268
H19   H     H_    0.757702 0.968159 0.815712 0.258628
H20   H     H_    0.757282 0.876186 0.752881 0.257308
H21   H     H_    0.384285 0.890699 0.348143 0.137651
H22   H     H_    0.328561 0.969208 0.377870 0.139541
H23   H     H_    0.438341 0.826170 0.665017 0.166992
H24   H     H_    0.304162 0.808721 0.461881 0.221311
H25   H     H_    0.248156 0.885733 0.493038 0.223433
H26   H     H_    0.229155 0.904041 0.268552 0.257550
H27   H     H_    0.206626 0.811647 0.315313 0.254203
H28   H     H_    0.286627 0.828069 0.235665 0.258607
H29   H     H_    0.437493 0.084189 0.075776 0.252041
H30   H     H_    0.383431 0.164870 0.057634 0.255442
H31   H     H_    0.464993 0.159689 0.979644 0.247431
H32   H     H_    0.475612 0.241577 0.157984 0.206214
H33   H     H_    0.526585 0.159769 0.181576 0.228064
H34   H     H_    0.562365 0.827154 0.336933 0.166156
H35   H     H_    0.430663 0.104450 0.304969 0.214461
H36   H     H_    0.380425 0.185811 0.286961 0.192684
H37   H     H_    0.584792 0.117285 0.942540 0.255813
H38   H     H_    0.669330 0.128183 0.875146 0.256449
H39   H     H_    0.639161 0.193054 0.988306 0.242013
H40   H     H_    0.633354 0.245732 0.778443 0.219725
H41   H     H_    0.548637 0.237744 0.847131 0.213383
H42   H     H_    0.531564 0.117836 0.735101 0.215599
H43   H     H_    0.614057 0.130048 0.662477 0.197712
H44   H     H_    0.903895 0.423841 0.169541 0.170982
H45   H     H_    0.610490 0.068002 0.465590 0.159816
H46   H     H_    0.873005 0.508164 0.232307 0.128722
H47   H     H_    0.783858 0.388980 0.103765 0.230793
H48   H     H_    0.752607 0.475714 0.161820 0.209431
H49   H     H_    0.829990 0.543641 0.017287 0.253319
H50   H     H_    0.771983 0.482347 0.937818 0.260960
H51   H     H_    0.861075 0.456659 0.957608 0.256263
H52   H     H_    0.079190 0.430241 0.787206 0.170743
H53   H     H_    0.122986 0.511358 0.737400 0.125630
H54   H     H_    0.189112 0.380745 0.878500 0.231852
H55   H     H_    0.232660 0.464389 0.833810 0.208787
H56   H     H_    0.392440 0.068985 0.532945 0.166465
H57   H     H_    0.152721 0.538254 0.963934 0.253176
H58   H     H_    0.196278 0.468054 0.052181 0.258657
H59   H     H_    0.107606 0.454838 0.008101 0.256476
H60   H     H_    0.683254 0.730755 0.790401 0.250915
H61   H     H_    0.680440 0.654854 0.898554 0.255889
H62   H     H_    0.749850 0.720958 0.904605 0.243693
H63   H     H_    0.789047 0.604271 0.809172 0.228050
H64   H     H_    0.791859 0.680473 0.701631 0.216562
H65   H     H_    0.680557 0.641246 0.612656 0.218861
H66   H     H_    0.674014 0.566881 0.721966 0.192150
H67   H     H_    0.441236 0.310379 0.338102 0.132511
H68   H     H_    0.335054 0.708376 0.162863 0.252588
H69   H     H_    0.336363 0.625649 0.070431 0.253597
H70   H     H_    0.270831 0.694527 0.045404 0.242241
H71   H     H_    0.225007 0.585665 0.159235 0.226531
H72   H     H_    0.219828 0.669792 0.247929 0.218232
H73   H     H_    0.324242 0.636521 0.362844 0.217496
H74   H     H_    0.337238 0.556385 0.268205 0.193669
H75   H     H_    0.558289 0.311473 0.660856 0.129251
H76   H     H_    0.485099 0.554061 0.907793 0.142852
N1    N     N_R   0.500000 0.683620 0.500000 -0.168698
N2    N     N_R   0.500000 0.316380 0.500000 -0.197622
O1    O     O_R   0.400190 0.561980 0.499980 -0.591061
O2    O     O_3   0.377037 0.925383 0.530952 -0.612155
O3    O     O_3   0.842475 0.408617 0.319796 -0.627029
O4    O     O_3   0.150144 0.409560 0.653065 -0.627254
O5    O     O_R   0.599810 0.561980 0.500020 -0.591539
O6    O     O_R   0.400190 0.438070 0.500040 -0.573971
O7    O     O_R   0.599810 0.438070 0.499960 -0.575844
O8    O     O_R   0.500000 0.561940 0.321950 -0.593724
O9    O     O_R   0.500000 0.561940 0.678050 -0.593676
O10   O     O_R   0.500010 0.438030 0.322010 -0.587810
O11   O     O_R   0.499990 0.438030 0.677990 -0.588113
O12   O     O_3   0.626010 0.925370 0.474593 -0.616565

loop_
_geom_bond_atom_site_label_1
_geom_bond_atom_site_label_2
_ccdc_geom_bond_type
C48   H42   S    
C35   H6    S    
C51   H44   S    
C56   H8    S    
C54   H52   S    
C38   H15   S    
C27   C29   A    
C18   C21   A    
C41   C42   S    
C41   H21   S    
C11   H56   S    
C12   O5    A    
C12   O7    A    
C2    C65   A    
C3    H11   S    
C33   C36   A    
C44   H36   S    
C27   H3    S    
C54   O4    S    
C58   H66   S    
C12   C23   S    
C59   H63   S    
C47   H30   S    
Cu1   O8    S    
Cu2   O6    S    
C40   H19   S    
C35   C37   A    
C9    C16   A    
C24   C26   D    
C39   H16   S    
C15   O11   A    
C36   C58   S    
C57   H57   S    
C38   C39   S    
C53   H49   S    
C30   O4    S    
C19   H67   S    
C34   C37   A    
C43   H26   S    
C47   H31   S    
C1    O6    A    
Cu1   O9    S    
C40   H18   S    
C49   C50   S    
C46   C47   S    
C24   H12   S    
C4    H13   S    
C45   C56   A    
C22   C25   D    
Cu1   N1    S    
C50   H37   S    
C43   H27   S    
C56   C64   A    
C23   C27   A    
C62   H71   S    
C22   H1    S    
C15   O9    A    
C41   H22   S    
C55   H54   S    
C8    O12   S    
C59   C60   S    
C8    C16   A    
C38   H14   S    
C63   H69   S    
C20   H75   S    
C28   H4    S    
C44   H35   S    
C44   C46   S    
C1    C34   S    
C49   H40   S    
C52   H48   S    
C58   H65   S    
C46   H33   S    
C55   H55   S    
C59   H64   S    
C51   H46   S    
Cu1   O5    S    
Cu1   Cu2   S    
C19   N2    A    
C32   C35   A    
C60   H60   S    
C32   C64   S    
C4    C6    A    
Cu2   O7    S    
C60   H62   S    
C57   H58   S    
C5    C7    A    
C53   H50   S    
C3    C5    A    
C58   C59   S    
C29   O3    S    
C17   C21   A    
C51   C52   S    
C64   C66   A    
C62   C63   S    
C2    H10   S    
C31   C33   A    
C43   H28   S    
C13   C21   S    
C14   C26   S    
C9    C11   A    
C38   O12   S    
C5    H23   S    
C10   H45   S    
C42   H25   S    
C33   H5    S    
C7    C16   S    
C54   H53   S    
C3    N1    A    
C55   C57   S    
C45   C65   A    
C50   H39   S    
C26   H2    S    
C63   H70   S    
C22   C24   S    
C1    O1    A    
C25   H76   S    
C42   C43   S    
C39   H17   S    
Cu2   O11   S    
C39   C40   S    
Cu2   N2    S    
C52   C53   S    
C49   H41   S    
C52   H47   S    
C61   H73   S    
C31   C65   S    
C66   H9    S    
C46   H32   S    
C54   C55   S    
C48   C49   S    
C42   H24   S    
C14   O10   A    
Cu2   O10   S    
C10   C13   A    
C18   C48   S    
C60   H61   S    
C57   H59   S    
C18   C20   A    
C37   C61   S    
C53   H51   S    
C2    C66   A    
C6    C7    A    
C9    O2    S    
C47   H29   S    
C45   H7    S    
C63   H68   S    
C40   H20   S    
C28   C30   A    
C17   C44   S    
C29   C31   A    
C30   C32   A    
C11   C13   A    
C41   O2    S    
C4    N1    A    
C17   C19   A    
C20   N2    A    
C6    H34   S    
C61   C62   S    
C15   C25   S    
C28   C34   A    
C61   H74   S    
C48   H43   S    
C51   O3    S    
C8    C10   A    
C23   C36   A    
Cu1   O1    S    
C50   H38   S    
C62   H72   S    
C14   O8    A    
