data_mof_unit_68001.cif
_audit_creation_date              2012-12-11T14:22:59-0500
_audit_creation_method            fapswitch 2.2
_symmetry_space_group_name_H-M    P1
_symmetry_Int_Tables_number       1
_space_group_crystal_system       triclinic
_cell_length_a                    10.963028
_cell_length_b                    11.133368
_cell_length_c                    18.762783
_cell_angle_alpha                 90.374044
_cell_angle_beta                  89.461313
_cell_angle_gamma                 60.877775
_cell_volume                      2000.34307295

loop_
_atom_site_label
_atom_site_type_symbol
_atom_type_description
_atom_site_fract_x
_atom_site_fract_y
_atom_site_fract_z
_atom_type_partial_charge
C1    C     C_R   0.233914 0.643205 0.608408 0.554021
C2    C     C_3   0.682688 0.527444 0.812726 0.159486
C3    C     C_3   0.680559 0.667571 0.817474 0.069035
C4    C     C_3   0.639032 0.623195 0.684884 0.013997
C5    C     C_3   0.754811 0.662789 0.688562 -0.254606
C6    C     C_3   0.676619 0.496302 0.732198 -0.189410
C7    C     C_R   0.681811 0.181139 0.830673 -0.005575
C8    C     C_R   0.794909 0.172644 0.789535 -0.030558
C9    C     C_R   0.784094 0.179839 0.714027 0.003671
C10   C     C_R   0.539929 0.237898 0.726788 -0.128431
C11   C     C_R   0.548574 0.235534 0.800195 0.265167
C12   C     C_R   0.626367 0.589989 0.608869 0.548701
C13   C     C_R   0.920786 0.151155 0.821048 -0.139488
C14   C     C_R   0.039346 0.115100 0.779727 -0.140349
C15   C     C_R   0.030871 0.118155 0.706364 -0.084565
C16   C     C_R   0.903865 0.158036 0.673779 -0.039624
C17   C     C_R   0.654784 0.207566 0.682375 -0.078421
C18   C     C_R   0.082979 0.704262 0.818059 -0.056855
C19   C     C_R   0.123025 0.569665 0.787319 -0.033425
C20   C     C_R   0.153783 0.546041 0.712570 -0.014200
C21   C     C_R   0.060002 0.788879 0.696865 0.242052
C22   C     C_R   0.036160 0.813094 0.770213 -0.156829
C23   C     C_R   0.622623 0.240049 0.606265 0.506626
C24   C     C_R   0.119416 0.461848 0.825783 -0.105393
C25   C     C_R   0.161443 0.334563 0.797452 -0.125065
C26   C     C_R   0.190747 0.311198 0.726672 -0.097460
C27   C     C_R   0.173455 0.418486 0.680919 0.279351
C28   C     C_R   0.149069 0.657858 0.672933 0.018406
C29   C     C_R   0.656166 0.643507 0.163850 -0.002686
C30   C     C_R   0.767349 0.537742 0.203110 0.008872
C31   C     C_R   0.775233 0.560887 0.275580 0.012397
C32   C     C_R   0.525968 0.716920 0.274585 -0.135016
C33   C     C_R   0.531319 0.726384 0.200151 -0.162889
C34   C     C_R   0.220350 0.647387 0.403131 0.526512
C35   C     C_R   0.878659 0.418589 0.171155 -0.080117
C36   C     C_R   0.010284 0.351459 0.202682 0.256777
C37   C     C_R   0.021986 0.389926 0.271730 -0.108257
C38   C     C_R   0.906786 0.495193 0.307543 -0.141588
C39   C     C_R   0.650078 0.643726 0.313759 0.007076
C40   C     C_R   0.663939 0.102363 0.184182 0.014267
C41   C     C_R   0.577612 0.073116 0.229923 0.015903
C42   C     C_R   0.588977 0.085649 0.303782 0.026906
C43   C     C_R   0.715159 0.211498 0.280326 -0.143460
C44   C     C_R   0.726739 0.176538 0.209705 -0.146860
C45   C     C_R   0.640381 0.618610 0.390358 0.537858
C46   C     C_R   0.474280 0.041148 0.205846 -0.080308
C47   C     C_R   0.385101 0.026626 0.254250 -0.106821
C48   C     C_R   0.411398 0.019629 0.326645 -0.128776
C49   C     C_R   0.519674 0.039013 0.350894 -0.091869
C50   C     C_R   0.655133 0.159510 0.328320 0.010617
C51   C     C_R   0.114891 0.700312 0.191797 0.003521
C52   C     C_R   0.079361 0.815732 0.239251 0.033887
C53   C     C_R   0.068545 0.797598 0.312451 0.026071
C54   C     C_R   0.188650 0.551262 0.292309 -0.153678
C55   C     C_R   0.165560 0.569494 0.219974 -0.154628
C56   C     C_R   0.619614 0.224650 0.397318 0.536678
C57   C     C_R   0.065641 0.944483 0.219567 -0.098171
C58   C     C_R   0.031962 0.048544 0.270228 -0.153145
C59   C     C_R   0.000145 0.033931 0.339893 -0.119936
C60   C     C_R   0.010435 0.910795 0.360202 -0.082202
C61   C     C_R   0.143886 0.665575 0.338189 -0.010076
C62   C     C_R   0.703093 0.103091 0.896848 0.525014
C63   C     C_R   0.723156 0.689036 0.888674 0.522849
C64   C     C_R   0.055751 0.738825 0.896576 0.566319
C65   C     C_R   0.695248 0.051883 0.111637 0.562342
C66   C     C_R   0.693486 0.684969 0.095199 0.531017
C67   C     C_3   0.533860 0.781857 0.793285 -0.209050
C68   C     C_R   0.080690 0.718772 0.116083 0.542538
C69   C     C_3   0.503368 0.745803 0.717680 -0.224577
C70   C     C_3   0.790550 0.668663 0.765794 -0.281355
Cr1   Cr    Cr6+3 0.392940 0.397950 0.502230 0.993300
Cr2   Cr    Cr6+3 0.398400 0.708500 0.501260 0.990475
Cr3   Cr    Cr6+3 0.708640 0.393530 0.496460 0.965316
Cr4   Cr    Cr6+3 0.937880 0.938320 0.007620 0.953165
Cr5   Cr    Cr6+3 0.625560 0.937220 0.994510 0.965243
Cr6   Cr    Cr6+3 0.938080 0.625010 0.001190 0.936986
H1    H     H_    0.531655 0.882879 0.791774 0.135345
H2    H     H_    0.781298 0.414620 0.714795 0.115033
H3    H     H_    0.888447 0.574295 0.774790 0.139050
H4    H     H_    0.851556 0.588221 0.659496 0.167950
H5    H     H_    0.440024 0.268076 0.704071 0.164976
H6    H     H_    0.139378 0.078676 0.804742 0.106340
H7    H     H_    0.124432 0.082920 0.674044 0.102725
H8    H     H_    0.909893 0.153787 0.616595 0.155751
H9    H     H_    0.450697 0.792677 0.831397 0.153811
H10   H     H_    0.072134 0.468874 0.876044 0.184699
H11   H     H_    0.973709 0.914745 0.790053 0.156564
H12   H     H_    0.167384 0.254333 0.831549 0.116241
H13   H     H_    0.221377 0.208543 0.708935 0.075479
H14   H     H_    0.425410 0.769849 0.301503 0.151081
H15   H     H_    0.865338 0.383925 0.119866 0.112920
H16   H     H_    0.439767 0.797293 0.171177 0.109408
H17   H     H_    0.419052 0.717561 0.721031 0.145900
H18   H     H_    0.919523 0.528200 0.359600 0.127845
H19   H     H_    0.754634 0.279275 0.297362 0.146734
H20   H     H_    0.453313 0.033734 0.150729 0.163273
H21   H     H_    0.783526 0.209926 0.174986 0.127388
H22   H     H_    0.301858 0.009848 0.235172 0.147603
H23   H     H_    0.349103 0.997360 0.363816 0.118736
H24   H     H_    0.540504 0.028563 0.407436 0.119568
H25   H     H_    0.250075 0.447435 0.311540 0.150344
H26   H     H_    0.091333 0.966103 0.167949 0.155551
H27   H     H_    0.024130 0.143609 0.255211 0.164775
H28   H     H_    0.968929 0.117478 0.378061 0.124727
H29   H     H_    0.990125 0.898833 0.415518 0.110187
H30   H     H_    0.804898 0.759914 0.774819 0.120605
H31   H     H_    0.716694 0.764764 0.663940 0.122075
H32   H     H_    0.783326 0.443895 0.832707 0.123246
H33   H     H_    0.598818 0.461184 0.724002 0.143123
O1    O     O_R   0.507340 0.255690 0.581430 -0.530244
O2    O     O_R   0.524510 0.695820 0.424050 -0.502678
O3    O     O_R   0.736370 0.504260 0.414810 -0.537237
O4    O     O_R   0.691220 0.277270 0.422180 -0.512698
O5    O     O_3   0.499990 0.499990 0.499980 -0.264985
O6    O     O_R   0.089570 0.825450 0.930590 -0.521015
O7    O     O_R   0.818700 0.054260 0.929860 -0.539305
O8    O     O_R   0.606310 0.077010 0.915520 -0.485165
O9    O     O_R   0.646730 0.806540 0.917560 -0.514362
O10   O     O_R   0.837290 0.593240 0.915240 -0.585027
O11   O     O_R   0.065320 0.635310 0.931580 -0.532541
O12   O     O_R   0.280360 0.527380 0.578910 -0.463673
O13   O     O_R   0.068470 0.828620 0.091850 -0.547867
O14   O     O_R   0.799150 0.057200 0.079350 -0.525021
O15   O     O_R   0.585220 0.080180 0.076770 -0.568151
O16   O     O_R   0.627170 0.809480 0.067050 -0.519724
O17   O     O_R   0.816200 0.596410 0.076500 -0.536424
O18   O     O_R   0.045770 0.638240 0.081070 -0.507634
O19   O     O_3   0.833840 0.833520 0.001110 -0.265050
O20   O     O_R   0.260600 0.739610 0.584580 -0.496674
O21   O     O_R   0.532370 0.695050 0.573830 -0.514707
O22   O     O_R   0.744850 0.503430 0.576380 -0.529423
O23   O     O_R   0.699080 0.276500 0.571950 -0.536920
O24   O     O_R   0.498860 0.256520 0.419860 -0.546545
O25   O     O_R   0.272490 0.528150 0.429140 -0.518384
O26   O     O_R   0.252110 0.740440 0.423010 -0.521615
H34   H     H_    0.932783 0.154554 0.877510 0.134979
O27   O     O_3   0.429370 0.262100 0.839730 -0.558350
C71   C     C_3   0.406757 0.352594 0.898274 0.058140
H35   H     H_    0.342461 0.460378 0.881079 0.172442
H36   H     H_    0.503870 0.342982 0.918812 0.142786
C72   C     C_3   0.335653 0.322154 0.961329 -0.255535
H37   H     H_    0.232232 0.337521 0.946699 0.133220
H38   H     H_    0.395411 0.213608 0.977491 0.203313
C73   C     C_3   0.319162 0.412405 0.026222 -0.456731
H39   H     H_    0.294845 0.517706 0.010843 0.177948
H40   H     H_    0.412328 0.366061 0.060000 0.143048
H41   H     H_    0.234376 0.418827 0.060283 0.155835
O28   O     O_3   0.005082 0.892413 0.647561 -0.566950
C74   C     C_3   0.886136 0.897400 0.615115 -0.007106
H42   H     H_    0.832508 0.996258 0.587224 0.163028
H43   H     H_    0.810945 0.898945 0.655639 0.115766
C75   C     C_3   0.921453 0.786130 0.557246 -0.285676
H44   H     H_    0.008663 0.777419 0.523177 0.182666
H45   H     H_    0.953362 0.685396 0.582149 0.173119
C76   C     C_3   0.796727 0.820321 0.509564 -0.474563
H46   H     H_    0.706029 0.831944 0.541673 0.168699
H47   H     H_    0.825163 0.736165 0.469831 0.152001
H48   H     H_    0.766543 0.917187 0.480511 0.135303
O29   O     O_3   0.157165 0.409241 0.607563 -0.550737
C77   C     C_3   0.185875 0.277382 0.582411 0.014375
H49   H     H_    0.098595 0.258619 0.597862 0.117693
H50   H     H_    0.287851 0.194970 0.601913 0.108669
C78   C     C_3   0.201382 0.267302 0.501904 -0.240235
H51   H     H_    0.301157 0.262133 0.486487 0.211973
H52   H     H_    0.206045 0.170278 0.482941 0.073308
C79   C     C_3   0.082580 0.387997 0.465714 -0.367787
H53   H     H_    0.061316 0.488169 0.489163 0.197063
H54   H     H_    0.986687 0.378201 0.468348 0.166648
H55   H     H_    0.116086 0.385775 0.410134 0.103009
O30   O     O_3   0.126051 0.237611 0.172941 -0.616866
C80   C     C_3   0.139673 0.242069 0.098138 -0.025777
H56   H     H_    0.249333 0.215809 0.086884 0.149067
H57   H     H_    0.072415 0.344671 0.074441 0.144765
C81   C     C_3   0.117313 0.131018 0.062173 -0.264950
H58   H     H_    0.196414 0.028816 0.081861 0.158539
H59   H     H_    0.011557 0.147116 0.075571 0.163225
C82   C     C_3   0.134057 0.131428 0.981495 -0.483578
H60   H     H_    0.056947 0.232447 0.959657 0.114100
H61   H     H_    0.117262 0.049499 0.957508 0.178659
H62   H     H_    0.241337 0.109526 0.966926 0.131444
H63   H     H_    0.121517 0.334788 0.297474 0.126175
H64   H     H_    0.196310 0.480472 0.185702 0.142549
H65   H     H_    0.464769 0.838807 0.683979 0.130112
O31   O     O_3   0.567361 0.528334 0.849665 -0.598266
C83   C     C_3   0.570665 0.537511 0.925632 0.000542
H66   H     H_    0.473557 0.543591 0.946958 0.131559
H67   H     H_    0.556533 0.637159 0.944906 0.147668
C84   C     C_3   0.698353 0.415214 0.959397 -0.300172
H68   H     H_    0.740249 0.326855 0.922728 0.163441
H69   H     H_    0.782290 0.440221 0.969261 0.188101
C85   C     C_3   0.666286 0.369394 0.029819 -0.462038
H70   H     H_    0.602534 0.458110 0.065905 0.138757
H71   H     H_    0.765510 0.298503 0.055321 0.148920
H72   H     H_    0.615001 0.307250 0.020130 0.179982

loop_
_geom_bond_atom_site_label_1
_geom_bond_atom_site_label_2
_ccdc_geom_bond_type
C80   H56   S    
Cr3   O22   S    
C8    C13   A    
C12   O22   A    
C29   C33   A    
C76   H47   S    
Cr6   O17   S    
C41   C42   A    
C54   H25   S    
C35   C36   A    
C67   H1    S    
Cr1   O25   S    
C85   H71   S    
C56   O24   A    
C57   C58   A    
C45   O3    A    
C7    C8    A    
C26   H13   S    
C7    C11   A    
C57   H26   S    
C80   H57   S    
C26   C27   A    
Cr6   O11   S    
C47   H22   S    
C12   O21   A    
C30   C35   A    
C84   C85   S    
C59   H28   S    
C36   C37   A    
C78   H52   S    
C9    C16   A    
C18   C19   A    
C1    O20   A    
C74   H43   S    
C30   C31   A    
C83   H67   S    
O30   C80   S    
C34   O25   A    
C10   C17   A    
C27   O29   S    
C15   C16   A    
Cr1   O1    S    
Cr2   O5    S    
C16   H8    S    
Cr3   O4    S    
O31   C83   S    
C84   H69   S    
Cr5   O19   S    
C65   O15   A    
C48   H23   S    
C81   H58   S    
C62   O8    A    
C54   C55   A    
C53   C61   A    
C32   H14   S    
O29   C77   S    
C66   O16   A    
C8    C9    A    
C82   H61   S    
Cr5   O8    S    
C1    C28   S    
C43   H19   S    
C56   O4    A    
C13   C14   A    
C4    C12   S    
C39   C45   S    
Cr4   O14   S    
Cr2   O2    S    
Cr4   O7    S    
C59   C60   A    
C64   O6    A    
C21   C22   A    
C76   H48   S    
C79   H54   S    
C2    C6    S    
Cr5   O9    S    
C73   H41   S    
C78   C79   S    
C4    C69   S    
C53   C60   A    
C54   C61   A    
C81   H59   S    
C80   C81   S    
Cr4   O19   S    
C67   H9    S    
Cr6   O10   S    
Cr5   O15   S    
C21   O28   S    
Cr2   O20   S    
C3    C70   S    
O28   C74   S    
C4    C6    S    
C70   H30   S    
C33   H16   S    
C68   O13   A    
C63   O9    A    
C73   H39   S    
C83   C84   S    
C15   H7    S    
C20   C28   A    
C25   C26   A    
C71   C72   S    
C25   H12   S    
C50   C56   S    
Cr3   O5    S    
C66   O17   A    
Cr1   O5    S    
C84   H68   S    
C67   C69   S    
C77   H50   S    
C37   C38   A    
C43   C44   A    
C77   C78   S    
C7    C62   S    
C62   O7    A    
C29   C30   A    
C63   O10   A    
C44   H21   S    
C47   C48   A    
C68   O18   A    
C75   C76   S    
C41   C46   A    
C82   H62   S    
C37   H63   S    
C38   H18   S    
C17   C23   S    
C22   H11   S    
C24   C25   A    
C5    H4    S    
C81   C82   S    
C71   H36   S    
C42   C50   A    
C74   C75   S    
C73   H40   S    
C48   C49   A    
Cr4   O13   S    
C21   C28   A    
C69   H65   S    
C40   C65   S    
C79   H53   S    
Cr6   O19   S    
C13   H34   S    
C72   C73   S    
C14   H6    S    
C52   C57   A    
C52   C53   A    
Cr3   O3    S    
C5    H31   S    
C9    C17   A    
C85   H70   S    
C23   O1    A    
C46   C47   A    
C40   C41   A    
C70   H3    S    
C18   C22   A    
C36   O30   S    
Cr1   O12   S    
C3    C67   S    
C75   H45   S    
C4    C5    S    
Cr2   O26   S    
C5    C70   S    
Cr1   O24   S    
C45   O2    A    
C43   C50   A    
Cr2   O21   S    
C20   C27   A    
C3    C63   S    
O27   C71   S    
C10   H5    S    
C69   H17   S    
C64   O11   A    
C31   C38   A    
C10   C11   A    
C77   H49   S    
C19   C20   A    
C72   H38   S    
C19   C24   A    
C58   C59   A    
C85   H72   S    
C51   C52   A    
C74   H42   S    
C32   C33   A    
C49   H24   S    
C18   C64   S    
C83   H66   S    
C34   O26   A    
Cr4   O6    S    
C2    H32   S    
C6    H33   S    
C55   H64   S    
C31   C39   A    
C23   O23   A    
C2    O31   S    
C51   C55   A    
C51   C68   S    
C65   O14   A    
C11   O27   S    
C1    O12   A    
Cr3   O23   S    
C78   H51   S    
C6    H2    S    
C71   H35   S    
C42   C49   A    
C29   C66   S    
C40   C44   A    
C46   H20   S    
C75   H44   S    
C79   H55   S    
C82   H60   S    
C34   C61   S    
C76   H46   S    
C32   C39   A    
Cr6   O18   S    
C14   C15   A    
C2    C3    S    
C58   H27   S    
Cr5   O16   S    
C72   H37   S    
C24   H10   S    
C60   H29   S    
C35   H15   S    
