data_mof_unit_55116.cif
_audit_creation_date              2012-12-10T17:55:52-0500
_audit_creation_method            fapswitch 2.2
_symmetry_space_group_name_H-M    P1
_symmetry_Int_Tables_number       1
_space_group_crystal_system       triclinic
_cell_length_a                    11.071701
_cell_length_b                    10.817412
_cell_length_c                    9.522485
_cell_angle_alpha                 90.028735
_cell_angle_beta                  102.938797
_cell_angle_gamma                 90.283491
_cell_volume                      1111.50874216

loop_
_atom_site_label
_atom_site_type_symbol
_atom_type_description
_atom_site_fract_x
_atom_site_fract_y
_atom_site_fract_z
_atom_type_partial_charge
C1    C     C_R   0.501408 0.262206 0.500038 0.854435
C2    C     C_R   0.498595 0.737794 0.499963 0.854337
C3    C     C_R   0.262627 0.498828 0.441099 0.752772
C4    C     C_R   0.737371 0.501236 0.558898 0.752984
C5    C     C_R   0.424733 0.421455 0.055445 -0.238671
C6    C     C_R   0.575276 0.578542 0.944552 -0.238866
C7    C     C_R   0.422459 0.421834 0.904453 0.606838
C8    C     C_R   0.577555 0.578172 0.095565 0.607158
C9    C     C_2   0.127098 0.496942 0.405806 0.313923
C10   C     C_2   0.872894 0.503298 0.594178 0.313811
C11   C     C_2   0.067387 0.498860 0.513688 -0.226225
C12   C     C_2   0.932604 0.501780 0.486282 -0.226128
C13   C     C_R   0.552700 0.063147 0.398300 0.501533
C14   C     C_R   0.447315 0.936854 0.601706 0.501526
C15   C     C_R   0.551743 0.934471 0.401614 -0.348398
C16   C     C_R   0.448267 0.065529 0.598389 -0.348364
C17   C     C_R   0.497928 0.871660 0.500699 -0.192898
C18   C     C_R   0.502080 0.128340 0.499304 -0.192933
Cu1   Cu    Cu3+1 0.500000 0.500020 0.640660 1.002743
Cu2   Cu    Cu3+1 0.500000 0.499980 0.359340 1.002822
H1    H     H_    0.367646 0.358003 0.099962 0.152728
H2    H     H_    0.632367 0.641964 0.900000 0.152682
H3    H     H_    0.595776 0.883465 0.329027 0.209968
H4    H     H_    0.404235 0.116532 0.670980 0.210016
N1    N     N_R   0.500030 0.500030 0.852080 -0.206074
N2    N     N_R   0.499970 0.499970 0.147920 -0.206147
O1    O     O_R   0.499990 0.319660 0.618740 -0.546085
O2    O     O_R   0.500010 0.680340 0.381260 -0.546129
O3    O     O_R   0.499990 0.319630 0.381170 -0.555790
O4    O     O_R   0.500010 0.680370 0.618830 -0.555833
O5    O     O_R   0.320690 0.500020 0.575130 -0.564034
O6    O     O_R   0.679310 0.499980 0.424870 -0.563910
O7    O     O_R   0.320680 0.499990 0.337560 -0.570519
O8    O     O_R   0.679320 0.500010 0.662440 -0.570534
H5    H     H_    0.880887 0.502879 0.375035 0.200597
H6    H     H_    0.119103 0.498006 0.624932 0.200208
O9    O     O_3   0.937228 0.495322 0.736675 -0.583781
C19   C     C_3   0.944844 0.614297 0.798646 -0.335074
H7    H     H_    0.851684 0.650172 0.802632 0.160647
H8    H     H_    0.993445 0.680234 0.740094 0.169980
H9    H     H_    0.999700 0.608350 0.911224 0.207237
O10   O     O_3   0.062773 0.504641 0.263282 -0.583711
C20   C     C_3   0.055170 0.385540 0.201642 -0.334771
H10   H     H_    0.006576 0.319752 0.260377 0.170022
H11   H     H_    0.148334 0.349616 0.197756 0.160527
H12   H     H_    0.000316 0.391272 0.089049 0.207175
O11   O     O_3   0.349939 0.339759 0.808082 -0.562605
C21   C     C_3   0.235104 0.313228 0.842820 -0.383653
H13   H     H_    0.246075 0.239591 0.925909 0.151439
H14   H     H_    0.170803 0.276897 0.744882 0.210844
H15   H     H_    0.191387 0.397098 0.877449 0.188339
O12   O     O_3   0.650102 0.660178 0.192035 -0.562303
C22   C     C_3   0.764546 0.687615 0.156744 -0.384983
H16   H     H_    0.808589 0.604150 0.121637 0.188375
H17   H     H_    0.828935 0.724047 0.254553 0.210916
H18   H     H_    0.752819 0.761473 0.073843 0.151469
O13   O     O_3   0.613938 0.125804 0.307590 -0.562277
C23   C     C_3   0.553245 0.104113 0.162725 -0.292600
H19   H     H_    0.588657 0.171605 0.093769 0.190607
H20   H     H_    0.451185 0.117829 0.144260 0.143982
H21   H     H_    0.574163 0.010200 0.127686 0.150513
O14   O     O_3   0.386088 0.874204 0.692430 -0.562279
C24   C     C_3   0.446848 0.895840 0.837283 -0.292596
H22   H     H_    0.548891 0.882016 0.855692 0.143869
H23   H     H_    0.411395 0.828389 0.906252 0.190556
H24   H     H_    0.426047 0.989779 0.872355 0.150594

loop_
_geom_bond_atom_site_label_1
_geom_bond_atom_site_label_2
_ccdc_geom_bond_type
C3    O5    A    
C11   C12   S    
C24   H23   S    
O9    C19   S    
C3    C9    S    
C14   C16   A    
Cu1   O1    S    
C8    O12   S    
O11   C21   S    
C7    N1    A    
C13   C15   A    
C2    O4    A    
Cu1   O5    S    
C8    N2    A    
C23   H21   S    
C15   H3    S    
C1    C18   S    
C24   H24   S    
C5    C7    A    
C16   H4    S    
C16   C18   A    
C22   H16   S    
C12   H5    S    
C19   H8    S    
C20   H11   S    
C14   C17   A    
C9    C11   D    
C9    O10   S    
C4    O6    A    
Cu2   N2    S    
C13   C18   A    
C10   O9    S    
Cu2   O7    S    
C10   C12   D    
C21   H14   S    
C21   H13   S    
O13   C23   S    
Cu2   O3    S    
C22   H17   S    
C20   H10   S    
C19   H7    S    
Cu1   N1    S    
C20   H12   S    
C4    O8    A    
C6    N1    A    
C13   O13   S    
O10   C20   S    
C1    O3    A    
C23   H20   S    
C5    N2    A    
C14   O14   S    
C5    H1    S    
O12   C22   S    
C19   H9    S    
C15   C17   A    
Cu2   O6    S    
C22   H18   S    
C1    O1    A    
C3    O7    A    
C2    O2    A    
C11   H6    S    
C6    C8    A    
Cu2   O2    S    
C23   H19   S    
Cu1   O4    S    
C4    C10   S    
C21   H15   S    
O14   C24   S    
Cu1   Cu2   S    
C7    O11   S    
C24   H22   S    
C2    C17   S    
Cu1   O8    S    
C6    H2    S    
