data_mof_unit_53773.cif
_audit_creation_date              2012-10-26T20:58:19-0400
_audit_creation_method            fapswitch 2.2
_symmetry_space_group_name_H-M    P1
_symmetry_Int_Tables_number       1
_space_group_crystal_system       triclinic
_cell_length_a                    10.64375
_cell_length_b                    14.703836
_cell_length_c                    14.736148
_cell_angle_alpha                 64.718798
_cell_angle_beta                  103.343407
_cell_angle_gamma                 102.87852
_cell_volume                      2008.72094184

loop_
_atom_site_label
_atom_site_type_symbol
_atom_type_description
_atom_site_fract_x
_atom_site_fract_y
_atom_site_fract_z
_atom_type_partial_charge
C1    C     C_R   0.476281 0.120008 0.312123 0.547744
C2    C     C_R   0.431619 0.533074 0.946110 -0.012711
C3    C     C_R   0.381640 0.490658 0.872268 0.366927
C4    C     C_R   0.453317 0.509037 0.123407 0.367153
C5    C     C_R   0.358359 0.386039 0.900720 -0.057418
C6    C     C_R   0.474395 0.613605 0.095058 -0.057336
C7    C     C_R   0.725115 0.287334 0.662906 0.362482
C8    C     C_R   0.272891 0.711481 0.338953 0.360550
C9    C     C_R   0.688168 0.204781 0.635084 0.100224
C10   C     C_R   0.311651 0.795064 0.365090 0.104995
C11   C     C_R   0.515696 0.283809 0.511822 0.057565
C12   C     C_R   0.520021 0.880011 0.687835 0.549483
C13   C     C_R   0.482851 0.715434 0.489524 0.067365
C14   C     C_R   0.547347 0.370290 0.536882 -0.031856
C15   C     C_R   0.448938 0.627670 0.466573 -0.026053
C16   C     C_R   0.259831 0.000377 0.500156 0.598220
C17   C     C_R   0.740181 0.999625 0.499845 0.594925
C18   C     C_R   0.655257 0.370549 0.613997 0.038651
C19   C     C_R   0.340887 0.627286 0.389581 0.032601
C20   C     C_R   0.476945 0.455877 0.488328 0.040209
C21   C     C_R   0.517772 0.541229 0.516617 0.042846
C22   C     C_R   0.625860 0.537197 0.593952 -0.107858
C23   C     C_R   0.469614 0.292953 0.177464 -0.065651
C24   C     C_R   0.366929 0.458847 0.412774 -0.071575
C25   C     C_R   0.692496 0.453626 0.641532 -0.072460
C26   C     C_R   0.301314 0.542930 0.364189 -0.061090
C27   C     C_3   0.016595 0.010888 0.409056 0.362247
C28   C     C_3   0.983469 0.989130 0.590948 0.358477
C29   C     C_3   0.962151 0.088974 0.428515 -0.176829
C30   C     C_3   0.037912 0.911042 0.571491 -0.176821
C31   C     C_3   0.876291 0.999411 0.499097 -0.065941
C32   C     C_3   0.123756 0.000603 0.500907 -0.064050
C33   C     C_3   0.929918 0.922671 0.478510 0.371288
C34   C     C_R   0.492466 0.707094 0.822006 -0.062956
C35   C     C_3   0.070144 0.077344 0.521492 0.371158
C36   C     C_R   0.450167 0.187929 0.204376 -0.001695
C37   C     C_R   0.517327 0.812144 0.795191 -0.001313
C38   C     C_R   0.369571 0.215493 0.028366 -0.098002
C39   C     C_R   0.515766 0.784257 0.969102 -0.098705
C40   C     C_R   0.399298 0.149368 0.129250 -0.089788
C41   C     C_R   0.529061 0.850558 0.869361 -0.095041
C42   C     C_R   0.430607 0.360448 0.077797 0.032735
C43   C     C_R   0.468028 0.639388 0.919874 0.029726
C44   C     C_R   0.386193 0.320639 0.001975 -0.019640
C45   C     C_R   0.486334 0.679102 0.995019 -0.014651
C46   C     C_R   0.440457 0.466729 0.050669 -0.004730
Cu1   Cu    Cu3+1 0.465750 0.918270 0.475680 1.035303
Cu2   Cu    Cu3+1 0.534250 0.081730 0.524320 1.026524
F1    F     F_    0.828495 0.285720 0.737268 -0.610040
F2    F     F_    0.169375 0.712942 0.264732 -0.612218
F3    F     F_    0.036262 0.020804 0.315545 -0.566553
F4    F     F_    0.963865 0.979236 0.684464 -0.568674
F5    F     F_    0.855570 0.843502 0.454808 -0.568386
F6    F     F_    0.144510 0.156515 0.545186 -0.572820
F7    F     F_    0.341761 0.548212 0.773408 -0.637231
F8    F     F_    0.432673 0.451246 0.220368 -0.678387
H1    H     H_    0.496600 0.679334 0.766050 0.200203
H2    H     H_    0.741359 0.140376 0.672847 0.186328
H3    H     H_    0.662022 0.597690 0.620046 0.125095
H4    H     H_    0.328097 0.396863 0.389218 0.172999
H5    H     H_    0.319585 0.356067 0.842620 0.168801
H6    H     H_    0.482939 0.643423 0.152348 0.153645
H7    H     H_    0.548044 0.931599 0.850346 0.153817
H8    H     H_    0.383102 0.068355 0.148249 0.152974
H9    H     H_    0.333079 0.184415 0.970958 0.145339
H10   H     H_    0.527400 0.815220 0.025871 0.138642
H11   H     H_    0.519858 0.320999 0.234783 0.205783
H12   H     H_    0.774725 0.454600 0.700466 0.195790
H13   H     H_    0.218153 0.541387 0.306101 0.200463
H14   H     H_    0.929715 0.161224 0.370269 0.159443
H15   H     H_    0.070403 0.838808 0.629739 0.167999
H16   H     H_    0.563088 0.722600 0.546783 0.153427
H17   H     H_    0.436252 0.277168 0.453822 0.172675
H18   H     H_    0.259437 0.859987 0.326423 0.182297
N1    N     N_R   0.585750 0.204560 0.560800 -0.293402
N2    N     N_R   0.414250 0.795440 0.439200 -0.286625
O1    O     O_R   0.454850 0.022100 0.338110 -0.506594
O2    O     O_R   0.545150 0.977900 0.661890 -0.504727
O3    O     O_R   0.512700 0.160150 0.379180 -0.514397
O4    O     O_R   0.487300 0.839850 0.620820 -0.510205
O5    O     O_R   0.287930 0.931000 0.479440 -0.481556
O6    O     O_R   0.712070 0.069000 0.520560 -0.486591
O7    O     O_R   0.345780 0.069050 0.520520 -0.460686
O8    O     O_R   0.654220 0.930950 0.479480 -0.461853

loop_
_geom_bond_atom_site_label_1
_geom_bond_atom_site_label_2
_ccdc_geom_bond_type
C38   C40   A    
C6    C45   A    
C27   C29   S    
C34   C37   A    
C1    O1    A    
C14   C18   A    
C30   H15   S    
C39   C41   A    
C4    C46   A    
C27   C33   S    
C15   C19   A    
C18   C25   A    
C23   C42   A    
Cu2   O3    S    
C24   C26   A    
Cu1   N2    S    
C17   O6    A    
C11   C14   A    
C23   H11   S    
C9    H2    S    
C42   C46   A    
Cu2   O2    S    
C12   C37   S    
C19   C26   A    
C3    F7    S    
C20   C24   A    
C28   C35   S    
C22   C25   A    
C12   O2    A    
C34   H1    S    
C13   N2    A    
C10   H18   S    
C39   C45   A    
C21   C22   A    
C4    F8    S    
C35   F6    S    
Cu2   N1    S    
C25   H12   S    
C42   C44   A    
Cu1   O4    S    
C27   F3    S    
C33   F5    S    
C8    C19   A    
C32   C35   S    
C14   C20   A    
C36   C40   A    
C7    F1    S    
C4    C6    A    
C11   H17   S    
C22   H3    S    
C16   O7    A    
C2    C46   A    
C38   C44   A    
Cu1   Cu2   S    
C38   H9    S    
C2    C43   A    
C24   H4    S    
C7    C18   A    
C31   C33   S    
C5    H5    S    
Cu1   O8    S    
C43   C45   A    
C5    C44   A    
C13   C15   A    
C17   C31   S    
C39   H10   S    
Cu1   O1    S    
C8    F2    S    
C29   H14   S    
C7    C9    A    
C30   C33   S    
C27   C32   S    
C10   N2    A    
C28   C31   S    
C34   C43   A    
C3    C5    A    
C13   H16   S    
C16   C32   S    
C29   C35   S    
C40   H8    S    
Cu2   O7    S    
C17   O8    A    
C6    H6    S    
C28   C30   S    
C2    C3    A    
C29   C31   S    
C11   N1    A    
C30   C32   S    
C28   F4    S    
C1    O3    A    
C12   O4    A    
C16   O5    A    
Cu2   O6    S    
Cu1   O5    S    
C37   C41   A    
C15   C21   A    
C20   C21   A    
C8    C10   A    
C23   C36   A    
C26   H13   S    
C41   H7    S    
C9    N1    A    
C1    C36   S    
