data_mof_unit_19832.cif
_audit_creation_date              2012-12-10T18:04:35-0500
_audit_creation_method            fapswitch 2.2
_symmetry_space_group_name_H-M    P1
_symmetry_Int_Tables_number       1
_space_group_crystal_system       triclinic
_cell_length_a                    18.974971
_cell_length_b                    18.284561
_cell_length_c                    12.668504
_cell_angle_alpha                 88.588064
_cell_angle_beta                  99.828736
_cell_angle_gamma                 89.873322
_cell_volume                      4329.40538918

loop_
_atom_site_label
_atom_site_type_symbol
_atom_type_description
_atom_site_fract_x
_atom_site_fract_y
_atom_site_fract_z
_atom_type_partial_charge
C1    C     C_R   0.411118 0.102603 0.443578 0.877100
C2    C     C_R   0.417197 0.893160 0.449675 0.883774
C3    C     C_R   0.911122 0.602604 0.443580 0.877129
C4    C     C_R   0.917204 0.393156 0.449684 0.883802
C5    C     C_R   0.756807 0.208496 0.552067 0.077415
C6    C     C_R   0.730745 0.760514 0.541728 0.096880
C7    C     C_R   0.256830 0.708467 0.552064 0.077401
C8    C     C_R   0.230761 0.260531 0.541752 0.096906
C9    C     C_R   0.769478 0.236577 0.658269 0.095615
C10   C     C_R   0.768033 0.759747 0.649379 0.123163
C11   C     C_R   0.269527 0.736527 0.658278 0.095606
C12   C     C_R   0.268037 0.259743 0.649407 0.123053
C13   C     C_R   0.333236 0.775023 0.693241 -0.025554
C14   C     C_R   0.340087 0.236677 0.670337 -0.014940
C15   C     C_R   0.833173 0.275093 0.693244 -0.025570
C16   C     C_R   0.840086 0.736695 0.670304 -0.014937
C17   C     C_R   0.375592 0.794440 0.617976 -0.206952
C18   C     C_R   0.370522 0.211366 0.585279 -0.211537
C19   C     C_R   0.875561 0.294473 0.618005 -0.206955
C20   C     C_R   0.870518 0.711378 0.585251 -0.211535
C21   C     C_R   0.703649 0.156391 0.529515 -0.173065
C22   C     C_R   0.672930 0.807432 0.514882 -0.189297
C23   C     C_R   0.203660 0.656375 0.529511 -0.173098
C24   C     C_R   0.172957 0.307459 0.514901 -0.189320
C25   C     C_R   0.658754 0.181375 0.691813 -0.108870
C26   C     C_R   0.669443 0.826946 0.701120 -0.157612
C27   C     C_R   0.158797 0.681346 0.691838 -0.108798
C28   C     C_R   0.169440 0.326939 0.701139 -0.157452
C29   C     C_R   0.384683 0.820979 0.430140 -0.120003
C30   C     C_R   0.356338 0.157892 0.407472 -0.124468
C31   C     C_R   0.884699 0.320971 0.430171 -0.120018
C32   C     C_R   0.856339 0.657886 0.407465 -0.124550
C33   C     C_R   0.644842 0.010357 0.136110 0.010206
C34   C     C_R   0.144844 0.510329 0.136112 0.010202
C35   C     C_R   0.376453 0.998869 0.757067 -0.092169
C36   C     C_R   0.876452 0.498911 0.757061 -0.092205
C37   C     C_R   0.346476 0.014662 0.846142 0.301351
C38   C     C_R   0.846478 0.514741 0.846127 0.301342
C39   C     C_R   0.589692 0.898191 0.557081 0.893260
C40   C     C_R   0.591839 0.099249 0.556723 0.893273
C41   C     C_R   0.089696 0.398195 0.557086 0.893275
C42   C     C_R   0.091843 0.599247 0.556727 0.893258
C43   C     C_R   0.390915 0.025453 0.944901 0.328121
C44   C     C_R   0.890917 0.525516 0.944892 0.328159
C45   C     C_R   0.466757 0.020274 0.952447 -0.150375
C46   C     C_R   0.966759 0.520300 0.952445 -0.150440
C47   C     C_R   0.494569 0.014175 0.855337 0.027616
C48   C     C_R   0.994571 0.514176 0.855337 0.027586
C49   C     C_R   0.517524 0.018810 0.050216 -0.040370
C50   C     C_R   0.017526 0.518826 0.050217 -0.040399
C51   C     C_R   0.591338 0.029084 0.046906 -0.033713
C52   C     C_R   0.091345 0.529070 0.046908 -0.033707
C53   C     C_R   0.609612 0.053693 0.952012 0.321320
C54   C     C_R   0.109627 0.553670 0.952015 0.321363
C55   C     C_R   0.569020 0.029822 0.858870 0.309808
C56   C     C_R   0.069028 0.529806 0.858873 0.309742
C57   C     C_R   0.500307 0.002114 0.150441 0.014683
C58   C     C_R   0.000304 0.502145 0.150442 0.014686
C59   C     C_R   0.622710 0.000677 0.233624 0.010963
C60   C     C_R   0.122709 0.500652 0.233623 0.010892
C61   C     C_R   0.719947 0.221363 0.727267 -0.172743
C62   C     C_R   0.734008 0.789418 0.729477 -0.187450
C63   C     C_R   0.220005 0.721316 0.727290 -0.172661
C64   C     C_R   0.234003 0.289404 0.729504 -0.187376
C65   C     C_R   0.651111 0.147833 0.593005 -0.073899
C66   C     C_R   0.642809 0.841619 0.592784 -0.064571
C67   C     C_R   0.151130 0.647818 0.593015 -0.073944
C68   C     C_R   0.142821 0.341631 0.592799 -0.064571
C69   C     C_R   0.385472 0.788707 0.332091 -0.264318
C70   C     C_R   0.320311 0.156712 0.301657 -0.286409
C71   C     C_R   0.885500 0.288687 0.332136 -0.264351
C72   C     C_R   0.820313 0.656680 0.301657 -0.286271
C73   C     C_R   0.342610 0.728966 0.302690 0.003841
C74   C     C_R   0.250645 0.183543 0.275651 -0.021479
C75   C     C_R   0.842622 0.228959 0.302722 0.003824
C76   C     C_R   0.750641 0.683478 0.275647 -0.021675
C77   C     C_R   0.290311 0.708944 0.364355 0.307764
C78   C     C_R   0.216417 0.209631 0.357292 0.314569
C79   C     C_R   0.790309 0.208955 0.364375 0.307742
C80   C     C_R   0.716406 0.709588 0.357269 0.314638
C81   C     C_R   0.299102 0.731511 0.474347 -0.014132
C82   C     C_R   0.257709 0.223682 0.460433 -0.011821
C83   C     C_R   0.799094 0.231528 0.474365 -0.014127
C84   C     C_R   0.757695 0.723662 0.460410 -0.011839
C85   C     C_R   0.353417 0.782673 0.508066 0.023728
C86   C     C_R   0.328799 0.198575 0.483976 0.028553
C87   C     C_R   0.853412 0.282683 0.508093 0.023757
C88   C     C_R   0.828792 0.698570 0.483957 0.028550
H1    H     H_    0.619443 0.173628 0.743745 0.193559
H2    H     H_    0.644396 0.849520 0.763517 0.190514
H3    H     H_    0.119492 0.673601 0.743781 0.193572
H4    H     H_    0.144380 0.349496 0.763537 0.190521
H5    H     H_    0.447400 0.988588 0.163057 0.185808
H6    H     H_    0.947390 0.488653 0.163060 0.185785
H7    H     H_    0.342281 0.991145 0.680665 0.192128
H8    H     H_    0.842278 0.491196 0.680659 0.192105
H9    H     H_    0.726773 0.240302 0.808138 0.160369
H10   H     H_    0.757827 0.787377 0.813147 0.144940
H11   H     H_    0.226847 0.740256 0.808163 0.160341
H12   H     H_    0.257810 0.287340 0.813181 0.144994
H13   H     H_    0.704319 0.119113 0.465759 0.205538
H14   H     H_    0.655299 0.822933 0.431853 0.201539
H15   H     H_    0.204315 0.619104 0.465745 0.205568
H16   H     H_    0.155340 0.322970 0.431871 0.201468
H17   H     H_    0.419554 0.809683 0.278010 0.185532
H18   H     H_    0.343675 0.128838 0.241558 0.229957
H19   H     H_    0.919595 0.309652 0.278066 0.185552
H20   H     H_    0.843679 0.628794 0.241570 0.230063
H21   H     H_    0.426641 0.819570 0.646432 0.181002
H22   H     H_    0.427414 0.199553 0.599688 0.158094
H23   H     H_    0.926606 0.319602 0.646482 0.181001
H24   H     H_    0.927411 0.699572 0.599656 0.158086
H25   H     H_    0.660433 0.990482 0.306793 0.126112
H26   H     H_    0.160431 0.490441 0.306791 0.126106
N1    N     N_R   0.552340 0.000000 0.237260 -0.124956
N2    N     N_R   0.052340 0.500000 0.237260 -0.124946
N3    N     N_R   0.448170 0.000000 0.762060 -0.128933
N4    N     N_R   0.948170 0.500000 0.762060 -0.128927
O1    O     O_R   0.448200 0.076800 0.373930 -0.593504
O2    O     O_R   0.448200 0.923200 0.373930 -0.618932
O3    O     O_R   0.948200 0.576800 0.373930 -0.593528
O4    O     O_R   0.948200 0.423200 0.373930 -0.618936
O5    O     O_R   0.414750 0.076790 0.542400 -0.610451
O6    O     O_R   0.414750 0.923210 0.542400 -0.628361
O7    O     O_R   0.914750 0.576790 0.542400 -0.610451
O8    O     O_R   0.914750 0.423210 0.542400 -0.628371
O9    O     O_R   0.585240 0.923200 0.457600 -0.635254
O10   O     O_R   0.585240 0.076800 0.457600 -0.600326
O11   O     O_R   0.085240 0.423200 0.457600 -0.635262
O12   O     O_R   0.085240 0.576800 0.457600 -0.600310
O13   O     O_R   0.551780 0.923190 0.626070 -0.568355
O14   O     O_R   0.551780 0.076810 0.626070 -0.575814
O15   O     O_R   0.051780 0.423190 0.626070 -0.568377
O16   O     O_R   0.051780 0.576810 0.626070 -0.575804
Zn1   Zn    Zn3+2 0.522330 0.000000 0.387520 0.977117
Zn2   Zn    Zn3+2 0.022330 0.500000 0.387520 0.977104
Zn3   Zn    Zn3+2 0.477660 0.000000 0.612480 0.982771
Zn4   Zn    Zn3+2 0.977660 0.500000 0.612480 0.982745
Cl1   Cl    Cl    0.688126 0.104562 0.949437 -0.636548
Cl2   Cl    Cl    0.188157 0.604515 0.949449 -0.636509
C89   C     C_R   0.718371 0.984889 0.126436 0.158155
C90   C     C_R   0.728075 0.937524 0.043872 -0.101896
C91   C     C_R   0.795621 0.908773 0.038381 -0.110616
C92   C     C_R   0.854036 0.925204 0.116797 -0.114304
C93   C     C_R   0.844931 0.970417 0.200726 -0.137952
C94   C     C_R   0.777767 0.000556 0.205346 -0.111903
H27   H     H_    0.683011 0.921069 0.985226 0.141802
H28   H     H_    0.802351 0.872541 0.974485 0.141417
H29   H     H_    0.906176 0.902241 0.113207 0.132646
H30   H     H_    0.890036 0.982099 0.262504 0.136665
H31   H     H_    0.772244 0.035074 0.271499 0.160702
C95   C     C_R   0.218366 0.484841 0.126442 0.158051
C96   C     C_R   0.228057 0.437459 0.043894 -0.101951
C97   C     C_R   0.295591 0.408664 0.038434 -0.110331
C98   C     C_R   0.354008 0.425084 0.116854 -0.114362
C99   C     C_R   0.344919 0.470326 0.200755 -0.138014
C100  C     C_R   0.277766 0.500498 0.205352 -0.111878
H32   H     H_    0.182991 0.421023 0.985239 0.141750
H33   H     H_    0.302309 0.372414 0.974555 0.141412
H34   H     H_    0.406139 0.402090 0.113285 0.132638
H35   H     H_    0.390026 0.482002 0.262532 0.136660
H36   H     H_    0.272252 0.535033 0.271489 0.160720
Cl3   Cl    Cl    0.348464 0.056300 0.049219 -0.724402
Cl4   Cl    Cl    0.848466 0.556379 0.049205 -0.723960
Cl5   Cl    Cl    0.252666 0.022844 0.829679 -0.651539
Cl6   Cl    Cl    0.752670 0.522990 0.829651 -0.651199
Cl7   Cl    Cl    0.627465 0.993820 0.781334 -0.623209
Cl8   Cl    Cl    0.127469 0.493812 0.781323 -0.623209
C101  C     C_R   0.359771 0.794137 0.806804 0.098586
C102  C     C_R   0.429139 0.772515 0.856267 -0.174166
C103  C     C_R   0.456532 0.793579 0.960544 -0.117956
C104  C     C_R   0.414806 0.835505 0.017119 -0.116235
C105  C     C_R   0.345838 0.856935 0.969230 -0.138871
C106  C     C_R   0.319112 0.838095 0.863666 -0.169840
H37   H     H_    0.462083 0.739375 0.813999 0.128166
H38   H     H_    0.509775 0.776695 0.998014 0.154485
H39   H     H_    0.435877 0.851285 0.098031 0.133436
H40   H     H_    0.313616 0.889620 0.013116 0.191605
H41   H     H_    0.266985 0.858382 0.826097 0.176056
C107  C     C_R   0.387798 0.246611 0.775032 0.100144
C108  C     C_R   0.373626 0.211931 0.869356 -0.158698
C109  C     C_R   0.419226 0.222180 0.966946 -0.116939
C110  C     C_R   0.480320 0.265098 0.970714 -0.115119
C111  C     C_R   0.495670 0.298565 0.877103 -0.126480
C112  C     C_R   0.449620 0.289614 0.779764 -0.156924
H42   H     H_    0.327004 0.177659 0.867430 0.198956
H43   H     H_    0.407384 0.197004 0.039941 0.193772
H44   H     H_    0.515712 0.272480 0.046210 0.156327
H45   H     H_    0.543100 0.331743 0.880004 0.145117
H46   H     H_    0.462005 0.316476 0.708052 0.133243
C113  C     C_R   0.859644 0.294277 0.806796 0.098565
C114  C     C_R   0.929003 0.272708 0.856366 -0.174103
C115  C     C_R   0.956309 0.293802 0.960659 -0.118093
C116  C     C_R   0.914505 0.335703 0.017141 -0.116395
C117  C     C_R   0.845549 0.357086 0.969140 -0.138586
C118  C     C_R   0.818912 0.338224 0.863560 -0.169852
H47   H     H_    0.962002 0.239577 0.814180 0.128147
H48   H     H_    0.009539 0.276950 0.998222 0.154473
H49   H     H_    0.935507 0.351501 0.098066 0.133423
H50   H     H_    0.813267 0.389757 0.012951 0.191683
H51   H     H_    0.766790 0.358476 0.825906 0.175999
C119  C     C_R   0.887802 0.746651 0.774991 0.100110
C120  C     C_R   0.873640 0.711981 0.869328 -0.158698
C121  C     C_R   0.919240 0.722256 0.966915 -0.116921
C122  C     C_R   0.980321 0.765191 0.970668 -0.115133
C123  C     C_R   0.995660 0.798649 0.877043 -0.126455
C124  C     C_R   0.949611 0.789670 0.779705 -0.156901
H52   H     H_    0.827026 0.677701 0.867416 0.199023
H53   H     H_    0.907406 0.697088 0.039921 0.193761
H54   H     H_    0.015712 0.772595 0.046164 0.156310
H55   H     H_    0.043081 0.831839 0.879933 0.145156
H56   H     H_    0.961987 0.816525 0.707983 0.133262
Cl9   Cl    Cl    0.710698 0.173836 0.289878 -0.682568
Cl10  Cl    Cl    0.621291 0.706818 0.333273 -0.692397
Cl11  Cl    Cl    0.210707 0.673805 0.289865 -0.682499
Cl12  Cl    Cl    0.121303 0.206830 0.333333 -0.692275
C125  C     C_R   0.358353 0.686276 0.212124 0.108867
C126  C     C_R   0.419523 0.641142 0.228643 -0.142532
C127  C     C_R   0.442581 0.608012 0.142222 -0.121803
C128  C     C_R   0.404852 0.619795 0.038663 -0.109755
C129  C     C_R   0.344538 0.665224 0.021569 -0.022754
C130  C     C_R   0.320984 0.698426 0.107866 -0.042393
H57   H     H_    0.450223 0.632891 0.308381 0.169641
H58   H     H_    0.489921 0.573612 0.155518 0.149955
H59   H     H_    0.422915 0.594661 0.971477 0.135148
H60   H     H_    0.317003 0.675887 0.940777 0.173514
H61   H     H_    0.275402 0.735256 0.093030 0.171212
C131  C     C_R   0.212117 0.178712 0.164444 0.182544
C132  C     C_R   0.193177 0.242948 0.103155 -0.115974
C133  C     C_R   0.156993 0.238982 0.997662 -0.195234
C134  C     C_R   0.138477 0.170963 0.953448 -0.092677
C135  C     C_R   0.156302 0.106813 0.014656 -0.045284
C136  C     C_R   0.193332 0.110534 0.119770 -0.055025
H62   H     H_    0.206706 0.295863 0.137175 0.134168
H63   H     H_    0.142824 0.288606 0.950462 0.127436
H64   H     H_    0.110112 0.167997 0.871958 0.145592
H65   H     H_    0.141582 0.054176 0.980584 0.164984
H66   H     H_    0.207036 0.060519 0.166426 0.149859
C137  C     C_R   0.858344 0.186290 0.212124 0.108860
C138  C     C_R   0.919528 0.141177 0.228584 -0.142629
C139  C     C_R   0.942573 0.108082 0.142125 -0.121757
C140  C     C_R   0.904819 0.119883 0.038587 -0.109757
C141  C     C_R   0.844492 0.165295 0.021550 -0.022796
C142  C     C_R   0.820949 0.198459 0.107884 -0.042359
H67   H     H_    0.950249 0.132915 0.308305 0.169699
H68   H     H_    0.989923 0.073696 0.155378 0.150053
H69   H     H_    0.922872 0.094779 0.971371 0.135193
H70   H     H_    0.816939 0.175977 0.940773 0.173531
H71   H     H_    0.775360 0.235280 0.093092 0.171234
C143  C     C_R   0.712124 0.678577 0.164450 0.183081
C144  C     C_R   0.693561 0.742757 0.102861 -0.116555
C145  C     C_R   0.657408 0.738734 0.997361 -0.195108
C146  C     C_R   0.638565 0.670714 0.953432 -0.091686
C147  C     C_R   0.656024 0.606621 0.014936 -0.045480
C148  C     C_R   0.693015 0.610397 0.120066 -0.054757
H72   H     H_    0.707355 0.795674 0.136659 0.134186
H73   H     H_    0.643533 0.788315 0.949930 0.127414
H74   H     H_    0.610238 0.667701 0.871927 0.145585
H75   H     H_    0.641062 0.553986 0.981077 0.164152
H76   H     H_    0.706444 0.560431 0.166954 0.149312

loop_
_geom_bond_atom_site_label_1
_geom_bond_atom_site_label_2
_ccdc_geom_bond_type
C104  H39   S    
C34   C60   A    
C120  C121  A    
C71   H19   S    
C101  C102  A    
C14   C18   A    
C53   C55   A    
C60   H26   S    
C137  C138  A    
C55   Cl7   S    
C103  C104  A    
C69   H17   S    
C76   C143  S    
C41   O15   A    
C93   C94   A    
O11   Zn2   S    
C138  H67   S    
C144  C145  A    
C57   N1    A    
C108  C109  A    
C104  C105  A    
C15   C19   A    
C18   C86   A    
N1    Zn1   S    
C13   C17   A    
C2    C29   S    
C9    C61   A    
C105  H40   S    
C1    C30   S    
C99   C100  A    
C28   C68   A    
O9    Zn1   S    
N4    Zn4   S    
C11   C63   A    
C146  C147  A    
C12   C64   A    
C5    C21   A    
C102  C103  A    
C38   C44   A    
C91   C92   A    
C6    C22   A    
C125  C130  A    
C49   C57   A    
C111  C112  A    
C48   C56   A    
C139  C140  A    
C1    O1    A    
C23   C67   A    
C96   H32   S    
C78   C82   A    
C109  C110  A    
C128  C129  A    
C63   H11   S    
C127  H58   S    
C62   H10   S    
C47   N3    A    
C75   C137  S    
C146  H74   S    
C54   Cl2   S    
C72   H20   S    
C44   C46   A    
C49   C51   A    
C121  H53   S    
C70   C74   A    
C3    C32   S    
C50   C52   A    
C101  C106  A    
C27   H3    S    
C137  C142  A    
C77   C81   A    
C8    C12   A    
C30   C86   A    
C36   N4    A    
C29   C85   A    
C93   H30   S    
C72   C76   A    
C43   Cl3   S    
C21   H13   S    
C46   C50   A    
C31   C71   A    
C116  C117  A    
C40   O14   A    
O15   Zn4   S    
C33   C59   A    
C20   H24   S    
C58   N2    A    
C10   C62   A    
O12   Zn2   S    
C17   C85   A    
C16   C119  S    
C123  H55   S    
C21   C65   A    
C131  C132  A    
C30   C70   A    
C52   C54   A    
C145  H73   S    
C41   C68   S    
C29   C69   A    
C102  H37   S    
C45   C47   A    
C35   N3    A    
C91   H28   S    
C23   H15   S    
C71   C75   A    
C6    C84   A    
C119  C120  A    
C73   C125  S    
C139  H68   S    
C26   C66   A    
C84   C88   A    
O6    Zn3   S    
C126  H57   S    
C31   C87   A    
C32   C72   A    
C142  H71   S    
O10   Zn1   S    
C74   C131  S    
C127  C128  A    
C34   C95   S    
C123  C124  A    
C92   C93   A    
C37   Cl5   S    
C117  C118  A    
C100  H36   S    
C33   C89   S    
O14   Zn3   S    
C122  C123  A    
N3    Zn3   S    
C129  H60   S    
O1    Zn1   S    
C33   C51   A    
C113  C114  A    
C24   H16   S    
C39   O9    A    
C50   C58   A    
C37   C43   A    
C7    C11   A    
C136  H66   S    
C1    O5    A    
C5    C83   A    
C5    C9    A    
C132  C133  A    
O13   Zn3   S    
C129  C130  A    
C36   H8    S    
C116  H49   S    
C45   C49   A    
C16   C20   A    
C126  C127  A    
C56   Cl8   S    
C140  C141  A    
C97   C98   A    
C4    O4    A    
C133  H63   S    
C28   H4    S    
C25   C61   A    
C114  H47   S    
C95   C96   A    
C69   C73   A    
C43   C45   A    
O4    Zn2   S    
C131  C136  A    
C134  H64   S    
C79   Cl9   S    
C27   C63   A    
C89   C94   A    
C28   C64   A    
C122  H54   S    
C7    C81   A    
C12   C14   A    
C99   H35   S    
C141  H70   S    
C35   H7    S    
C40   C65   S    
C70   H18   S    
C135  H65   S    
O7    Zn4   S    
C39   C66   S    
C8    C82   A    
C60   N2    A    
C32   C88   A    
C76   C80   A    
C113  C118  A    
C78   Cl12  S    
C134  C135  A    
C107  C108  A    
C77   Cl11  S    
C47   C55   A    
C117  H50   S    
C120  H52   S    
C42   O12   A    
C143  C148  A    
C38   Cl6   S    
C15   C113  S    
C148  H76   S    
O8    Zn4   S    
C2    O2    A    
C2    O6    A    
C92   H29   S    
C35   C37   A    
C98   H34   S    
C53   Cl1   S    
C25   H1    S    
C90   H27   S    
C61   H9    S    
C18   H22   S    
C59   H25   S    
C17   H21   S    
C83   C87   A    
C6    C10   A    
C48   N4    A    
C108  H42   S    
C3    O7    A    
C54   C56   A    
C22   C66   A    
C115  H48   S    
N2    Zn2   S    
C19   H23   S    
O16   Zn4   S    
C26   H2    S    
C103  H38   S    
O5    Zn3   S    
C34   C52   A    
C140  H69   S    
C22   H14   S    
C82   C86   A    
C4    O8    A    
C119  C124  A    
O2    Zn1   S    
C114  C115  A    
C147  C148  A    
C36   C38   A    
C58   H6    S    
C19   C87   A    
C97   H33   S    
C10   C16   A    
C110  H44   S    
C80   C84   A    
C41   O11   A    
C11   C13   A    
C80   Cl10  S    
C144  H72   S    
C42   C67   S    
C132  H62   S    
C39   O13   A    
C130  H61   S    
C42   O16   A    
C7    C23   A    
C26   C62   A    
C20   C88   A    
C125  C126  A    
C13   C101  S    
C138  C139  A    
C8    C24   A    
C112  H46   S    
C128  H59   S    
C95   C100  A    
C109  H43   S    
C124  H56   S    
O3    Zn2   S    
C9    C15   A    
C133  C134  A    
C110  C111  A    
C81   C85   A    
C143  C144  A    
C4    C31   S    
C27   C67   A    
C107  C112  A    
C24   C68   A    
C105  C106  A    
C94   H31   S    
C79   C83   A    
C46   C48   A    
C3    O3    A    
C64   H12   S    
C147  H75   S    
C121  C122  A    
C59   N1    A    
C115  C116  A    
C74   C78   A    
C98   C99   A    
C25   C65   A    
C73   C77   A    
C90   C91   A    
C57   H5    S    
C44   Cl4   S    
C51   C53   A    
C118  H51   S    
C89   C90   A    
C75   C79   A    
C106  H41   S    
C111  H45   S    
C14   C107  S    
C141  C142  A    
C135  C136  A    
C145  C146  A    
C96   C97   A    
C40   O10   A    
