data_mof_unit_36526.cif
_audit_creation_date              2012-12-10T19:46:47-0500
_audit_creation_method            fapswitch 2.2
_symmetry_space_group_name_H-M    P1
_symmetry_Int_Tables_number       1
_space_group_crystal_system       triclinic
_cell_length_a                    18.873249
_cell_length_b                    18.87626
_cell_length_c                    32.584518
_cell_angle_alpha                 89.995149
_cell_angle_beta                  89.997347
_cell_angle_gamma                 90.015036
_cell_volume                      11608.4411638

loop_
_atom_site_label
_atom_site_type_symbol
_atom_type_description
_atom_site_fract_x
_atom_site_fract_y
_atom_site_fract_z
_atom_type_partial_charge
C1    C     C_R   0.500005 0.999991 0.896302 0.486087
C2    C     C_1   0.500039 0.999959 0.768888 -0.017680
C3    C     C_3   0.280746 0.342033 0.443183 0.292161
C4    C     C_3   0.663545 0.719084 0.438873 0.299029
C5    C     C_3   0.719094 0.336462 0.438866 0.299052
C6    C     C_3   0.336465 0.280934 0.438872 0.299024
C7    C     C_3   0.280915 0.663558 0.438866 0.299046
C8    C     C_1   0.500002 0.999993 0.148964 -0.022381
C9    C     C_1   0.999995 0.500002 0.148965 -0.021865
C10   C     C_1   0.000014 0.499982 0.648961 -0.022518
C11   C     C_1   0.500003 0.999986 0.648970 -0.022853
C12   C     C_1   0.500002 0.999994 0.186678 -0.052460
C13   C     C_1   0.500002 0.000001 0.268878 -0.016024
C14   C     C_1   0.999995 0.500003 0.186679 -0.052552
C15   C     C_1   0.000026 0.499964 0.686673 -0.052911
C16   C     C_1   0.500015 0.999975 0.686685 -0.053530
C17   C     C_3   0.377725 0.727903 0.056011 -0.234046
C18   C     C_3   0.357025 0.773185 0.093113 -0.404182
C19   C     C_3   0.271728 0.377764 0.056312 -0.235354
C20   C     C_3   0.226071 0.357908 0.093431 -0.405636
C21   C     C_3   0.622947 0.271317 0.056628 -0.234330
C22   C     C_3   0.643791 0.225327 0.093412 -0.404198
C23   C     C_3   0.729693 0.623645 0.057673 -0.236085
C24   C     C_1   0.999999 0.500002 0.268878 -0.016041
C25   C     C_3   0.776625 0.643850 0.094179 -0.406516
C26   C     C_3   0.398328 0.287902 0.037107 -0.236175
C27   C     C_3   0.406349 0.263734 0.081831 -0.399636
C28   C     C_3   0.288022 0.601247 0.036688 -0.237063
C29   C     C_3   0.263651 0.593758 0.081418 -0.398133
C30   C     C_3   0.602577 0.712770 0.038403 -0.235980
C31   C     C_3   0.594949 0.738118 0.082928 -0.399647
C32   C     C_3   0.712248 0.398337 0.037417 -0.237237
C33   C     C_3   0.737175 0.405589 0.082053 -0.398537
C34   C     C_3   0.874140 0.231918 0.559192 -0.235404
C35   C     C_1   0.000042 0.499949 0.813355 -0.049717
C36   C     C_3   0.852621 0.280519 0.594688 -0.407266
C37   C     C_3   0.767981 0.873994 0.559281 -0.235405
C38   C     C_3   0.719249 0.852436 0.594722 -0.407512
C39   C     C_3   0.125870 0.768047 0.559206 -0.235401
C40   C     C_3   0.147391 0.719421 0.594693 -0.407248
C41   C     C_3   0.231993 0.125971 0.559268 -0.235452
C42   C     C_3   0.280704 0.147512 0.594716 -0.407418
C43   C     C_3   0.896106 0.786238 0.540188 -0.235390
C44   C     C_3   0.902706 0.758950 0.584390 -0.400204
C45   C     C_3   0.786312 0.103824 0.540081 -0.235359
C46   C     C_1   0.500036 0.999963 0.813369 -0.060353
C47   C     C_3   0.759118 0.097156 0.584301 -0.400189
C48   C     C_3   0.103877 0.213745 0.540178 -0.235384
C49   C     C_3   0.097268 0.241007 0.584382 -0.400248
C50   C     C_3   0.213690 0.896154 0.540094 -0.235374
C51   C     C_3   0.240892 0.902804 0.584311 -0.400182
C52   C     C_3   0.090678 0.798525 0.885890 0.022592
C53   C     C_3   0.083382 0.767467 0.843058 -0.356301
C54   C     C_3   0.212535 0.089150 0.885285 0.014193
C55   C     C_3   0.251302 0.079633 0.844754 -0.355682
C56   C     C_3   0.910080 0.205128 0.886004 0.021848
C57   C     C_1   0.500001 0.000005 0.313360 -0.052986
C58   C     C_3   0.914849 0.235749 0.842951 -0.355967
C59   C     C_3   0.758070 0.921911 0.888518 -0.005092
C60   C     C_3   0.739651 0.918949 0.843105 -0.366358
C61   C     C_3   0.107755 0.248166 0.874977 -0.009141
C62   C     C_3   0.129660 0.262728 0.830880 -0.364119
C63   C     C_3   0.310983 0.854205 0.891328 0.001373
C64   C     C_3   0.324792 0.853925 0.845362 -0.380702
C65   C     C_3   0.877387 0.777793 0.871041 0.012855
C66   C     C_3   0.851901 0.752162 0.829322 -0.356477
C67   C     C_3   0.689384 0.148164 0.891002 0.000362
C68   C     C_1   0.000002 0.500001 0.313359 -0.053000
C69   C     C_3   0.675485 0.148902 0.845049 -0.380342
C70   C     C_3   0.580259 0.250992 0.387413 -0.011172
C71   C     C_3   0.584840 0.229673 0.342451 -0.365140
C72   C     C_3   0.749029 0.580306 0.387416 -0.011160
C73   C     C_3   0.770388 0.584912 0.342459 -0.365153
C74   C     C_3   0.419758 0.749043 0.387414 -0.011171
C75   C     C_3   0.415185 0.770378 0.342452 -0.365133
C76   C     C_3   0.250989 0.419728 0.387416 -0.011168
C77   C     C_3   0.229640 0.415136 0.342458 -0.365134
C78   C     C_3   0.626288 0.720655 0.369391 0.014639
C79   C     C_1   0.000030 0.499975 0.851063 -0.009584
C80   C     C_3   0.648011 0.749934 0.327770 -0.357025
C81   C     C_3   0.720660 0.373757 0.369388 0.014642
C82   C     C_3   0.749920 0.352060 0.327763 -0.357009
C83   C     C_3   0.373736 0.279386 0.369391 0.014630
C84   C     C_3   0.352022 0.250121 0.327770 -0.357010
C85   C     C_3   0.279359 0.626286 0.369387 0.014638
C86   C     C_3   0.250105 0.647997 0.327763 -0.357008
C87   C     C_3   0.093208 0.807243 0.975965 -0.265888
C88   C     C_3   0.101404 0.799825 0.023204 -0.453475
C89   C     C_3   0.192677 0.091595 0.974855 -0.270922
C90   C     C_1   0.500023 0.999973 0.851074 -0.027279
C91   C     C_3   0.198591 0.098404 0.022293 -0.452446
C92   C     C_3   0.906964 0.193455 0.975934 -0.266967
C93   C     C_3   0.898677 0.200108 0.023212 -0.453448
C94   C     C_3   0.804922 0.908497 0.971222 -0.274765
C95   C     C_3   0.803568 0.902287 0.018836 -0.447489
C96   C     C_3   0.084171 0.204995 0.956740 -0.266175
C97   C     C_3   0.073312 0.202234 0.003666 -0.437598
C98   C     C_3   0.204687 0.915485 0.956604 -0.241313
C99   C     C_3   0.204159 0.926404 0.003467 -0.440463
C100  C     C_3   0.915402 0.795068 0.956221 -0.255911
C101  C     C_1   0.500001 0.000006 0.351067 -0.011797
C102  C     C_3   0.927888 0.796460 0.003056 -0.438632
C103  C     C_3   0.796142 0.085306 0.955711 -0.239381
C104  C     C_3   0.796579 0.073433 0.002447 -0.438769
C105  C     C_3   0.591570 0.303341 0.469326 -0.271586
C106  C     C_3   0.596679 0.302361 0.517018 -0.446736
C107  C     C_3   0.696598 0.591560 0.469317 -0.271579
C108  C     C_3   0.697561 0.596631 0.517010 -0.446727
C109  C     C_3   0.408433 0.696666 0.469326 -0.271571
C110  C     C_3   0.403317 0.697633 0.517018 -0.446747
C111  C     C_3   0.303405 0.408448 0.469317 -0.271582
C112  C     C_R   0.000010 0.499997 0.896301 0.495009
C113  C     C_1   0.000003 0.500001 0.351066 -0.011820
C114  C     C_3   0.302434 0.403362 0.517010 -0.446727
C115  C     C_3   0.586826 0.705094 0.454150 -0.256392
C116  C     C_3   0.573645 0.702232 0.500785 -0.437459
C117  C     C_3   0.705110 0.413158 0.454150 -0.256349
C118  C     C_3   0.702264 0.426322 0.500785 -0.437384
C119  C     C_3   0.413180 0.294917 0.454151 -0.256406
C120  C     C_3   0.426353 0.297764 0.500787 -0.437449
C121  C     C_3   0.294896 0.586856 0.454148 -0.256349
C122  C     C_3   0.297737 0.573676 0.500783 -0.437395
C123  C     C_R   0.500001 0.999997 0.103720 0.480960
C124  C     C_R   0.999998 0.500001 0.103722 0.479259
C125  C     C_R   0.000002 0.499996 0.603719 0.478684
C126  C     C_R   0.499999 0.999998 0.603724 0.478659
C127  C     C_R   0.637521 0.856868 0.998459 0.522512
C128  C     C_R   0.143211 0.637512 0.998334 0.517148
C129  C     C_R   0.362398 0.143055 0.998520 0.521963
C130  C     C_R   0.856812 0.362504 0.998404 0.519484
C131  C     C_R   0.638582 0.142595 0.999177 0.499328
C132  C     C_R   0.000001 0.500000 0.396300 0.500028
C133  C     C_R   0.142490 0.361428 0.999225 0.514255
C134  C     C_R   0.361498 0.857359 0.999130 0.497858
C135  C     C_R   0.857654 0.638700 0.999420 0.517127
C136  C     C_R   0.137458 0.356837 0.498482 0.522821
C137  C     C_R   0.643170 0.137446 0.498474 0.522751
C138  C     C_R   0.862542 0.643161 0.498483 0.522805
C139  C     C_R   0.356830 0.862555 0.498476 0.522741
C140  C     C_R   0.138741 0.642344 0.499384 0.518651
C141  C     C_R   0.642346 0.861255 0.499390 0.518667
C142  C     C_R   0.861262 0.357653 0.499383 0.518655
C143  C     C_R   0.500000 0.000002 0.396301 0.499976
C144  C     C_R   0.357652 0.138746 0.499389 0.518690
C145  C     C_R   0.262110 0.789593 0.966141 -0.029307
C146  C     C_R   0.208574 0.259624 0.967948 0.027808
C147  C     C_R   0.738000 0.210667 0.966246 -0.030629
C148  C     C_R   0.791734 0.740583 0.968668 0.033137
C149  C     C_R   0.257752 0.206934 0.969660 0.046844
C150  C     C_R   0.208536 0.740772 0.967888 0.046450
C151  C     C_R   0.741365 0.792060 0.969079 0.042040
C152  C     C_R   0.791503 0.259457 0.968183 0.046711
C153  C     C_R   0.760494 0.290375 0.467738 0.033474
C154  C     C_1   0.500002 0.999998 0.231166 -0.014596
C155  C     C_R   0.709629 0.760482 0.467755 0.033517
C156  C     C_R   0.239511 0.709636 0.467738 0.033468
C157  C     C_R   0.290375 0.239527 0.467753 0.033514
C158  C     C_R   0.759649 0.708616 0.468732 0.042749
C159  C     C_R   0.708626 0.240337 0.468708 0.042773
C160  C     C_R   0.240355 0.291393 0.468730 0.042752
C161  C     C_R   0.291378 0.759674 0.468710 0.042787
C162  C     C_R   0.314423 0.793433 0.996243 -0.036143
C163  C     C_R   0.205816 0.313771 0.996882 -0.023031
C164  C     C_R   0.685800 0.206448 0.996431 -0.036119
C165  C     C_1   0.999997 0.500003 0.231167 -0.014700
C166  C     C_R   0.794574 0.686612 0.997548 -0.019760
C167  C     C_R   0.315414 0.206629 0.995723 -0.012697
C168  C     C_R   0.207324 0.683970 0.994828 -0.012464
C169  C     C_R   0.684403 0.793182 0.995699 -0.013511
C170  C     C_R   0.792732 0.316068 0.995124 -0.011521
C171  C     C_R   0.813365 0.294497 0.497424 -0.020324
C172  C     C_R   0.705488 0.813336 0.497449 -0.020325
C173  C     C_R   0.186640 0.705500 0.497426 -0.020320
C174  C     C_R   0.294508 0.186662 0.497445 -0.020333
C175  C     C_R   0.815713 0.706883 0.495909 -0.011401
C176  C     C_1   0.000039 0.499943 0.731161 -0.014700
C177  C     C_R   0.706912 0.184260 0.495876 -0.011398
C178  C     C_R   0.184285 0.293115 0.495907 -0.011406
C179  C     C_R   0.293090 0.815740 0.495880 -0.011397
C180  C     C_R   0.321233 0.731476 0.022318 -0.000369
C181  C     C_R   0.267935 0.320820 0.022888 -0.006503
C182  C     C_R   0.679134 0.268151 0.022752 -0.000418
C183  C     C_R   0.732832 0.679949 0.023844 -0.007363
C184  C     C_R   0.325568 0.270455 0.019167 -0.007037
C185  C     C_R   0.270948 0.673855 0.018453 -0.006134
C186  C     C_R   0.675011 0.730096 0.019981 -0.006345
C187  C     C_1   0.500031 0.999964 0.731176 -0.015787
C188  C     C_R   0.729294 0.325905 0.018940 -0.006342
C189  C     C_R   0.819236 0.233691 0.524528 -0.006945
C190  C     C_R   0.766258 0.819157 0.524586 -0.006961
C191  C     C_R   0.180769 0.766292 0.524535 -0.006941
C192  C     C_R   0.233729 0.180827 0.524578 -0.006963
C193  C     C_R   0.824297 0.769291 0.520834 -0.006531
C194  C     C_R   0.769354 0.175652 0.520770 -0.006544
C195  C     C_R   0.175692 0.230697 0.520828 -0.006527
C196  C     C_R   0.230648 0.824335 0.520778 -0.006560
C197  C     C_3   0.155790 0.786555 0.946894 0.312787
C198  C     C_1   0.000044 0.499936 0.768872 -0.014931
C199  C     C_3   0.214499 0.154990 0.946679 0.298451
C200  C     C_3   0.844388 0.214534 0.946913 0.312389
C201  C     C_3   0.783310 0.842763 0.944283 0.290729
C202  C     C_3   0.160984 0.217442 0.940307 0.290633
C203  C     C_3   0.218341 0.839742 0.940568 0.284682
C204  C     C_3   0.838846 0.781390 0.940334 0.299588
C205  C     C_3   0.782071 0.161275 0.940248 0.286058
C206  C     C_3   0.657981 0.280725 0.443176 0.292152
C207  C     C_3   0.719263 0.657983 0.443184 0.292160
C208  C     C_3   0.342027 0.719293 0.443176 0.292159
H1    H     H_    0.401009 0.773366 0.115744 0.129188
H2    H     H_    0.258662 0.430707 0.043955 0.167484
H3    H     H_    0.778190 0.885483 0.826376 0.132928
H4    H     H_    0.071871 0.291879 0.884447 0.155053
H5    H     H_    0.079394 0.196731 0.875453 0.087207
H6    H     H_    0.164812 0.219838 0.819605 0.148757
H7    H     H_    0.081909 0.265178 0.811014 0.088988
H8    H     H_    0.158164 0.314109 0.828951 0.168076
H9    H     H_    0.345255 0.812944 0.905388 0.139704
H10   H     H_    0.326338 0.907195 0.902814 0.168030
H11   H     H_    0.292260 0.895392 0.830189 0.147543
H12   H     H_    0.381663 0.864977 0.839340 0.105666
H13   H     H_    0.599939 0.224812 0.116131 0.129669
H14   H     H_    0.311010 0.801393 0.832241 0.163226
H15   H     H_    0.933268 0.760903 0.874110 0.115476
H16   H     H_    0.874766 0.836474 0.872091 0.123404
H17   H     H_    0.794173 0.761735 0.825949 0.176917
H18   H     H_    0.880745 0.780613 0.804604 0.076053
H19   H     H_    0.861996 0.694436 0.826198 0.158118
H20   H     H_    0.655460 0.189636 0.905136 0.140939
H21   H     H_    0.673588 0.095283 0.902486 0.159771
H22   H     H_    0.708071 0.107714 0.829692 0.145943
H23   H     H_    0.618623 0.137818 0.839026 0.106970
H24   H     H_    0.655564 0.169977 0.084357 0.172439
H25   H     H_    0.689156 0.201602 0.832109 0.162625
H26   H     H_    0.561611 0.306821 0.389185 0.072928
H27   H     H_    0.541051 0.214957 0.401830 0.159146
H28   H     H_    0.605420 0.174744 0.339729 0.176152
H29   H     H_    0.531427 0.231964 0.328238 0.087083
H30   H     H_    0.620241 0.266226 0.325518 0.136730
H31   H     H_    0.693186 0.561642 0.389175 0.072930
H32   H     H_    0.785050 0.541108 0.401835 0.159131
H33   H     H_    0.825334 0.605501 0.339750 0.176137
H34   H     H_    0.768090 0.531513 0.328239 0.087070
H35   H     H_    0.691816 0.247439 0.108357 0.130594
H36   H     H_    0.733854 0.620308 0.325525 0.136730
H37   H     H_    0.438405 0.693213 0.389185 0.072922
H38   H     H_    0.458965 0.785073 0.401831 0.159160
H39   H     H_    0.394607 0.825309 0.339731 0.176159
H40   H     H_    0.468601 0.768091 0.328239 0.087080
H41   H     H_    0.379786 0.733832 0.325519 0.136731
H42   H     H_    0.306832 0.438392 0.389176 0.072931
H43   H     H_    0.214965 0.458921 0.401834 0.159125
H44   H     H_    0.174694 0.394547 0.339748 0.176150
H45   H     H_    0.231939 0.468540 0.328238 0.087077
H46   H     H_    0.613530 0.324710 0.068948 0.117683
H47   H     H_    0.266178 0.379746 0.325524 0.136743
H48   H     H_    0.569228 0.732295 0.373423 0.093610
H49   H     H_    0.633487 0.662437 0.369425 0.128868
H50   H     H_    0.705954 0.743659 0.323207 0.174131
H51   H     H_    0.619448 0.721249 0.303039 0.074467
H52   H     H_    0.634553 0.807134 0.325931 0.159364
H53   H     H_    0.732327 0.430808 0.373423 0.093618
H54   H     H_    0.662430 0.366551 0.369428 0.128852
H55   H     H_    0.743622 0.294127 0.323196 0.174148
H56   H     H_    0.721232 0.380624 0.303036 0.074469
H57   H     H_    0.569744 0.258218 0.044642 0.166579
H58   H     H_    0.807134 0.365526 0.325919 0.159366
H59   H     H_    0.430795 0.267746 0.373424 0.093609
H60   H     H_    0.366536 0.337604 0.369426 0.128870
H61   H     H_    0.294080 0.256396 0.323205 0.174146
H62   H     H_    0.380590 0.278814 0.303039 0.074487
H63   H     H_    0.365481 0.192921 0.325930 0.159370
H64   H     H_    0.267690 0.569234 0.373422 0.093621
H65   H     H_    0.337589 0.633490 0.369427 0.128852
H66   H     H_    0.256406 0.705932 0.323197 0.174150
H67   H     H_    0.278797 0.619441 0.303035 0.074482
H68   H     H_    0.777134 0.599884 0.116822 0.130569
H69   H     H_    0.192892 0.634533 0.325918 0.159364
H70   H     H_    0.074574 0.751474 0.034572 0.139081
H71   H     H_    0.076764 0.845920 0.038802 0.130356
H72   H     H_    0.156100 0.794126 0.034279 0.139087
H73   H     H_    0.072459 0.860549 0.968247 0.100530
H74   H     H_    0.051493 0.770136 0.967517 0.184033
H75   H     H_    0.247611 0.073007 0.033785 0.139801
H76   H     H_    0.152918 0.071820 0.037232 0.130607
H77   H     H_    0.202513 0.152716 0.034124 0.136779
H78   H     H_    0.139647 0.071172 0.966180 0.101230
H79   H     H_    0.831928 0.655123 0.084786 0.170218
H80   H     H_    0.230501 0.050480 0.966903 0.184033
H81   H     H_    0.925191 0.248488 0.034802 0.139056
H82   H     H_    0.923605 0.153931 0.038580 0.130844
H83   H     H_    0.843959 0.205386 0.034327 0.138879
H84   H     H_    0.927933 0.140375 0.967905 0.100456
H85   H     H_    0.948553 0.230819 0.967872 0.184036
H86   H     H_    0.755911 0.928045 0.031849 0.139082
H87   H     H_    0.850925 0.928275 0.032272 0.130840
H88   H     H_    0.799531 0.848334 0.031039 0.136268
H89   H     H_    0.856799 0.929856 0.961096 0.102030
H90   H     H_    0.755265 0.691993 0.109350 0.131004
H91   H     H_    0.765897 0.949030 0.964650 0.171229
H92   H     H_    0.118947 0.218734 0.021858 0.135563
H93   H     H_    0.033810 0.241767 0.013137 0.151564
H94   H     H_    0.055318 0.148886 0.013473 0.137074
H95   H     H_    0.051091 0.248542 0.945265 0.168331
H96   H     H_    0.062197 0.155969 0.942865 0.075787
H97   H     H_    0.219377 0.879937 0.021301 0.141367
H98   H     H_    0.245262 0.964704 0.012372 0.157813
H99   H     H_    0.151653 0.945738 0.013896 0.132974
H100  H     H_    0.246342 0.949117 0.943423 0.163836
H101  H     H_    0.676480 0.614799 0.070411 0.118940
H102  H     H_    0.154748 0.936122 0.943148 0.088085
H103  H     H_    0.882653 0.781018 0.021895 0.132231
H104  H     H_    0.966546 0.755579 0.011741 0.152887
H105  H     H_    0.947729 0.849090 0.012951 0.135808
H106  H     H_    0.948428 0.752284 0.943221 0.182371
H107  H     H_    0.936175 0.844709 0.942473 0.071686
H108  H     H_    0.781415 0.119530 0.020595 0.140780
H109  H     H_    0.755211 0.035251 0.010982 0.159667
H110  H     H_    0.849014 0.053788 0.012782 0.132770
H111  H     H_    0.754558 0.052080 0.942395 0.148538
H112  H     H_    0.345110 0.828673 0.084405 0.172678
H113  H     H_    0.742046 0.570373 0.045533 0.168083
H114  H     H_    0.846014 0.064944 0.942028 0.091791
H115  H     H_    0.572012 0.254078 0.529948 0.139552
H116  H     H_    0.569225 0.349091 0.530178 0.129168
H117  H     H_    0.650349 0.299845 0.529705 0.135209
H118  H     H_    0.571441 0.355490 0.458876 0.102532
H119  H     H_    0.550121 0.265374 0.462391 0.167053
H120  H     H_    0.745848 0.571987 0.529937 0.139557
H121  H     H_    0.650817 0.569147 0.530161 0.129176
H122  H     H_    0.700075 0.650282 0.529711 0.135230
H123  H     H_    0.644434 0.571443 0.458859 0.102520
H124  H     H_    0.377688 0.299365 0.103087 0.123582
H125  H     H_    0.734549 0.550117 0.462378 0.166967
H126  H     H_    0.427984 0.745911 0.529948 0.139532
H127  H     H_    0.430769 0.650898 0.530178 0.129153
H128  H     H_    0.349645 0.700146 0.529706 0.135203
H129  H     H_    0.428562 0.644520 0.458876 0.102531
H130  H     H_    0.449885 0.734634 0.462391 0.167055
H131  H     H_    0.254146 0.428003 0.529936 0.139550
H132  H     H_    0.349177 0.430841 0.530161 0.129179
H133  H     H_    0.299917 0.349707 0.529710 0.135236
H134  H     H_    0.355571 0.428569 0.458859 0.102521
H135  H     H_    0.385625 0.209303 0.086368 0.183196
H136  H     H_    0.265455 0.449894 0.462377 0.166966
H137  H     H_    0.618097 0.718193 0.520060 0.130970
H138  H     H_    0.534567 0.742542 0.509347 0.155955
H139  H     H_    0.554589 0.649046 0.510145 0.136082
H140  H     H_    0.554844 0.748811 0.441579 0.167689
H141  H     H_    0.565553 0.656351 0.439587 0.074909
H142  H     H_    0.718251 0.381880 0.520055 0.130989
H143  H     H_    0.742569 0.465431 0.509340 0.155977
H144  H     H_    0.649069 0.445329 0.510152 0.136065
H145  H     H_    0.748825 0.445172 0.441576 0.167695
H146  H     H_    0.463183 0.264551 0.090546 0.125001
H147  H     H_    0.656352 0.434407 0.439593 0.074887
H148  H     H_    0.381896 0.281797 0.520061 0.130980
H149  H     H_    0.465430 0.257452 0.509348 0.155961
H150  H     H_    0.445406 0.350947 0.510147 0.136087
H151  H     H_    0.445165 0.251203 0.441580 0.167687
H152  H     H_    0.434457 0.343665 0.439589 0.074915
H153  H     H_    0.281750 0.618111 0.520054 0.130986
H154  H     H_    0.257430 0.534566 0.509338 0.155973
H155  H     H_    0.350931 0.554665 0.510148 0.136064
H156  H     H_    0.251182 0.554847 0.441574 0.167693
H157  H     H_    0.441072 0.265004 0.017939 0.162563
H158  H     H_    0.343655 0.565611 0.439590 0.074888
H159  H     H_    0.410370 0.345189 0.034299 0.106814
H160  H     H_    0.300309 0.621009 0.102720 0.122456
H161  H     H_    0.209955 0.616280 0.086034 0.182291
H162  H     H_    0.262537 0.536890 0.090023 0.126658
H163  H     H_    0.264951 0.558448 0.017625 0.163266
H164  H     H_    0.309122 0.750742 0.108026 0.130704
H165  H     H_    0.345279 0.588966 0.033984 0.105887
H166  H     H_    0.624588 0.703616 0.104364 0.123712
H167  H     H_    0.614876 0.792988 0.086813 0.183643
H168  H     H_    0.538262 0.736660 0.091959 0.125269
H169  H     H_    0.559463 0.734856 0.019197 0.162205
H170  H     H_    0.590822 0.655346 0.036190 0.106649
H171  H     H_    0.701207 0.377572 0.103422 0.122821
H172  H     H_    0.791221 0.383712 0.086314 0.182505
H173  H     H_    0.737681 0.462372 0.090874 0.126171
H174  H     H_    0.734936 0.441359 0.018360 0.164206
H175  H     H_    0.387440 0.674310 0.067964 0.117575
H176  H     H_    0.654920 0.410459 0.035001 0.106039
H177  H     H_    0.895619 0.281841 0.617938 0.131752
H178  H     H_    0.842060 0.335433 0.584330 0.168756
H179  H     H_    0.803731 0.259990 0.609468 0.130936
H180  H     H_    0.882115 0.179313 0.572901 0.119172
H181  H     H_    0.928065 0.243402 0.547689 0.168912
H182  H     H_    0.717905 0.895386 0.617996 0.131578
H183  H     H_    0.664345 0.841925 0.584309 0.168664
H184  H     H_    0.739691 0.803517 0.609491 0.130842
H185  H     H_    0.820560 0.881919 0.573045 0.119186
H186  H     H_    0.430802 0.741416 0.043978 0.166368
H187  H     H_    0.756572 0.927931 0.547795 0.168922
H188  H     H_    0.104396 0.718087 0.617948 0.131841
H189  H     H_    0.157946 0.664513 0.584327 0.168734
H190  H     H_    0.196285 0.739937 0.609470 0.130932
H191  H     H_    0.117903 0.820643 0.572923 0.119176
H192  H     H_    0.071941 0.756577 0.547707 0.168918
H193  H     H_    0.282041 0.104550 0.617987 0.131670
H194  H     H_    0.335613 0.158035 0.584311 0.168707
H195  H     H_    0.260251 0.196421 0.609488 0.130900
H196  H     H_    0.179407 0.118033 0.573025 0.119193
H197  H     H_    0.225887 0.402300 0.115788 0.129889
H198  H     H_    0.243413 0.072042 0.547778 0.168915
H199  H     H_    0.872192 0.792238 0.606062 0.123830
H200  H     H_    0.883077 0.703795 0.587292 0.183001
H201  H     H_    0.959154 0.760395 0.593940 0.125921
H202  H     H_    0.939914 0.765336 0.521053 0.166221
H203  H     H_    0.907517 0.843821 0.538960 0.108212
H204  H     H_    0.792518 0.127573 0.605968 0.123903
H205  H     H_    0.703994 0.116841 0.587260 0.182936
H206  H     H_    0.760490 0.040695 0.593812 0.125869
H207  H     H_    0.765337 0.060051 0.520944 0.166253
H208  H     H_    0.170592 0.345984 0.084682 0.171416
H209  H     H_    0.843897 0.092417 0.538804 0.108229
H210  H     H_    0.127773 0.207703 0.606051 0.123851
H211  H     H_    0.116902 0.296159 0.587289 0.182976
H212  H     H_    0.040818 0.239563 0.593930 0.125889
H213  H     H_    0.060076 0.234664 0.521043 0.166213
H214  H     H_    0.092460 0.156163 0.538943 0.108221
H215  H     H_    0.207500 0.872373 0.605980 0.123926
H216  H     H_    0.296018 0.883123 0.587263 0.182916
H217  H     H_    0.239516 0.959261 0.593825 0.125899
H218  H     H_    0.234659 0.939936 0.520957 0.166249
H219  H     H_    0.248235 0.310227 0.108700 0.130739
H220  H     H_    0.156104 0.907558 0.538824 0.108231
H221  H     H_    0.112955 0.852821 0.883062 0.153917
H222  H     H_    0.037176 0.803246 0.899378 0.072881
H223  H     H_    0.059425 0.713784 0.844790 0.162792
H224  H     H_    0.048779 0.801958 0.824068 0.070432
H225  H     H_    0.136314 0.763689 0.828321 0.173519
H226  H     H_    0.158842 0.109933 0.879022 0.126535
H227  H     H_    0.207085 0.036047 0.899298 0.096848
H228  H     H_    0.303799 0.054709 0.850208 0.164713
H229  H     H_    0.219888 0.044923 0.824109 0.078824
H230  H     H_    0.325290 0.387260 0.068387 0.118589
H231  H     H_    0.259247 0.131757 0.829673 0.163373
H232  H     H_    0.889881 0.149909 0.883742 0.150457
H233  H     H_    0.964113 0.203237 0.898948 0.074624
H234  H     H_    0.937158 0.290182 0.844137 0.157917
H235  H     H_    0.949865 0.202083 0.823726 0.072086
H236  H     H_    0.861318 0.237600 0.828832 0.175431
H237  H     H_    0.814062 0.939600 0.891591 0.086151
H238  H     H_    0.721646 0.961294 0.902325 0.151366
H239  H     H_    0.685414 0.897288 0.838852 0.173100
H240  H     H_    0.741647 0.973147 0.829903 0.091206
O1    O     O_3   0.500000 0.000000 0.000010 -0.408730
O2    O     O_R   0.500000 0.939250 0.416010 -0.532801
O3    O     O_R   0.060750 0.500000 0.416010 -0.532813
O4    O     O_R   0.500000 0.060750 0.416010 -0.532814
O5    O     O_R   0.500000 0.939250 0.084010 -0.538580
O6    O     O_R   0.060750 0.500000 0.084010 -0.539977
O7    O     O_R   0.500000 0.060750 0.084010 -0.538487
O8    O     O_R   0.939250 0.500000 0.084010 -0.540458
O9    O     O_R   0.000000 0.439250 0.584010 -0.540761
O10   O     O_R   0.560750 0.000000 0.584010 -0.540742
O11   O     O_R   1.000000 0.560750 0.584010 -0.540704
O12   O     O_3   0.000000 0.500000 0.000010 -0.419044
O13   O     O_R   0.439250 0.000000 0.584010 -0.540721
O14   O     O_R   0.646150 0.914530 0.977990 -0.537588
O15   O     O_R   0.085470 0.646150 0.977990 -0.526914
O16   O     O_R   0.353850 0.085470 0.977990 -0.521973
O17   O     O_R   0.914530 0.353850 0.977990 -0.526077
O18   O     O_R   0.646150 0.085470 0.977990 -0.572647
O19   O     O_R   0.085470 0.353850 0.977990 -0.548298
O20   O     O_R   0.353850 0.914530 0.977990 -0.571759
O21   O     O_R   0.914530 0.646150 0.977990 -0.538089
O22   O     O_R   0.146150 0.414530 0.477990 -0.540586
O23   O     O_3   1.000000 0.500000 0.500010 -0.415557
O24   O     O_R   0.585470 0.146150 0.477990 -0.540602
O25   O     O_R   0.853850 0.585470 0.477990 -0.540599
O26   O     O_R   0.414530 0.853850 0.477990 -0.540592
O27   O     O_R   0.146150 0.585470 0.477990 -0.543538
O28   O     O_R   0.585470 0.853850 0.477990 -0.543517
O29   O     O_R   0.853850 0.414530 0.477990 -0.543519
O30   O     O_R   0.414530 0.146150 0.477990 -0.543507
O31   O     O_R   0.414550 0.146120 0.022030 -0.561754
O32   O     O_R   0.853880 0.414550 0.022030 -0.561268
O33   O     O_R   0.585450 0.853880 0.022030 -0.559481
O34   O     O_3   0.500000 0.000000 0.500010 -0.415542
O35   O     O_R   0.146120 0.585450 0.022030 -0.561407
O36   O     O_R   0.414550 0.853880 0.022030 -0.552095
O37   O     O_R   0.853880 0.585450 0.022030 -0.559866
O38   O     O_R   0.585450 0.146120 0.022030 -0.551456
O39   O     O_R   0.146120 0.414550 0.022030 -0.557901
O40   O     O_R   0.914550 0.646120 0.522030 -0.560330
O41   O     O_R   0.353880 0.914550 0.522030 -0.560347
O42   O     O_R   0.085450 0.353880 0.522030 -0.560328
O43   O     O_R   0.646120 0.085450 0.522030 -0.560324
O44   O     O_R   0.914550 0.353880 0.522030 -0.557639
O45   O     O_R   0.439250 1.000000 0.916010 -0.541635
O46   O     O_R   0.353880 0.085450 0.522030 -0.557625
O47   O     O_R   0.085450 0.646120 0.522030 -0.557630
O48   O     O_R   0.646120 0.914550 0.522030 -0.557637
O49   O     O_3   0.133411 0.752961 0.910021 -0.507169
O50   O     O_3   0.252343 0.135085 0.910699 -0.506988
O51   O     O_3   0.866441 0.249341 0.910358 -0.507533
O52   O     O_3   0.745611 0.855078 0.906812 -0.518484
O53   O     O_3   0.168837 0.247537 0.900089 -0.522141
O54   O     O_3   0.238293 0.839924 0.898224 -0.555564
O55   O     O_3   0.835973 0.745404 0.901899 -0.516455
O56   O     O_R   0.000000 0.439250 0.916010 -0.533377
O57   O     O_3   0.762198 0.161840 0.897900 -0.554470
O58   O     O_3   0.646914 0.240959 0.406320 -0.515858
O59   O     O_3   0.759063 0.646945 0.406334 -0.515848
O60   O     O_3   0.353101 0.759072 0.406321 -0.515852
O61   O     O_3   0.240953 0.353082 0.406333 -0.515845
O62   O     O_3   0.666624 0.754547 0.400266 -0.515140
O63   O     O_3   0.754554 0.333418 0.400257 -0.515134
O64   O     O_3   0.333394 0.245484 0.400265 -0.515139
O65   O     O_3   0.245461 0.666616 0.400256 -0.515138
O66   O     O_R   0.560750 1.000000 0.916010 -0.549692
O67   O     O_R   0.000000 0.560750 0.916010 -0.520944
O68   O     O_R   0.939250 0.500000 0.416010 -0.532805
Zn1   Zn    Zn3+2 0.500000 0.913220 0.031480 0.900549
Zn2   Zn    Zn3+2 1.000000 0.586740 0.968550 0.943914
Zn3   Zn    Zn3+2 0.413260 0.000000 0.968550 0.911752
Zn4   Zn    Zn3+2 0.000000 0.413260 0.968550 0.931054
Zn5   Zn    Zn3+2 0.086740 0.500000 0.468550 0.926315
Zn6   Zn    Zn3+2 0.500000 0.086740 0.468550 0.926318
Zn7   Zn    Zn3+2 0.913260 0.500000 0.468550 0.926313
Zn8   Zn    Zn3+2 0.500000 0.913260 0.468550 0.926289
Zn9   Zn    Zn3+2 0.086780 0.500000 0.031480 0.899319
Zn10  Zn    Zn3+2 0.500000 0.086780 0.031480 0.900909
Zn11  Zn    Zn3+2 0.913220 0.500000 0.031480 0.900495
Zn12  Zn    Zn3+2 0.000000 0.413220 0.531480 0.901841
Zn13  Zn    Zn3+2 0.586780 0.000000 0.531480 0.901795
Zn14  Zn    Zn3+2 1.000000 0.586780 0.531480 0.901853
Zn15  Zn    Zn3+2 0.413220 0.000000 0.531480 0.901815
Zn16  Zn    Zn3+2 0.586740 0.000000 0.968550 0.896812

loop_
_geom_bond_atom_site_label_1
_geom_bond_atom_site_label_2
_ccdc_geom_bond_type
O24   Zn6   S    
C31   H166  S    
C28   H163  S    
C140  O27   A    
C19   C20   S    
C148  C151  A    
O33   Zn1   S    
C76   H42   S    
C19   C181  S    
C50   H218  S    
C81   O63   S    
O1    Zn16  S    
C1    C90   S    
C158  C207  S    
O23   Zn14  S    
C141  O48   A    
C147  C164  A    
C128  O35   A    
C27   H124  S    
O41   Zn15  S    
C105  H119  S    
C78   H48   S    
C152  C200  S    
C1    O66   A    
C47   H205  S    
C86   H69   S    
C147  C205  S    
C191  C196  A    
C125  O11   A    
C178  C195  A    
C21   H46   S    
C189  C194  A    
C123  O5    A    
O25   Zn7   S    
C149  C167  A    
C25   H90   S    
C98   H102  S    
C99   H99   S    
C96   H95   S    
C10   C125  S    
C107  C207  S    
C23   H113  S    
C23   H101  S    
C59   C60   S    
C21   C22   S    
C155  C158  A    
C62   H6    S    
C41   H196  S    
C151  C201  S    
C133  C163  S    
C22   H35   S    
C45   C47   S    
C72   O59   S    
O12   Zn4   S    
C115  H140  S    
C22   H13   S    
C156  C173  A    
C49   H211  S    
C204  O55   S    
C205  O57   S    
O66   Zn16  S    
C192  C195  A    
O40   Zn14  S    
C11   C126  S    
O2    Zn8   S    
C39   H192  S    
C161  C179  A    
C145  C203  S    
C74   H37   S    
C129  C167  S    
C59   H238  S    
C85   O65   S    
C92   H85   S    
C115  H141  S    
O9    Zn12  S    
C109  C208  S    
C43   C44   S    
C95   H86   S    
C27   H146  S    
C37   C38   S    
C39   C191  S    
C102  H104  S    
C49   H210  S    
C48   H214  S    
C132  O68   A    
C94   C201  S    
C56   H233  S    
C160  C178  A    
C201  O52   S    
C149  C199  S    
O7    Zn10  S    
C44   H201  S    
C79   C112  S    
C127  O14   A    
C157  C160  A    
C28   H165  S    
C112  O67   A    
C104  H108  S    
C91   H77   S    
O34   Zn15  S    
C61   O53   S    
C124  O6    A    
C100  H107  S    
C54   H227  S    
C33   H171  S    
C45   C194  S    
O15   Zn2   S    
C28   C29   S    
C55   H231  S    
C116  H137  S    
C40   H189  S    
C12   C154  S    
C72   C73   S    
C114  H131  S    
C8    C123  S    
C96   C202  S    
C17   H186  S    
C128  O15   A    
C93   H81   S    
C142  O29   A    
O21   Zn2   S    
C121  H156  S    
C86   H67   S    
C63   H9    S    
C24   C165  T    
C104  H110  S    
C95   H88   S    
C51   H216  S    
C131  C164  S    
C74   H38   S    
O39   Zn9   S    
C32   C188  S    
C78   H49   S    
C99   H97   S    
C70   H27   S    
O3    Zn5   S    
C88   H71   S    
C13   C154  T    
C44   H199  S    
C139  C179  S    
C34   H180  S    
C109  H130  S    
C78   O62   S    
C4    C155  S    
C67   H21   S    
C98   C99   S    
C36   H179  S    
C144  C174  S    
C108  H122  S    
C41   H198  S    
C34   H181  S    
C118  H143  S    
C175  C193  A    
C65   H16   S    
C75   H40   S    
C93   H83   S    
C42   H194  S    
C134  O36   A    
C133  O39   A    
C81   H53   S    
C163  C181  A    
C19   H2    S    
O37   Zn11  S    
C4    C115  S    
O4    Zn6   S    
C30   H169  S    
C119  H151  S    
C3    C6    S    
C6    O64   S    
C105  C206  S    
C38   H183  S    
C76   O61   S    
C200  O51   S    
C31   H167  S    
C84   H61   S    
C104  H109  S    
C85   H64   S    
C25   H68   S    
C137  O24   A    
C78   C80   S    
C7    O65   S    
C13   C57   S    
C115  C116  S    
C66   H17   S    
C120  H150  S    
C69   H25   S    
C2    C187  T    
C110  H128  S    
C135  C166  S    
C7    C156  S    
C83   C84   S    
C108  H120  S    
C199  C202  S    
O18   Zn16  S    
C107  C108  S    
C91   H75   S    
O34   Zn13  S    
C89   C91   S    
C124  O8    A    
C150  C197  S    
C162  C180  A    
C145  C150  A    
C157  C174  A    
O12   Zn9   S    
C37   C190  S    
C116  H139  S    
O1    Zn10  S    
C117  H145  S    
C5    O63   S    
C97   H92   S    
C61   H5    S    
C7    C121  S    
C60   H239  S    
C17   C18   S    
C21   C182  S    
C121  H158  S    
C71   H30   S    
C98   C203  S    
C20   H219  S    
C77   H45   S    
C135  O37   A    
C183  C186  A    
C39   C40   S    
C77   H44   S    
O12   Zn2   S    
C58   H236  S    
C52   H221  S    
O1    Zn1   S    
C53   H224  S    
C61   H4    S    
C66   H19   S    
C29   H162  S    
C23   C183  S    
O29   Zn7   S    
C40   H190  S    
C58   H234  S    
C29   H160  S    
C167  C184  A    
C8    C12   T    
C197  O49   S    
C92   H84   S    
C122  H155  S    
C72   H31   S    
C64   H14   S    
C41   C192  S    
C80   H51   S    
C182  C188  A    
C126  O10   A    
C156  C161  A    
C48   C195  S    
C82   H56   S    
O28   Zn8   S    
C6    C119  S    
C52   C53   S    
C148  C204  S    
C45   H209  S    
C54   C55   S    
C64   H11   S    
C103  C205  S    
C176  C198  T    
C100  H106  S    
C127  C169  S    
C57   C101  T    
O13   Zn15  S    
C144  O30   A    
C151  C169  A    
C43   C193  S    
C142  O44   A    
C65   O55   S    
C87   H74   S    
C146  C202  S    
C37   H185  S    
C117  C118  S    
C32   H176  S    
C73   H36   S    
C42   H195  S    
C35   C79   T    
C105  H118  S    
C56   C58   S    
C34   C36   S    
C61   C62   S    
C134  O20   A    
C63   C64   S    
O12   Zn11  S    
C158  C175  A    
C51   H217  S    
C170  C188  A    
C138  C175  S    
C30   C186  S    
C17   H175  S    
C97   H94   S    
C96   H96   S    
C36   H177  S    
C88   H70   S    
C174  C192  A    
C142  C171  S    
O8    Zn11  S    
C87   C88   S    
C3    O61   S    
O20   Zn3   S    
C200  C205  S    
C103  H114  S    
C36   H178  S    
O45   Zn3   S    
C148  C166  A    
C41   C42   S    
C77   H47   S    
C131  O18   A    
C33   H173  S    
C55   H229  S    
C26   C27   S    
O1    Zn3   S    
O16   Zn3   S    
C15   C176  S    
C159  C206  S    
C67   O57   S    
C131  O38   A    
C83   H60   S    
C56   O51   S    
O23   Zn5   S    
C169  C186  A    
C69   H23   S    
C30   C31   S    
O30   Zn6   S    
C59   H237  S    
O44   Zn12  S    
C122  H153  S    
O48   Zn13  S    
C112  O56   A    
C63   O54   S    
C190  C193  A    
C5    C206  S    
C50   C196  S    
C155  C172  A    
O35   Zn9   S    
C3    C111  S    
C140  C173  S    
C53   H225  S    
O26   Zn8   S    
C70   C71   S    
C84   H63   S    
C68   C113  T    
O67   Zn2   S    
C138  O40   A    
C89   H78   S    
C52   O49   S    
C139  O26   A    
C18   H112  S    
C135  O21   A    
C206  O58   S    
C179  C196  A    
O11   Zn14  S    
C89   C199  S    
C103  H111  S    
C177  C194  A    
C116  H138  S    
C18   H1    S    
O31   Zn10  S    
C37   H187  S    
C114  H132  S    
C85   C86   S    
C42   H193  S    
C98   H100  S    
C26   H159  S    
C199  O50   S    
C47   H206  S    
C95   H87   S    
C25   H79   S    
C9    C14   T    
C39   H191  S    
C132  O3    A    
C146  C149  A    
C55   H228  S    
O10   Zn13  S    
C51   H215  S    
C129  O31   A    
C66   H18   S    
C50   C51   S    
C82   H58   S    
O68   Zn7   S    
C88   H72   S    
C114  H133  S    
C121  C122  S    
C44   H200  S    
C109  H129  S    
C93   H82   S    
C48   C49   S    
C141  O28   A    
O43   Zn13  S    
C107  H125  S    
C80   H50   S    
C87   C197  S    
C126  O13   A    
C118  H144  S    
O46   Zn15  S    
C71   H29   S    
C65   H15   S    
C75   H39   S    
C20   H197  S    
C4    C207  S    
C127  O33   A    
C208  O60   S    
C181  C184  A    
C49   H212  S    
O27   Zn5   S    
C69   H22   S    
C166  C183  A    
C30   H170  S    
C16   C187  S    
C139  O41   A    
C119  C120  S    
O42   Zn12  S    
C46   C90   T    
C38   H184  S    
C137  O43   A    
C43   H202  S    
C105  C106  S    
C113  C132  S    
C84   H62   S    
C172  C190  A    
C32   C33   S    
C109  C110  S    
C100  C204  S    
C130  C170  S    
C102  H103  S    
C92   C93   S    
C173  C191  A    
C111  C114  S    
C94   C95   S    
C60   H3    S    
C164  C182  A    
C24   C68   S    
C73   H33   S    
C89   H80   S    
C110  H126  S    
O47   Zn14  S    
C103  C104  S    
C56   H232  S    
C1    O45   A    
C75   H41   S    
C76   H43   S    
C54   H226  S    
O34   Zn8   S    
C59   O52   S    
C136  C178  S    
C120  H148  S    
O36   Zn1   S    
C60   H240  S    
C81   C82   S    
C144  O46   A    
C2    C46   S    
C27   H135  S    
C26   H157  S    
C171  C189  A    
O19   Zn4   S    
C86   H66   S    
C63   H10   S    
C10   C15   T    
C62   H7    S    
C70   H26   S    
C133  O19   A    
C5    C153  S    
C102  H105  S    
C145  C162  A    
C52   H222  S    
C9    C124  S    
C152  C170  A    
C111  H136  S    
C53   H223  S    
C99   H98   S    
C11   C16   T    
C202  O53   S    
C29   H161  S    
O6    Zn9   S    
O5    Zn1   S    
C58   H235  S    
C85   H65   S    
C72   H32   S    
C161  C208  S    
C107  H123  S    
C108  H121  S    
C80   H52   S    
C94   H91   S    
C118  H142  S    
C136  O22   A    
C21   H57   S    
C83   O64   S    
C130  O32   A    
C150  C168  A    
C81   H54   S    
C203  O54   S    
C119  H152  S    
C159  C177  A    
C143  O4    A    
C40   H188  S    
C38   H182  S    
C31   H168  S    
C74   C75   S    
C64   H12   S    
C76   C77   S    
C20   H208  S    
C130  O17   A    
C50   H220  S    
O38   Zn10  S    
C207  O59   S    
C141  C172  S    
C134  C162  S    
C5    C117  S    
C67   C69   S    
C120  H149  S    
C153  C159  A    
C87   H73   S    
C110  H127  S    
C74   O60   S    
C45   H207  S    
C106  H115  S    
C4    O62   S    
C96   C97   S    
C153  C171  A    
C100  C102  S    
C22   H24   S    
C91   H76   S    
C71   H28   S    
C14   C165  S    
C125  O9    A    
O34   Zn6   S    
C17   C180  S    
C123  O7    A    
C3    C160  S    
O23   Zn12  S    
C201  C204  S    
C97   H93   S    
C54   O50   S    
C6    C157  S    
O17   Zn4   S    
C32   H174  S    
C106  H116  S    
C168  C185  A    
O22   Zn5   S    
C62   H8    S    
C34   C189  S    
C117  H147  S    
C48   H213  S    
C138  O25   A    
O23   Zn7   S    
C7    C208  S    
C136  O42   A    
C33   H172  S    
C146  C163  A    
C70   O58   S    
C111  H134  S    
O14   Zn16  S    
C83   H59   S    
C147  C152  A    
C92   C200  S    
C28   C185  S    
C73   H34   S    
O32   Zn11  S    
C101  C143  S    
C67   H20   S    
C106  H117  S    
C43   H203  S    
C19   H230  S    
C122  H154  S    
C197  C203  S    
C23   C25   S    
C94   H89   S    
C180  C185  A    
C137  C177  S    
C65   C66   S    
C47   H204  S    
C18   H164  S    
C82   H55   S    
C128  C168  S    
C129  O16   A    
C143  O2    A    
C140  O47   A    
C35   C198  S    
O56   Zn4   S    
C26   C184  S    
