data_mof_unit_54545.cif
_audit_creation_date              2012-12-10T20:35:48-0500
_audit_creation_method            fapswitch 2.2
_symmetry_space_group_name_H-M    P1
_symmetry_Int_Tables_number       1
_space_group_crystal_system       triclinic
_cell_length_a                    15.728471
_cell_length_b                    10.66153
_cell_length_c                    9.878971
_cell_angle_alpha                 89.940178
_cell_angle_beta                  90.868837
_cell_angle_gamma                 90.115669
_cell_volume                      1656.40566443

loop_
_atom_site_label
_atom_site_type_symbol
_atom_type_description
_atom_site_fract_x
_atom_site_fract_y
_atom_site_fract_z
_atom_type_partial_charge
C1    C     C_R   0.503521 0.260006 0.500265 0.868210
C2    C     C_3   0.952799 0.566080 0.629433 -0.383977
C3    C     C_3   0.917269 0.494880 0.504083 0.218280
C4    C     C_3   0.948947 0.561165 0.373968 -0.528575
C5    C     C_3   0.047192 0.562821 0.372102 -0.486138
C6    C     C_1   0.825811 0.497189 0.504376 -0.040897
C7    C     C_1   0.174225 0.498388 0.498161 -0.045554
C8    C     C_1   0.249508 0.499346 0.497533 -0.157570
C9    C     C_R   0.522694 0.064089 0.623931 -0.081353
C10   C     C_R   0.519293 0.128918 0.501382 -0.125309
C11   C     C_R   0.533273 0.065125 0.379620 -0.201467
C12   C     C_R   0.338345 0.499983 0.499164 0.900970
C13   C     C_R   0.532720 0.935483 0.379482 -0.206995
C14   C     C_R   0.517647 0.871487 0.500916 -0.137379
C15   C     C_R   0.520421 0.935982 0.623474 0.007530
C16   C     C_3   0.462943 0.927955 0.742720 0.334245
C17   C     C_3   0.465491 0.071151 0.745300 0.313948
C18   C     C_R   0.425452 0.492647 0.069302 0.159430
C19   C     C_R   0.572926 0.517896 0.074416 -0.263061
C20   C     C_R   0.573279 0.519805 0.930657 0.562729
C21   C     C_R   0.425416 0.493173 0.926940 0.045762
C22   C     C_3   0.361208 0.390448 0.918958 -0.546180
C23   C     C_R   0.502846 0.740094 0.500046 0.864434
C24   C     C_3   0.362155 0.388387 0.073242 0.365308
C25   C     C_R   0.661666 0.500078 0.500914 0.893772
C26   C     C_3   0.050532 0.573538 0.623427 -0.437677
C27   C     C_3   0.048270 0.358104 0.498978 0.378070
C28   C     C_3   0.949237 0.356741 0.506165 0.355517
C29   C     C_1   0.750511 0.498796 0.503202 -0.174094
C30   C     C_3   0.082894 0.496670 0.500922 0.187331
H1    H     H_    0.933631 0.518267 0.724386 0.204949
H2    H     H_    0.069552 0.673568 0.611321 0.185520
H3    H     H_    0.926201 0.662745 0.632504 0.164530
H4    H     H_    0.924077 0.511795 0.282299 0.177765
H5    H     H_    0.537981 0.114158 0.283886 0.175137
H6    H     H_    0.537504 0.886676 0.283778 0.169997
H7    H     H_    0.399773 0.886740 0.714615 0.014882
H8    H     H_    0.402592 0.113084 0.719660 0.036362
H9    H     H_    0.632114 0.528753 0.130191 0.181205
H10   H     H_    0.079579 0.544647 0.721251 0.161360
H11   H     H_    0.300103 0.423173 0.873333 0.213186
H12   H     H_    0.389574 0.301841 0.120233 0.092997
H13   H     H_    0.923448 0.311686 0.411564 0.007298
H14   H     H_    0.070186 0.661568 0.367226 0.207328
H15   H     H_    0.069576 0.515400 0.278957 0.178556
N1    N     N_R   0.499430 0.499140 0.142800 -0.160795
N2    N     N_R   0.499430 0.499180 0.857150 -0.132752
O1    O     O_R   0.500010 0.316790 0.614690 -0.613611
O2    O     O_R   0.500000 0.316760 0.385350 -0.627235
O3    O     O_R   0.377150 0.500020 0.614720 -0.622969
O4    O     O_R   0.377140 0.499990 0.385380 -0.573346
O5    O     O_R   0.500000 0.683240 0.614650 -0.604688
O6    O     O_R   0.499990 0.683210 0.385310 -0.623388
O7    O     O_R   0.622860 0.500010 0.614620 -0.552546
O8    O     O_R   0.622850 0.499980 0.385280 -0.633861
Zn1   Zn    Zn3+2 0.500010 0.500020 0.653130 0.986194
Zn2   Zn    Zn3+2 0.499990 0.499980 0.346870 0.949700
O9    O     O_3   0.505638 0.871444 0.853880 -0.585198
C31   C     C_3   0.446239 0.840109 0.953804 -0.263860
H16   H     H_    0.400713 0.767769 0.916030 0.151874
H17   H     H_    0.411433 0.924445 0.989131 0.176948
H18   H     H_    0.480956 0.799744 0.042150 0.175537
O10   O     O_3   0.498972 0.120307 0.869779 -0.600633
C32   C     C_3   0.587262 0.144839 0.869467 -0.186343
H19   H     H_    0.602772 0.220839 0.796917 0.184874
H20   H     H_    0.624128 0.058553 0.847553 0.174708
H21   H     H_    0.606889 0.177670 0.971792 0.158571
O11   O     O_3   0.650009 0.529849 0.866170 -0.595070
C33   C     C_3   0.675012 0.656877 0.865553 -0.272139
H22   H     H_    0.629216 0.714735 0.805899 0.221398
H23   H     H_    0.737509 0.664200 0.815521 0.171515
H24   H     H_    0.682939 0.694875 0.969891 0.137440
H25   H     H_    0.386806 0.303634 0.873333 0.212165
O12   O     O_3   0.284840 0.430525 0.127846 -0.572314
C34   C     C_3   0.231819 0.326398 0.151807 -0.320136
H26   H     H_    0.258901 0.266138 0.233681 0.168195
H27   H     H_    0.220636 0.270667 0.057928 0.147861
H28   H     H_    0.169277 0.360759 0.186056 0.178210
H29   H     H_    0.062059 0.323725 0.395113 0.033141
O13   O     O_3   0.090038 0.267171 0.582682 -0.606674
C35   C     C_3   0.100361 0.301631 0.719707 -0.234813
H30   H     H_    0.042701 0.344061 0.763252 0.198177
H31   H     H_    0.156684 0.363365 0.733186 0.146141
H32   H     H_    0.113622 0.215407 0.779196 0.166468
O14   O     O_3   0.920246 0.294966 0.624402 -0.596867
C36   C     C_3   0.897560 0.169573 0.595718 -0.291040
H33   H     H_    0.950577 0.117923 0.547679 0.181131
H34   H     H_    0.839514 0.166027 0.530110 0.151975
H35   H     H_    0.882835 0.121490 0.692205 0.181342
H36   H     H_    0.924821 0.659233 0.369738 0.206325

loop_
_geom_bond_atom_site_label_1
_geom_bond_atom_site_label_2
_ccdc_geom_bond_type
C26   H2    S    
C18   C21   A    
C24   H12   S    
C19   C20   A    
C3    C6    S    
C24   O12   S    
C12   O4    A    
C35   H30   S    
C19   N1    A    
C7    C8    T    
O14   C36   S    
C18   C24   S    
C3    C28   S    
C27   H29   S    
C36   H34   S    
C22   H11   S    
C15   C16   S    
O2    Zn2   S    
C33   H23   S    
O11   C33   S    
C16   C17   S    
O4    Zn2   S    
C9    C10   A    
C16   H7    S    
C31   H16   S    
C7    C30   S    
C21   C22   S    
C27   C30   S    
C18   N1    A    
C35   H31   S    
C23   O6    A    
C4    H36   S    
C25   C29   S    
O7    Zn1   S    
C31   H17   S    
O12   C34   S    
C32   H21   S    
C25   O7    A    
C13   H6    S    
C27   O13   S    
O6    Zn2   S    
C36   H33   S    
O13   C35   S    
O9    C31   S    
C5    H15   S    
O3    Zn1   S    
C2    H1    S    
C32   H20   S    
C14   C23   S    
C33   H24   S    
C34   H26   S    
C8    C12   S    
C2    C26   S    
C16   O9    S    
C34   H27   S    
C19   H9    S    
C2    H3    S    
C9    C17   S    
C5    H14   S    
C26   C30   S    
O8    Zn2   S    
N1    Zn2   S    
C22   C24   S    
C3    C4    S    
C27   C28   S    
C35   H32   S    
C5    C30   S    
O1    Zn1   S    
C31   H18   S    
C20   O11   S    
C1    C10   S    
C25   O8    A    
C4    C5    S    
C36   H35   S    
C12   O3    A    
C1    O1    A    
C28   H13   S    
C32   H19   S    
C11   H5    S    
C2    C3    S    
C9    C15   A    
C17   O10   S    
C11   C13   A    
C26   H10   S    
C23   O5    A    
C17   H8    S    
C4    H4    S    
C33   H22   S    
C34   H28   S    
C20   N2    A    
C10   C11   A    
O10   C32   S    
C6    C29   T    
C28   O14   S    
C14   C15   A    
C22   H25   S    
C13   C14   A    
C1    O2    A    
O5    Zn1   S    
N2    Zn1   S    
C21   N2    A    
