data_mof_unit_50670.cif
_audit_creation_date              2012-10-26T19:58:18-0400
_audit_creation_method            fapswitch 2.2
_symmetry_space_group_name_H-M    P1
_symmetry_Int_Tables_number       1
_space_group_crystal_system       triclinic
_cell_length_a                    7.429815
_cell_length_b                    8.72459
_cell_length_c                    13.336015
_cell_angle_alpha                 94.002464
_cell_angle_beta                  77.369213
_cell_angle_gamma                 103.027948
_cell_volume                      821.643777385

loop_
_atom_site_label
_atom_site_type_symbol
_atom_type_description
_atom_site_fract_x
_atom_site_fract_y
_atom_site_fract_z
_atom_type_partial_charge
C1    C     C_R   0.545539 0.799963 0.500770 0.564758
C2    C     C_R   0.335270 0.495296 0.807674 -0.013963
C3    C     C_2   0.565718 0.967062 0.503791 -0.125563
C4    C     C_R   0.399171 0.497039 0.694773 0.526029
C5    C     C_2   0.438527 0.034445 0.476981 0.178298
C6    C     C_R   0.457405 0.200481 0.492387 0.567099
C7    C     C_R   0.601859 0.512595 0.305763 0.548484
C8    C     C_R   0.862368 0.712800 0.059716 -0.114415
C9    C     C_R   0.663242 0.546568 0.196204 0.010457
C10   C     C_R   0.151224 0.415315 0.849336 -0.165658
C11   C     C_R   0.090350 0.398468 0.954664 -0.086665
C12   C     C_R   0.408285 0.521092 0.979871 0.040911
C13   C     C_R   0.214411 0.449941 0.020989 0.101454
C14   C     C_R   0.459199 0.561290 0.874291 0.006720
C15   C     C_R   0.552670 0.559080 0.038506 0.025666
C16   C     C_R   0.725544 0.665153 0.999386 0.043157
C17   C     C_R   0.759363 0.723341 0.900953 -0.140015
C18   C     C_R   0.629849 0.670544 0.838710 -0.122736
C19   C     C_R   0.534866 0.489946 0.132869 -0.133277
C20   C     C_R   0.828332 0.657672 0.159180 -0.096478
Cl1   Cl    Cl    0.251657 0.935625 0.416523 -0.584665
Cu1   Cu    Cu3+1 0.321300 0.483160 0.488710 1.019132
Cu2   Cu    Cu3+1 0.678700 0.516840 0.511290 0.985176
H1    H     H_    0.927935 0.704718 0.207840 0.159835
H2    H     H_    0.684183 0.036540 0.533915 0.108653
H3    H     H_    0.123247 0.342917 0.160024 0.233917
H4    H     H_    0.197893 0.546230 0.167677 0.256115
H5    H     H_    0.010869 0.617707 0.579398 0.250201
H6    H     H_    0.989166 0.382385 0.420549 0.245054
H7    H     H_    0.888656 0.807323 0.870934 0.110775
H8    H     H_    0.992767 0.796399 0.031136 0.118317
H9    H     H_    0.420480 0.392594 0.159732 0.127231
H10   H     H_    0.052724 0.366642 0.800307 0.139422
H11   H     H_    0.943747 0.345077 0.985477 0.146033
H12   H     H_    0.662479 0.721590 0.763619 0.141860
N1    N     N_2   0.947230 0.542220 0.528320 -0.234741
N2    N     N_2   0.052770 0.457780 0.471680 -0.240767
N3    N     N_3   0.129304 0.450714 0.128482 -0.647547
O1    O     O_R   0.383920 0.714220 0.492660 -0.446357
O2    O     O_R   0.685730 0.742660 0.511730 -0.489782
O3    O     O_R   0.275440 0.478800 0.636790 -0.516435
O4    O     O_R   0.577250 0.507240 0.655860 -0.510348
O5    O     O_R   0.314270 0.257340 0.488270 -0.456578
O6    O     O_R   0.616080 0.285780 0.507340 -0.537487
O7    O     O_R   0.422750 0.492760 0.344140 -0.494996
O8    O     O_R   0.724560 0.521200 0.363210 -0.496285

loop_
_geom_bond_atom_site_label_1
_geom_bond_atom_site_label_2
_ccdc_geom_bond_type
C2    C4    S    
Cu1   N2    S    
C18   H12   S    
C14   C18   A    
C9    C20   A    
Cu1   O5    S    
C12   C15   A    
C17   C18   A    
C8    C16   A    
Cu2   O8    S    
C6    O6    A    
C15   C19   A    
C17   H7    S    
C11   C13   A    
C13   N3    S    
C8    C20   A    
Cu2   O4    S    
C4    O4    A    
C19   H9    S    
C7    O7    A    
N1    N2    D    
C12   C14   A    
C10   H10   S    
C6    O5    A    
C5    C6    S    
C2    C14   A    
Cu1   O3    S    
C10   C11   A    
Cu1   O1    S    
H4    N3    S    
Cu2   O2    S    
C2    C10   A    
C7    O8    A    
C20   H1    S    
C3    H2    S    
Cu1   O7    S    
C5    Cl1   S    
C12   C13   A    
H5    N1    S    
Cu2   N1    S    
C4    O3    A    
H6    N2    S    
C7    C9    S    
C1    O1    A    
Cu1   Cu2   S    
H3    N3    S    
C1    O2    A    
C3    C5    D    
C8    H8    S    
C9    C19   A    
C11   H11   S    
Cu2   O6    S    
C15   C16   A    
C16   C17   A    
C1    C3    S    
