data_mof_unit_27029.cif
_audit_creation_date              2012-12-10T16:50:14-0500
_audit_creation_method            fapswitch 2.2
_symmetry_space_group_name_H-M    P1
_symmetry_Int_Tables_number       1
_space_group_crystal_system       triclinic
_cell_length_a                    23.502178
_cell_length_b                    8.823402
_cell_length_c                    7.417929
_cell_angle_alpha                 103.136213
_cell_angle_beta                  94.001145
_cell_angle_gamma                 92.681325
_cell_volume                      1491.23684241

loop_
_atom_site_label
_atom_site_type_symbol
_atom_type_description
_atom_site_fract_x
_atom_site_fract_y
_atom_site_fract_z
_atom_type_partial_charge
C1    C     C_R   0.497158 0.200251 0.453711 0.824592
C2    C     C_R   0.502836 0.799749 0.546289 0.822677
C3    C     C_R   0.238826 0.598246 0.395934 -0.046241
C4    C     C_R   0.761053 0.403477 0.604839 -0.021993
C5    C     C_R   0.299079 0.601761 0.404658 0.379854
C6    C     C_R   0.700930 0.397758 0.592985 0.275226
C7    C     C_R   0.328939 0.508867 0.508862 -0.272130
C8    C     C_R   0.671062 0.492617 0.491661 -0.222680
C9    C     C_R   0.298339 0.421410 0.613378 0.378572
C10   C     C_R   0.701784 0.584502 0.392393 0.367790
C11   C     C_R   0.239487 0.429823 0.614922 -0.029694
C12   C     C_R   0.760800 0.578710 0.393678 -0.103367
C13   C     C_R   0.209604 0.514018 0.505523 0.080366
C14   C     C_R   0.790679 0.492455 0.500684 0.157038
C15   C     C_2   0.496558 0.033675 0.426397 -0.287006
C16   C     C_2   0.503425 0.966323 0.573604 -0.286038
C17   C     C_R   0.391146 0.501151 0.502875 0.783893
C18   C     C_R   0.608841 0.499083 0.497178 0.782108
C19   C     C_R   0.883438 0.625759 0.598457 0.663840
C20   C     C_R   0.116849 0.381224 0.406228 0.609819
C21   C     C_R   0.876436 0.370216 0.400957 0.646699
C22   C     C_R   0.123803 0.636873 0.603423 0.569425
C23   C     C_R   0.936425 0.365606 0.409301 -0.112079
C24   C     C_R   0.063819 0.641701 0.594293 -0.129778
C25   C     C_R   0.970062 0.501945 0.502334 -0.131941
C26   C     C_R   0.030185 0.505362 0.501248 -0.131125
C27   C     C_R   0.943491 0.634544 0.597232 -0.102139
C28   C     C_R   0.056766 0.372731 0.406480 -0.098891
C29   C     C_R   0.963452 0.229983 0.325056 0.318400
C30   C     C_R   0.036785 0.777493 0.677939 0.311420
C31   C     C_R   0.023249 0.235206 0.317170 0.407413
C32   C     C_R   0.976990 0.772278 0.685889 0.404184
Cu1   Cu    Cu3+1 0.506340 0.517380 0.684380 1.022861
Cu2   Cu    Cu3+1 0.493660 0.482620 0.315620 1.023210
H1    H     H_    0.216123 0.364604 0.696553 0.188337
H2    H     H_    0.784235 0.646990 0.315532 0.192163
H3    H     H_    0.452555 0.387508 0.950185 0.232434
H4    H     H_    0.547443 0.612496 0.049818 0.230751
N1    N     N_R   0.851762 0.495903 0.500613 -0.447859
N2    N     N_R   0.148505 0.510783 0.504853 -0.480504
N3    N     N_2   0.484110 0.456420 0.038520 -0.196537
N4    N     N_2   0.515890 0.543580 0.961480 -0.197644
O1    O     O_R   0.504120 0.286130 0.619770 -0.621598
O2    O     O_R   0.495880 0.713870 0.380230 -0.621642
O3    O     O_R   0.493410 0.256770 0.308360 -0.542448
O4    O     O_R   0.506590 0.743230 0.691640 -0.542553
O5    O     O_R   0.423230 0.514630 0.655730 -0.574214
O6    O     O_R   0.576770 0.485370 0.344270 -0.579910
O7    O     O_R   0.412530 0.485280 0.344320 -0.544076
O8    O     O_R   0.587470 0.514720 0.655680 -0.543847
O9    O     O_2   0.856411 0.745383 0.696053 -0.433644
O10   O     O_2   0.143930 0.261468 0.309150 -0.426082
O11   O     O_2   0.842612 0.252074 0.292109 -0.480502
O12   O     O_2   0.157595 0.755170 0.712110 -0.452707
O13   O     O_3   0.932842 0.089100 0.255984 -0.669358
H5    H     H_    0.908655 0.070927 0.354340 0.371279
O14   O     O_3   0.067391 0.918452 0.746550 -0.668881
H6    H     H_    0.091719 0.936130 0.648323 0.367440
O15   O     O_3   0.050136 0.105066 0.230435 -0.639227
H7    H     H_    0.021773 0.019891 0.167238 0.375297
O16   O     O_3   0.950087 0.902572 0.772096 -0.634323
H8    H     H_    0.978436 0.988003 0.834636 0.379124
C33   C     C_2   0.205598 0.681677 0.273855 0.545746
H9    H     H_    0.159282 0.675115 0.266263 0.041586
O17   O     O_2   0.229051 0.757517 0.178252 -0.416142
C34   C     C_2   0.791560 0.314572 0.726250 0.506550
H10   H     H_    0.768334 0.226275 0.777923 0.150776
O18   O     O_2   0.842456 0.340873 0.774699 -0.531972
O19   O     O_3   0.327576 0.697035 0.311219 -0.620587
H11   H     H_    0.365301 0.733905 0.378835 0.331157
O20   O     O_3   0.672700 0.299515 0.683470 -0.704174
H12   H     H_    0.634661 0.264796 0.617067 0.343149
O21   O     O_3   0.323551 0.323621 0.712260 -0.679916
H13   H     H_    0.359566 0.289896 0.659036 0.322491
O22   O     O_3   0.676574 0.684123 0.296089 -0.688600
H14   H     H_    0.639636 0.713165 0.345692 0.319667
C35   C     C_2   0.492126 0.946206 0.228255 0.525361
H15   H     H_    0.526822 0.877655 0.173744 0.080937
O23   O     O_2   0.449889 0.952857 0.125413 -0.508326
C36   C     C_2   0.507843 0.053790 0.771745 0.523356
H16   H     H_    0.473143 0.122342 0.826225 0.084632
O24   O     O_2   0.550071 0.047138 0.874623 -0.519247

loop_
_geom_bond_atom_site_label_1
_geom_bond_atom_site_label_2
_ccdc_geom_bond_type
C34   O18   D    
O13   H5    S    
C33   O17   D    
O21   H13   S    
C22   O12   S    
C35   H15   S    
C2    O4    A    
Cu1   N4    S    
C23   C29   A    
C24   C26   A    
C32   O16   S    
H4    N4    S    
C20   N2    A    
C15   C16   D    
C30   O14   S    
N3    N4    D    
C31   O15   S    
C13   N2    S    
C5    O19   S    
C14   N1    S    
C1    O1    A    
C2    O2    A    
C7    C17   S    
C1    C15   S    
C12   H2    S    
C2    C16   S    
C3    C13   A    
C34   H10   S    
O15   H7    S    
H3    N3    S    
Cu1   O4    S    
O19   H11   S    
Cu2   N3    S    
C9    O21   S    
C10   C12   A    
C35   O23   D    
C6    O20   S    
Cu1   O1    S    
Cu2   O2    S    
C4    C6    A    
C17   O7    A    
C5    C7    A    
C6    C8    A    
C29   O13   S    
C25   C26   A    
C8    C18   S    
C16   C36   S    
O22   H14   S    
C21   O11   S    
C10   O22   S    
C21   N1    A    
C22   N2    A    
Cu1   Cu2   S    
Cu2   O3    S    
C9    C11   A    
C19   N1    A    
C36   O24   D    
C12   C14   A    
C21   C23   A    
Cu1   O5    S    
C22   C24   A    
C8    C10   A    
Cu2   O6    S    
C19   C27   A    
C18   O8    A    
C7    C9    A    
Cu2   O7    S    
C27   C32   A    
C28   C31   A    
C17   O5    A    
C36   H16   S    
C3    C5    A    
C18   O6    A    
C3    C33   S    
C25   C27   A    
C20   C28   A    
C26   C28   A    
C11   H1    S    
Cu1   O8    S    
O20   H12   S    
C20   O10   S    
C30   C32   A    
C11   C13   A    
C1    O3    A    
O14   H6    S    
C15   C35   S    
C23   C25   A    
C4    C14   A    
O16   H8    S    
C24   C30   A    
C33   H9    S    
C19   O9    S    
C4    C34   S    
C29   C31   A    
