data_mof_unit_47727.cif
_audit_creation_date              2012-12-10T18:09:03-0500
_audit_creation_method            fapswitch 2.2
_symmetry_space_group_name_H-M    P1
_symmetry_Int_Tables_number       1
_space_group_crystal_system       triclinic
_cell_length_a                    12.622801
_cell_length_b                    13.219866
_cell_length_c                    13.632589
_cell_angle_alpha                 90.061821
_cell_angle_beta                  96.280802
_cell_angle_gamma                 97.836064
_cell_volume                      2239.8286674

loop_
_atom_site_label
_atom_site_type_symbol
_atom_type_description
_atom_site_fract_x
_atom_site_fract_y
_atom_site_fract_z
_atom_type_partial_charge
C1    C     C_R   0.559330 0.691120 0.514675 0.840070
C2    C     C_R   0.458919 0.031228 0.483485 0.057301
C3    C     C_R   0.353153 0.991304 0.503346 0.113734
C4    C     C_R   0.516417 0.495927 0.318308 0.887238
C5    C     C_R   0.335828 0.894286 0.544615 -0.030242
C6    C     C_R   0.422401 0.840095 0.564004 -0.224212
C7    C     C_R   0.483918 0.136084 0.478213 -0.234113
C8    C     C_R   0.296652 0.157697 0.473890 -0.175245
C9    C     C_R   0.595747 0.800890 0.517904 -0.098767
C10   C     C_R   0.900105 0.434782 0.688922 -0.309947
C11   C     C_R   0.212253 0.612265 0.370228 0.001207
C12   C     C_1   0.524812 0.489446 0.217001 -0.176884
C13   C     C_R   0.114536 0.647209 0.345213 -0.285388
C14   C     C_R   0.028691 0.619873 0.401062 0.148520
C15   C     C_R   0.041858 0.550628 0.480756 -0.034880
C16   C     C_R   0.440518 0.308980 0.486138 0.883971
C17   C     C_R   0.146124 0.523030 0.508258 0.115819
C18   C     C_R   0.957489 0.506213 0.534910 -0.047397
C19   C     C_R   0.982892 0.473149 0.632871 0.136357
C20   C     C_R   0.090345 0.469689 0.668781 0.002063
C21   C     C_R   0.163484 0.470322 0.598796 -0.045678
C22   C     C_R   0.849603 0.487247 0.494069 -0.049124
C23   C     C_R   0.270866 0.053781 0.490334 -0.196383
C24   C     C_R   0.795777 0.419256 0.644763 0.027585
C25   C     C_R   0.483965 0.505253 0.681771 0.903691
C26   C     C_1   0.478081 0.520171 0.782770 -0.199818
C27   C     C_2   0.476613 0.547076 0.971509 0.120309
C28   C     C_2   0.529368 0.482939 0.027233 -0.194158
C29   C     C_1   0.529787 0.484633 0.130806 -0.002200
C30   C     C_1   0.474856 0.534458 0.868304 -0.048446
C31   C     C_3   0.125838 0.452892 0.777664 -0.412407
C32   C     C_3   0.108923 0.339937 0.807952 -0.341606
C33   C     C_3   0.108294 0.330227 0.919428 -0.890197
C34   C     C_R   0.404888 0.199738 0.476641 -0.055431
C35   C     C_3   0.935117 0.681134 0.383255 -0.426811
C36   C     C_3   0.869722 0.655538 0.282177 -0.354124
C37   C     C_3   0.765311 0.702693 0.272716 -0.863504
C38   C     C_1   0.226070 0.387385 0.612066 0.267366
C39   C     C_3   0.417960 0.627960 0.011963 -0.377379
C40   C     C_3   0.304791 0.582581 0.033936 -0.332864
C41   C     C_3   0.247608 0.662727 0.079150 -0.894180
C42   C     C_1   0.232780 0.851294 0.574308 0.148344
C43   C     C_1   0.656403 0.077951 0.372013 0.121331
C44   C     C_R   0.698173 0.835391 0.491161 -0.219140
C45   C     C_R   0.719324 0.931602 0.451890 -0.187157
C46   C     C_R   0.639065 0.994811 0.439912 0.018401
C47   C     C_R   0.540264 0.967348 0.482418 0.024728
C48   C     C_R   0.520298 0.869679 0.523447 0.056699
H1    H     H_    0.569930 0.425971 0.994441 0.147264
H2    H     H_    0.567234 0.169423 0.485610 0.176619
H3    H     H_    0.757992 0.784218 0.489845 0.168597
H4    H     H_    0.795448 0.952838 0.422321 0.146037
H5    H     H_    0.186215 0.366462 0.958157 0.261940
H6    H     H_    0.041794 0.367066 0.944622 0.259265
H7    H     H_    0.096281 0.248243 0.938927 0.256552
H8    H     H_    0.032597 0.298760 0.770790 0.225578
H9    H     H_    0.175111 0.300655 0.786264 0.236569
H10   H     H_    0.212623 0.483048 0.794446 0.201156
H11   H     H_    0.082744 0.500021 0.823282 0.206462
H12   H     H_    0.411029 0.771905 0.607797 0.171740
H13   H     H_    0.713433 0.671355 0.329287 0.269321
H14   H     H_    0.782896 0.787004 0.282036 0.259836
H15   H     H_    0.720901 0.684391 0.198564 0.250625
H16   H     H_    0.918083 0.685642 0.222549 0.219399
H17   H     H_    0.850103 0.571641 0.270529 0.224031
H18   H     H_    0.882965 0.672697 0.443722 0.203803
H19   H     H_    0.967806 0.763739 0.385277 0.201676
H20   H     H_    0.293825 0.693367 0.149384 0.257805
H21   H     H_    0.238705 0.726449 0.027181 0.265825
H22   H     H_    0.166341 0.627498 0.094891 0.248373
H23   H     H_    0.731511 0.391050 0.687984 0.143923
H24   H     H_    0.256580 0.552751 0.964398 0.220845
H25   H     H_    0.309529 0.518410 0.086129 0.233917
H26   H     H_    0.464906 0.663763 0.079959 0.202983
H27   H     H_    0.411587 0.689792 0.957218 0.195502
H28   H     H_    0.914348 0.413837 0.765293 0.160153
H29   H     H_    0.824417 0.505412 0.419132 0.148073
H30   H     H_    0.278620 0.636354 0.327992 0.150699
H31   H     H_    0.107683 0.699929 0.284803 0.148589
H32   H     H_    0.233310 0.205610 0.467525 0.163979
H33   H     H_    0.188029 0.024259 0.498498 0.146593
N1    N     N_R   0.773270 0.445590 0.549770 -0.105596
N2    N     N_R   0.227520 0.553880 0.450750 -0.122309
N3    N     N_1   0.272648 0.318869 0.629719 -0.250702
N4    N     N_1   0.150362 0.816595 0.597897 -0.216330
N5    N     N_1   0.670520 0.144244 0.317491 -0.202343
O1    O     O_R   0.631100 0.627590 0.523760 -0.614984
O2    O     O_R   0.455900 0.662370 0.491970 -0.615270
O3    O     O_R   0.600200 0.480080 0.377830 -0.610143
O4    O     O_R   0.425000 0.514870 0.346040 -0.620162
O5    O     O_R   0.544100 0.337630 0.508030 -0.617902
O6    O     O_R   0.368900 0.372410 0.476240 -0.612075
O7    O     O_R   0.575000 0.485130 0.653960 -0.620318
O8    O     O_R   0.399800 0.519920 0.622170 -0.616772
Zn1   Zn    Zn3+2 0.616980 0.476780 0.521230 0.941377
Zn2   Zn    Zn3+2 0.383020 0.523220 0.478770 0.942750

loop_
_geom_bond_atom_site_label_1
_geom_bond_atom_site_label_2
_ccdc_geom_bond_type
C1    O1    A    
C15   C18   A    
C5    C42   S    
O2    Zn2   S    
C25   O7    A    
C12   C29   T    
C3    C23   A    
C2    C7    A    
C13   H31   S    
C37   H14   S    
C45   C46   A    
C6    C48   A    
C22   N1    A    
C31   H10   S    
C28   C29   S    
C5    C6    A    
O6    Zn2   S    
C8    C23   A    
C40   H25   S    
C18   C19   A    
C39   H26   S    
C31   H11   S    
C24   N1    A    
C16   C34   S    
C10   H28   S    
C21   C38   S    
C31   C32   S    
C27   C39   S    
O1    Zn1   S    
C39   H27   S    
C4    C12   S    
C40   H24   S    
C1    O2    A    
C25   O8    A    
O7    Zn1   S    
C13   C14   A    
C27   C30   S    
C32   H9    S    
C37   H15   S    
C41   H20   S    
C4    O4    A    
C33   H5    S    
C6    H12   S    
C1    C9    S    
C7    H2    S    
C39   C40   S    
C36   H17   S    
C45   H4    S    
C11   N2    A    
C25   C26   S    
O4    Zn2   S    
C17   C21   A    
C17   N2    A    
C35   C36   S    
O3    Zn1   S    
C11   H30   S    
C28   H1    S    
C47   C48   A    
C35   H19   S    
C10   C19   A    
C33   H7    S    
C42   N4    T    
C8    C34   A    
O8    Zn2   S    
C9    C48   A    
C44   H3    S    
C40   C41   S    
C26   C30   T    
C7    C34   A    
C14   C35   S    
C44   C45   A    
C41   H21   S    
C4    O3    A    
C33   H6    S    
C15   C17   A    
C46   C47   A    
C36   C37   S    
C9    C44   A    
N1    Zn1   S    
C23   H33   S    
C38   N3    T    
C18   C22   A    
C43   N5    T    
C22   H29   S    
C3    C5    A    
C37   H13   S    
C16   O6    A    
C2    C47   A    
C35   H18   S    
C10   C24   A    
C32   C33   S    
C19   C20   A    
C2    C3    A    
C11   C13   A    
N2    Zn2   S    
C43   C46   S    
O5    Zn1   S    
C20   C21   A    
C16   O5    A    
C27   C28   D    
C8    H32   S    
C14   C15   A    
C36   H16   S    
C32   H8    S    
C24   H23   S    
C41   H22   S    
C20   C31   S    
