data_mof_unit_50260.cif
_audit_creation_date              2012-12-10T21:27:25-0500
_audit_creation_method            fapswitch 2.2
_symmetry_space_group_name_H-M    P1
_symmetry_Int_Tables_number       1
_space_group_crystal_system       triclinic
_cell_length_a                    10.49195
_cell_length_b                    16.241221
_cell_length_c                    16.638775
_cell_angle_alpha                 85.404137
_cell_angle_beta                  91.203722
_cell_angle_gamma                 102.98945
_cell_volume                      2753.83493659

loop_
_atom_site_label
_atom_site_type_symbol
_atom_type_description
_atom_site_fract_x
_atom_site_fract_y
_atom_site_fract_z
_atom_type_partial_charge
C1    C     C_R   0.498586 0.487004 0.653114 0.853023
C2    C     C_R   0.499803 0.512671 0.347241 0.932257
C3    C     C_R   0.383315 0.416204 0.778068 0.103020
C4    C     C_R   0.368318 0.537963 0.226679 0.107038
C5    C     C_R   0.454239 0.740540 0.573629 -0.128051
C6    C     C_R   0.550804 0.253071 0.553872 -0.122708
C7    C     C_R   0.438851 0.823731 0.579544 0.036987
C8    C     C_R   0.568751 0.170156 0.563097 0.043300
C9    C     C_R   0.491829 0.888040 0.519665 0.220651
C10   C     C_R   0.509905 0.111577 0.508193 0.211505
C11   C     C_R   0.567390 0.867647 0.456887 0.044356
C12   C     C_R   0.430244 0.138243 0.445024 0.044961
C13   C     C_R   0.574062 0.781001 0.451924 0.226613
C14   C     C_R   0.422240 0.225729 0.435827 0.231163
C15   C     C_R   0.743958 0.532205 0.506343 0.909744
C16   C     C_R   0.256055 0.466454 0.503216 0.913767
C17   C     C_2   0.882215 0.542735 0.525075 -0.443957
C18   C     C_2   0.117163 0.451078 0.518774 -0.438997
C19   C     C_2   0.927893 0.484601 0.573575 0.187347
C20   C     C_2   0.068718 0.492235 0.574208 0.222648
C21   C     C_R   0.491209 0.474898 0.740546 -0.135715
C22   C     C_R   0.487690 0.523840 0.260659 -0.117093
C23   C     C_R   0.585806 0.527332 0.786535 0.093597
C24   C     C_R   0.595722 0.523044 0.212258 0.087085
C25   C     C_R   0.563427 0.528241 0.868075 -0.223284
C26   C     C_R   0.584181 0.537257 0.129584 -0.248862
C27   C     C_R   0.453932 0.475059 0.905625 0.186850
C28   C     C_R   0.467229 0.549271 0.094644 0.185686
C29   C     C_R   0.365972 0.415706 0.862449 0.165000
C30   C     C_R   0.357703 0.550321 0.141756 0.173595
H1    H     H_    0.051553 0.408443 0.481128 0.135911
H2    H     H_    0.949095 0.598401 0.497503 0.151107
H3    H     H_    0.665517 0.536060 0.090858 0.157172
H4    H     H_    0.633369 0.570105 0.903712 0.169118
H5    H     H_    0.592636 0.296855 0.597735 0.165598
H6    H     H_    0.413800 0.691684 0.619739 0.176695
N1    N     N_2   0.439480 0.476775 0.989290 -0.178124
N2    N     N_2   0.458621 0.550292 0.010605 -0.193027
N3    N     N_R   0.515370 0.719110 0.509820 -0.123271
N4    N     N_R   0.484630 0.280890 0.490180 -0.126498
N5    N     N_2   0.454903 0.968161 0.519721 -0.169288
N6    N     N_2   0.547387 0.031710 0.511813 -0.172031
O1    O     O_R   0.494500 0.421750 0.612630 -0.622205
O2    O     O_R   0.505500 0.578250 0.387370 -0.614827
O3    O     O_R   0.504370 0.562470 0.618930 -0.631784
O4    O     O_R   0.495630 0.437530 0.381070 -0.616917
O5    O     O_R   0.679100 0.455920 0.498020 -0.609702
O6    O     O_R   0.320900 0.544080 0.501980 -0.589619
O7    O     O_R   0.688960 0.596630 0.504320 -0.627851
O8    O     O_R   0.311040 0.403370 0.495680 -0.619146
Zn1   Zn    Zn3+2 0.493410 0.406040 0.495790 0.906763
Zn2   Zn    Zn3+2 0.506590 0.593960 0.504210 0.910846
C31   C     C_3   0.148195 0.543090 0.638404 -0.367112
C32   C     C_3   0.140320 0.635801 0.628353 -0.899066
H7    H     H_    0.179200 0.664602 0.568537 0.274449
H8    H     H_    0.038089 0.642548 0.633961 0.259774
H9    H     H_    0.198185 0.669994 0.676808 0.250342
H10   H     H_    0.109554 0.516684 0.698793 0.200386
H11   H     H_    0.251916 0.539185 0.639519 0.216468
C33   C     C_3   0.840297 0.406456 0.616231 -0.354052
C34   C     C_3   0.907116 0.361478 0.683364 -0.955995
H12   H     H_    0.989565 0.338438 0.659312 0.272221
H13   H     H_    0.942803 0.404357 0.731306 0.257042
H14   H     H_    0.835380 0.306073 0.710932 0.262479
H15   H     H_    0.755937 0.424565 0.643669 0.215664
H16   H     H_    0.804956 0.360622 0.570455 0.218028
C35   C     C_3   0.643853 0.756623 0.381808 -0.361502
C36   C     C_3   0.557604 0.747176 0.306003 -0.847255
H17   H     H_    0.457168 0.710852 0.320952 0.274388
H18   H     H_    0.549318 0.809289 0.276528 0.227524
H19   H     H_    0.600647 0.713567 0.261757 0.255073
H20   H     H_    0.737714 0.802293 0.368046 0.177149
H21   H     H_    0.675078 0.697631 0.398154 0.248246
C37   C     C_3   0.347672 0.259189 0.366402 -0.363649
C38   C     C_3   0.430932 0.281642 0.289861 -0.854594
H22   H     H_    0.530196 0.318970 0.303261 0.271114
H23   H     H_    0.442196 0.224007 0.262011 0.231960
H24   H     H_    0.383195 0.319628 0.245186 0.252246
H25   H     H_    0.255308 0.213592 0.353629 0.182306
H26   H     H_    0.315622 0.315866 0.382739 0.245360
C39   C     C_3   0.723375 0.505896 0.246451 -0.402330
C40   C     C_3   0.810489 0.585267 0.277660 -0.885193
H27   H     H_    0.828312 0.637820 0.229358 0.262050
H28   H     H_    0.764355 0.605014 0.329875 0.252824
H29   H     H_    0.905906 0.571741 0.297573 0.247126
H30   H     H_    0.704818 0.454210 0.295468 0.212414
H31   H     H_    0.778267 0.483633 0.199257 0.204643
C41   C     C_3   0.712394 0.582338 0.751463 -0.378417
C42   C     C_3   0.832111 0.557248 0.791486 -0.898992
H32   H     H_    0.843011 0.575056 0.854694 0.253474
H33   H     H_    0.822868 0.487899 0.791139 0.270608
H34   H     H_    0.921841 0.590533 0.758238 0.258695
H35   H     H_    0.721091 0.577327 0.685898 0.215744
H36   H     H_    0.715631 0.649871 0.760334 0.206765
C43   C     C_3   0.251740 0.356467 0.906841 -0.387396
C44   C     C_3   0.128585 0.391844 0.898024 -0.885880
H37   H     H_    0.146318 0.455256 0.922119 0.271467
H38   H     H_    0.099349 0.398438 0.833939 0.260880
H39   H     H_    0.047032 0.348611 0.932064 0.249599
H40   H     H_    0.234076 0.291688 0.885986 0.198490
H41   H     H_    0.273385 0.347318 0.972109 0.207567
C45   C     C_3   0.231172 0.560807 0.100212 -0.383036
C46   C     C_3   0.132521 0.475850 0.098760 -0.871041
H42   H     H_    0.176362 0.429719 0.069609 0.274308
H43   H     H_    0.101484 0.448827 0.160403 0.262193
H44   H     H_    0.044465 0.484709 0.063985 0.242515
H45   H     H_    0.188708 0.607672 0.129203 0.194456
H46   H     H_    0.249210 0.587600 0.036891 0.211361
C47   C     C_3   0.289051 0.356126 0.727017 -0.883000
H47   H     H_    0.201808 0.318177 0.759042 0.239864
H48   H     H_    0.251607 0.392198 0.676070 0.229118
H49   H     H_    0.340590 0.310756 0.702915 0.254058
C48   C     C_3   0.254443 0.536459 0.282357 -0.913238
H50   H     H_    0.165153 0.547996 0.251683 0.243571
H51   H     H_    0.227547 0.473640 0.316840 0.225710
H52   H     H_    0.282411 0.586163 0.325394 0.248934
C49   C     C_3   0.650399 0.145121 0.632874 -0.390820
C50   C     C_3   0.791685 0.152994 0.607237 -0.858689
H53   H     H_    0.796564 0.108793 0.560726 0.264714
H54   H     H_    0.834876 0.218369 0.582041 0.262930
H55   H     H_    0.850615 0.137591 0.660195 0.246171
H56   H     H_    0.649488 0.186140 0.683130 0.191027
H57   H     H_    0.608264 0.079060 0.657247 0.215492
C51   C     C_3   0.372232 0.843921 0.653064 -0.384190
C52   C     C_3   0.236445 0.860112 0.633769 -0.850532
H58   H     H_    0.180065 0.854380 0.690461 0.242046
H59   H     H_    0.244164 0.925071 0.605376 0.261282
H60   H     H_    0.181738 0.813842 0.592799 0.263016
H61   H     H_    0.362320 0.790984 0.700786 0.187468
H62   H     H_    0.434238 0.900322 0.679219 0.208076
C53   C     C_3   0.646319 0.937383 0.398837 -0.381791
C54   C     C_3   0.783090 0.971081 0.432564 -0.865846
H63   H     H_    0.777550 0.987572 0.495506 0.267993
H64   H     H_    0.842656 0.922652 0.432190 0.245730
H65   H     H_    0.833115 0.028455 0.395107 0.246152
H66   H     H_    0.656895 0.916263 0.338538 0.202269
H67   H     H_    0.597024 0.990006 0.384848 0.208296
C55   C     C_3   0.352435 0.074359 0.389991 -0.391667
C56   C     C_3   0.214703 0.037419 0.422670 -0.865103
H68   H     H_    0.219100 0.004052 0.483033 0.268468
H69   H     H_    0.160316 0.087987 0.427727 0.247439
H70   H     H_    0.160037 0.991363 0.381397 0.245764
H71   H     H_    0.400995 0.021874 0.382331 0.211320
H72   H     H_    0.345109 0.102639 0.327933 0.203637

loop_
_geom_bond_atom_site_label_1
_geom_bond_atom_site_label_2
_ccdc_geom_bond_type
C44   H39   S    
C1    C21   S    
C10   N6    S    
C11   C13   A    
N5    N6    D    
C19   C20   S    
C15   O5    A    
C7    C51   S    
C49   H56   S    
O1    Zn1   S    
C16   O6    A    
C39   C40   S    
C31   H11   S    
C31   C32   S    
C2    O4    A    
C14   C37   S    
C22   C24   A    
C24   C26   A    
C55   H71   S    
C47   H48   S    
C56   H70   S    
C27   C29   A    
C5    H6    S    
C6    H5    S    
C34   H13   S    
C35   H20   S    
C3    C29   A    
C50   H53   S    
C41   H35   S    
C1    O1    A    
C43   C44   S    
C2    O2    A    
C36   H17   S    
C44   H38   S    
C2    C22   S    
C52   H60   S    
C45   H46   S    
C35   H21   S    
C42   H33   S    
C18   C20   D    
C39   H30   S    
C25   H4    S    
C9    C11   A    
C48   H52   S    
O2    Zn2   S    
C23   C25   A    
N3    Zn2   S    
C33   H16   S    
C37   H26   S    
C45   C46   S    
C8    C49   S    
C41   H36   S    
C32   H8    S    
C37   C38   S    
C35   C36   S    
C4    C48   S    
C53   H66   S    
C47   H49   S    
C29   C43   S    
C43   H40   S    
C54   H63   S    
C6    C8    A    
O3    Zn2   S    
O4    Zn1   S    
C3    C47   S    
C33   C34   S    
C50   H55   S    
C34   H14   S    
C38   H22   S    
N1    N2    D    
C53   H67   S    
C4    C22   A    
C26   H3    S    
C24   C39   S    
C28   N2    S    
C31   H10   S    
O7    Zn2   S    
C44   H37   S    
C30   C45   S    
O8    Zn1   S    
C51   H62   S    
C45   H45   S    
C46   H43   S    
C16   C18   S    
C42   H34   S    
C38   H23   S    
C39   H31   S    
C10   C12   A    
C36   H19   S    
C54   H64   S    
C12   C14   A    
C33   H15   S    
C40   H28   S    
C23   C41   S    
C21   C23   A    
C52   H58   S    
C6    N4    A    
C3    C21   A    
C53   C54   S    
C40   H29   S    
C5    C7    A    
C48   H50   S    
C13   C35   S    
C7    C9    A    
C32   H7    S    
C26   C28   A    
C8    C10   A    
C16   O8    A    
C20   C31   S    
C11   C53   S    
O5    Zn1   S    
C56   H68   S    
C15   C17   S    
C19   C33   S    
C25   C27   A    
N4    Zn1   S    
C9    N5    S    
C37   H25   S    
C5    N3    A    
C49   H57   S    
C55   H72   S    
C49   C50   S    
C56   H69   S    
C1    O3    A    
C27   N1    S    
C54   H65   S    
C28   C30   A    
C17   C19   D    
C51   H61   S    
C46   H44   S    
C12   C55   S    
C15   O7    A    
C34   H12   S    
C38   H24   S    
C50   H54   S    
C13   N3    A    
C55   C56   S    
C14   N4    A    
O6    Zn2   S    
C41   C42   S    
C36   H18   S    
C40   H27   S    
C46   H42   S    
C52   H59   S    
C17   H2    S    
C18   H1    S    
C42   H32   S    
C47   H47   S    
C4    C30   A    
C43   H41   S    
C51   C52   S    
C48   H51   S    
C32   H9    S    
