data_mof_unit_52660.cif
_audit_creation_date              2012-12-10T18:12:39-0500
_audit_creation_method            fapswitch 2.2
_symmetry_space_group_name_H-M    P1
_symmetry_Int_Tables_number       1
_space_group_crystal_system       triclinic
_cell_length_a                    12.760697
_cell_length_b                    13.109387
_cell_length_c                    15.704536
_cell_angle_alpha                 93.036371
_cell_angle_beta                  102.84483
_cell_angle_gamma                 81.767188
_cell_volume                      2534.38497066

loop_
_atom_site_label
_atom_site_type_symbol
_atom_type_description
_atom_site_fract_x
_atom_site_fract_y
_atom_site_fract_z
_atom_type_partial_charge
C1    C     C_R   0.439089 0.690739 0.486195 0.847950
C2    C     C_3   0.502534 0.506039 0.917624 0.147998
C3    C     C_3   0.458130 0.418911 0.015094 -0.212339
C4    C     C_3   0.497132 0.502082 0.082808 0.129219
C5    C     C_3   0.561123 0.421331 0.980438 0.479898
C6    C     C_3   0.601991 0.502188 0.049731 -0.312766
C7    C     C_1   0.504628 0.504575 0.826866 0.062781
C8    C     C_1   0.494777 0.500401 0.173250 -0.039753
C9    C     C_R   0.707294 0.055694 0.450550 -0.207878
C10   C     C_R   0.595849 0.198564 0.503878 -0.057970
C11   C     C_R   0.298041 0.840279 0.488671 -0.300122
C12   C     C_R   0.501465 0.500759 0.661702 0.886828
C13   C     C_R   0.266518 0.946472 0.491241 0.057636
C14   C     C_R   0.341240 0.012420 0.484445 -0.180364
C15   C     C_R   0.445701 0.972533 0.470794 0.038749
C16   C     C_R   0.468281 0.866577 0.452654 0.086879
C17   C     C_R   0.528890 0.034224 0.474889 0.090320
C18   C     C_R   0.625169 0.993883 0.446732 0.177341
C19   C     C_R   0.637366 0.892914 0.414571 -0.249679
C20   C     C_R   0.559566 0.829918 0.417065 -0.193124
C21   C     C_R   0.520110 0.134278 0.508938 -0.253114
C22   C     C_R   0.692227 0.158415 0.478363 -0.180801
C23   C     C_R   0.560760 0.308760 0.509277 0.878530
C24   C     C_R   0.399869 0.800069 0.472278 -0.098188
C25   C     C_R   0.096948 0.336969 0.383455 -0.227517
C26   C     C_R   0.798181 0.633526 0.601939 0.027681
C27   C     C_R   0.900882 0.663579 0.623308 -0.241219
C28   C     C_R   0.982657 0.612594 0.584993 -0.167633
C29   C     C_R   0.962581 0.530246 0.524445 -0.055310
C30   C     C_R   0.856114 0.501289 0.504134 0.175895
C31   C     C_R   0.044101 0.476062 0.483278 -0.019740
C32   C     C_R   0.019609 0.392626 0.424620 0.139932
C33   C     C_R   0.917818 0.364719 0.405990 -0.356646
C34   C     C_R   0.498410 0.499623 0.338288 0.899288
C35   C     C_R   0.835838 0.417958 0.442429 0.431755
C36   C     C_R   0.150128 0.500352 0.497272 -0.022009
C37   C     C_R   0.199222 0.364864 0.400096 0.017351
C38   C     C_3   0.436826 0.589225 0.021436 -0.208335
C39   C     C_3   0.540783 0.587837 0.986232 -0.013112
C40   C     C_1   0.504359 0.502864 0.751341 -0.136014
C41   C     C_1   0.495068 0.499609 0.248671 -0.190075
C42   C     C_3   0.398370 0.506078 0.951715 -0.235235
H1    H     H_    0.452650 0.165445 0.537676 0.161252
H2    H     H_    0.243944 0.789042 0.501367 0.150987
H3    H     H_    0.315185 0.094293 0.487514 0.172838
H4    H     H_    0.571410 0.752432 0.390343 0.169797
H5    H     H_    0.261166 0.323005 0.369657 0.134259
H6    H     H_    0.901019 0.300316 0.360983 0.150646
H7    H     H_    0.078357 0.272787 0.338834 0.149694
H8    H     H_    0.178291 0.561947 0.540531 0.118683
H9    H     H_    0.734461 0.673321 0.631522 0.152647
H10   H     H_    0.385673 0.658734 0.040424 0.148794
H11   H     H_    0.060750 0.639211 0.604266 0.135775
H12   H     H_    0.917184 0.726573 0.669597 0.158508
H13   H     H_    0.685172 0.499343 0.090955 0.152967
H14   H     H_    0.425683 0.348764 0.028740 0.149474
H15   H     H_    0.315489 0.508185 0.910113 0.163126
H16   H     H_    0.753611 0.206603 0.476621 0.189125
H17   H     H_    0.708169 0.861874 0.389385 0.149183
H18   H     H_    0.781291 0.025576 0.429522 0.145335
N1    N     N_R   0.222180 0.444680 0.455580 -0.108411
N2    N     N_R   0.776980 0.554790 0.543960 -0.114696
O1    O     O_R   0.366730 0.627160 0.478790 -0.617493
O2    O     O_R   0.544830 0.662520 0.507160 -0.625926
O3    O     O_R   0.410960 0.482330 0.609040 -0.614416
O4    O     O_R   0.589060 0.517690 0.637410 -0.600739
O5    O     O_R   0.455170 0.337480 0.492840 -0.626964
O6    O     O_R   0.633270 0.372840 0.521210 -0.543102
O7    O     O_R   0.410940 0.482310 0.362590 -0.618356
O8    O     O_R   0.589040 0.517670 0.390960 -0.556971
Zn1   Zn    Zn3+2 0.381080 0.476390 0.481050 0.948274
Zn2   Zn    Zn3+2 0.618920 0.523610 0.518950 0.991111
C43   C     C_2   0.586519 0.682942 0.971995 0.402950
H19   H     H_    0.610219 0.735006 0.026665 0.058860
O9    O     O_2   0.597374 0.702408 0.899585 -0.560423
C44   C     C_2   0.157047 0.987149 0.504961 0.386781
H20   H     H_    0.101535 0.934273 0.512080 0.053276
O10   O     O_2   0.127282 0.079793 0.508220 -0.575481
O11   O     O_3   0.736499 0.386399 0.416497 -0.726813
H21   H     H_    0.732906 0.337169 0.365967 0.304911
O12   O     O_3   0.625734 0.334169 0.956208 -0.755062
H22   H     H_    0.652946 0.293668 0.010081 0.328511

loop_
_geom_bond_atom_site_label_1
_geom_bond_atom_site_label_2
_ccdc_geom_bond_type
C3    C42   S    
C43   H19   S    
C19   C20   A    
C6    H13   S    
C4    C8    S    
O12   H22   S    
C27   H12   S    
C10   C22   A    
C26   C27   A    
C30   C35   A    
C28   C29   A    
C44   O10   D    
C38   C42   S    
C31   C36   A    
C5    C6    S    
C9    C22   A    
C38   H10   S    
C15   C16   A    
C11   C24   A    
C18   C19   A    
C23   O5    A    
O7    Zn1   S    
C25   C37   A    
C21   H1    S    
C2    C39   S    
O4    Zn2   S    
C2    C7    S    
C7    C40   T    
C37   H5    S    
C34   O8    A    
O6    Zn2   S    
N1    Zn1   S    
C25   C32   A    
O2    Zn2   S    
C16   C24   A    
C13   C14   A    
C43   O9    D    
C34   C41   S    
C1    O1    A    
C42   H15   S    
C14   H3    S    
C10   C21   A    
C44   H20   S    
C4    C6    S    
C19   H17   S    
O3    Zn1   S    
C12   O4    A    
C17   C21   A    
C23   O6    A    
C12   C40   S    
C29   C30   A    
C5    O12   S    
C3    H14   S    
C31   C32   A    
C13   C44   S    
C16   C20   A    
C17   C18   A    
N2    Zn2   S    
C11   H2    S    
C8    C41   T    
C34   O7    A    
O1    Zn1   S    
C30   N2    A    
C2    C5    S    
C36   N1    A    
C1    O2    A    
C36   H8    S    
C15   C17   A    
C6    C39   S    
C4    C38   S    
C3    C5    S    
C22   H16   S    
C37   N1    A    
C28   H11   S    
C10   C23   S    
C12   O3    A    
C9    H18   S    
C32   C33   A    
C26   N2    A    
C29   C31   A    
C26   H9    S    
C11   C13   A    
C38   C39   S    
C2    C42   S    
C35   O11   S    
C33   C35   A    
O5    Zn1   S    
C39   C43   S    
C25   H7    S    
O11   H21   S    
C9    C18   A    
C1    C24   S    
C27   C28   A    
C33   H6    S    
C14   C15   A    
O8    Zn2   S    
C20   H4    S    
C3    C4    S    
