data_mof_unit_63445.cif
_audit_creation_date              2013-03-05T15:53:03-0500
_audit_creation_method            fapswitch 2.2
_symmetry_space_group_name_H-M    P1
_symmetry_Int_Tables_number       1
_space_group_crystal_system       triclinic
_cell_length_a                    8.338732
_cell_length_b                    17.445916
_cell_length_c                    18.784966
_cell_angle_alpha                 99.22744
_cell_angle_beta                  90.954128
_cell_angle_gamma                 96.887077
_cell_volume                      2676.15466843

loop_
_atom_site_label
_atom_site_type_symbol
_atom_site_description
_atom_site_fract_x
_atom_site_fract_y
_atom_site_fract_z
_atom_type_partial_charge
P1    P     P_3+3 0.048060 0.426210 0.336320 0.472978
O1    O     O_2   0.878040 0.448040 0.325130 -0.401563
O2    O     O_3   0.126800 0.453980 0.414370 -0.371429
O3    O     O_3   0.651020 0.589120 0.368830 -0.349140
O4    O     O_2   0.770668 0.534720 0.243159 -0.385893
O5    O     O_3   0.024691 0.323771 0.315087 -0.591522
O6    O     O_3   0.686861 0.674073 0.252669 -0.511376
H1    H     H_    0.722067 0.732739 0.357681 0.150888
C1    C     C_3   0.661112 0.809780 0.286043 -0.922588
H2    H     H_    0.788945 0.826601 0.273471 0.291235
H3    H     H_    0.582708 0.808651 0.237412 0.259743
P2    P     P_3+3 0.655920 0.678120 0.556130 0.526567
P3    P     P_3+3 0.106731 0.732129 0.407339 0.493959
O7    O     O_2   0.830300 0.688050 0.534560 -0.402217
O8    O     O_3   0.068750 0.630380 0.404830 -0.300858
O9    O     O_2   0.974971 0.769771 0.452685 -0.400520
O10   O     O_3   0.675425 0.701585 0.650167 -0.522331
O11   O     O_3   0.065504 0.749270 0.320046 -0.490719
C2    C     C_3   0.180725 0.717958 0.273820 0.357298
H4    H     H_    0.211325 0.660760 0.285708 0.085280
H5    H     H_    0.291604 0.760743 0.278240 0.063151
C3    C     C_3   0.113915 0.704404 0.196366 -0.809916
H6    H     H_    0.005712 0.659693 0.189854 0.285649
H7    H     H_    0.079835 0.759821 0.182114 0.269081
C4    C     C_3   0.208539 0.723920 0.643732 0.593907
H8    H     H_    0.222429 0.690471 0.589101 0.010505
C5    C     C_3   0.080038 0.779621 0.641694 0.025915
H9    H     H_    0.091500 0.806520 0.592038 0.144555
H10   H     H_    0.960252 0.746266 0.641336 0.152792
Ba1   Ba    Ba6+2 0.849550 0.533890 0.465080 1.603019
C6    C     C_3   0.936598 0.288489 0.366293 0.949188
H11   H     H_    0.841675 0.323630 0.388945 -0.022804
C7    C     C_3   0.855597 0.209059 0.328662 -0.759433
H12   H     H_    0.773105 0.216678 0.284029 0.211902
H13   H     H_    0.785415 0.178002 0.367308 0.204492
H14   H     H_    0.948362 0.172374 0.305747 0.266575
C8    C     C_3   0.711084 0.637066 0.680259 0.420924
H15   H     H_    0.823165 0.616673 0.657934 0.054684
H16   H     H_    0.610362 0.588690 0.669707 0.140023
C9    C     C_3   0.735111 0.662744 0.761468 -0.937763
H17   H     H_    0.845071 0.705923 0.773597 0.261720
H18   H     H_    0.748580 0.612164 0.788839 0.212841
H19   H     H_    0.628771 0.690149 0.783233 0.281496
P4    P     P_3+3 0.141640 0.573850 0.663690 0.480154
O12   O     O_2   0.311660 0.551990 0.674910 -0.363501
O13   O     O_3   0.062910 0.546080 0.585630 -0.391477
O14   O     O_3   0.538690 0.410940 0.631180 -0.385045
O15   O     O_3   0.166387 0.675807 0.695271 -0.615975
P5    P     P_3+3 0.084825 0.268832 0.595578 0.533480
O16   O     O_3   0.620260 0.406250 0.463620 -0.398031
O17   O     O_3   0.120960 0.369680 0.595180 -0.369927
O18   O     O_2   0.219579 0.231129 0.552486 -0.317117
O19   O     O_3   0.123123 0.255067 0.684084 -0.446347
Ba2   Ba    Ba6+2 0.340280 0.466170 0.534930 1.634768
P6    P     P_3+3 0.633978 0.580652 0.274514 0.464015
C10   C     C_3   0.642310 0.729682 0.309102 0.491993
H20   H     H_    0.514567 0.715264 0.322920 -0.013255
H21   H     H_    0.625440 0.853990 0.330358 0.218682
O20   O     O_3   0.569440 0.593820 0.536390 -0.341301
C11   C     C_3   0.477071 0.337543 0.315310 0.404416
H22   H     H_    0.357845 0.352430 0.334702 0.105302
H23   H     H_    0.568699 0.390163 0.326193 0.018251
C12   C     C_3   0.462204 0.310377 0.233989 -0.010689
H24   H     H_    0.434712 0.359671 0.206852 0.066856
H25   H     H_    0.578953 0.291696 0.214444 0.108098
P7    P     P_3+3 0.538021 0.307847 0.442182 0.506224
O21   O     O_2   0.359400 0.311980 0.465480 -0.288305
O22   O     O_3   0.525325 0.277306 0.348647 -0.543657
H26   H     H_    0.206961 0.683248 0.159067 0.203132
C13   C     C_3   0.982380 0.265496 0.722526 0.307215
H27   H     H_    0.943451 0.323665 0.719310 0.051648
H28   H     H_    0.885433 0.217951 0.701004 -0.042057
C14   C     C_3   0.012283 0.260233 0.801514 -0.009317
H29   H     H_    0.901185 0.270142 0.831678 0.070374
H30   H     H_    0.044216 0.201415 0.806884 0.187814
P8    P     P_3+3 0.559538 0.415027 0.724537 0.491621
C15   C     C_3   0.548515 0.265441 0.689816 0.443273
H31   H     H_    0.670874 0.284730 0.672013 -0.125167
O23   O     O_2   0.433118 0.466160 0.758836 -0.349957
O24   O     O_3   0.496037 0.321406 0.744011 -0.463817
H32   H     H_    0.463553 0.254882 0.642273 0.138859
H33   H     H_    0.613463 0.147659 0.677923 0.095344
C16   C     C_3   0.556936 0.188822 0.718307 -0.098713
H34   H     H_    0.631387 0.199908 0.769305 0.138614
C17   C     C_R   0.996301 0.465646 0.049059 0.029535
C18   C     C_R   0.899999 0.428155 0.097205 0.071788
C19   C     C_R   0.742945 0.394025 0.075500 -0.246949
C20   C     C_R   0.680664 0.395500 0.006340 0.333538
C21   C     C_R   0.776984 0.430633 0.956130 0.015830
C22   C     C_R   0.935342 0.466367 0.978039 0.028429
C23   C     C_R   0.720148 0.429673 0.884731 -0.168527
C24   C     C_R   0.819243 0.461497 0.833799 -0.039453
C25   C     C_R   0.976509 0.499293 0.856469 0.049314
C26   C     C_R   0.033316 0.502056 0.928978 0.080650
C27   C     C_R   0.767316 0.455541 0.760401 0.133020
C28   C     C_R   0.874673 0.483016 0.710880 -0.511110
C29   C     C_R   0.026069 0.524655 0.732573 0.294849
C30   C     C_R   0.077738 0.533982 0.806822 -0.030774
C31   C     C_R   0.154294 0.500693 0.071502 0.051527
C32   C     C_R   0.213882 0.499934 0.142872 0.013610
C33   C     C_R   0.113215 0.464324 0.192199 -0.045112
C34   C     C_R   0.960407 0.425333 0.166756 -0.085807
H35   H     H_    0.667292 0.366144 0.112701 0.142862
H36   H     H_    0.835173 0.476332 0.654838 0.166438
H37   H     H_    0.599572 0.402220 0.868373 0.230228
H38   H     H_    0.885590 0.392477 0.200552 0.147172
C35   C     C_R   0.228592 0.575461 0.833058 -0.084603
C36   C     C_R   0.287982 0.574479 0.903319 0.068787
C37   C     C_R   0.190877 0.537802 0.951690 0.046130
C38   C     C_R   0.252174 0.536593 0.022565 0.015732
C39   C     C_R   0.445889 0.608115 0.925099 -0.221028
C40   C     C_R   0.509063 0.605460 0.994024 0.322916
C41   C     C_R   0.412115 0.570369 0.043968 0.017684
C42   C     C_R   0.374030 0.534369 0.164581 -0.046621
C43   C     C_R   0.471369 0.568111 0.114328 -0.170299
C44   C     C_R   0.432089 0.532912 0.235822 0.163000
C45   C     C_R   0.330958 0.497258 0.282745 -0.489864
C46   C     C_R   0.170250 0.467582 0.264746 0.280558
H39   H     H_    0.304939 0.606952 0.798868 0.174212
H40   H     H_    0.522213 0.635482 0.887873 0.164977
H41   H     H_    0.594252 0.592371 0.129892 0.216590
H42   H     H_    0.380477 0.490141 0.334126 0.188680
H43   H     H_    0.290745 0.892158 0.442183 0.186671
C47   C     C_R   0.411749 0.719043 0.468194 -0.049900
C48   C     C_R   0.553503 0.746442 0.510125 0.260196
C49   C     C_R   0.607218 0.826894 0.522589 -0.253742
C50   C     C_R   0.515953 0.879387 0.495691 0.065141
C51   C     C_R   0.365312 0.851596 0.459981 -0.283698
C52   C     C_R   0.311516 0.771117 0.447058 0.101488
C53   C     C_R   0.584284 0.162199 0.485884 0.225872
C54   C     C_R   0.637718 0.242919 0.492259 0.166159
C55   C     C_R   0.882720 0.225474 0.556441 0.263946
C56   C     C_R   0.829939 0.145267 0.550939 -0.292578
C57   C     C_R   0.679409 0.113601 0.517001 -0.057892
C58   C     C_1   0.625479 0.030718 0.511557 0.099344
C59   C     C_1   0.576234 0.961754 0.505223 0.064540
C60   C     C_R   0.783014 0.274040 0.529861 -0.510238
H44   H     H_    0.906168 0.107746 0.572549 0.178696
H45   H     H_    0.718605 0.848498 0.553733 0.176121
H46   H     H_    0.823992 0.335940 0.534307 0.162230
O25   O     O_3   0.093133 0.839576 0.701903 -0.633271
H47   H     H_    0.061533 0.814631 0.744431 0.361292
O26   O     O_3   0.042203 0.276174 0.420607 -0.704725
H48   H     H_    0.060244 0.325947 0.454974 0.327220
O27   O     O_3   0.338377 0.247896 0.217614 -0.636387
H49   H     H_    0.332722 0.233787 0.164228 0.352544
Br1   Br    Br    0.185333 0.338801 0.843147 -0.375343
Br2   Br    Br    0.345060 0.138520 0.735927 -0.357608
Br3   Br    Br    0.463185 0.347005 0.985033 -0.489536
Br4   Br    Br    0.729761 0.650567 0.015928 -0.561509
Br5   Br    Br    0.388480 0.117036 0.431095 -0.418695
Br6   Br    Br    0.361758 0.610267 0.435503 -0.434920
Br7   Br    Br    0.407678 0.789628 0.677969 -0.436107

loop_
_geom_bond_atom_site_label_1
_geom_bond_atom_site_label_2
_geom_bond_distance
_ccdc_geom_bond_type
P7    O22   1.749958 S    
C19   C20   1.396311 A    
C12   H25   1.112838 S    
C25   C26   1.426170 A    
C43   H41   1.077454 S    
C5    H10   1.093396 S    
C14   H29   1.110716 S    
C23   H37   1.077849 S    
C27   C28   1.401560 A    
P8    O23   1.544669 D    
O6    P6    1.751379 S    
C51   C52   1.402661 A    
H1    C10   1.110670 S    
C42   C43   1.409136 A    
C58   C59   1.210099 T    
C15   H31   1.109619 S    
C10   H20   1.109600 S    
Ba1   Ba2   4.619553 S    
O16   Ba2   2.928872 S    
P3    O11   1.749194 S    
C14   Br1   1.927958 S    
C11   C12   1.523482 S    
C17   C31   1.411711 A    
C33   C46   1.426101 A    
C2    H5    1.109497 S    
O14   P8    1.748598 S    
P1    O1    1.531171 D    
C8    C9    1.522213 S    
P8    C27   1.862812 S    
O27   H49   0.992473 S    
O2    Ba2   2.821984 S    
P6    C44   1.866803 S    
C15   C16   1.526034 S    
O26   H48   0.989481 S    
C29   C30   1.431036 A    
C7    H14   1.111186 S    
C36   C37   1.406208 A    
C11   H23   1.111173 S    
O11   C2    1.406096 S    
C20   Br3   1.914165 S    
C24   C25   1.421218 A    
C5    O25   1.405086 S    
P2    O20   1.543476 S    
O25   H47   0.994017 S    
C9    H19   1.110458 S    
C2    H4    1.114165 S    
C55   C56   1.402428 A    
P5    O17   1.750262 S    
P2    O10   1.748443 S    
C47   C52   1.402965 A    
C35   C36   1.405387 A    
C6    C7    1.523701 S    
C34   H38   1.079343 S    
C13   H27   1.112150 S    
C21   C23   1.411913 A    
C1    H2    1.110745 S    
C3    H26   1.110410 S    
C9    H18   1.105882 S    
P7    O21   1.566087 D    
C47   Br6   1.892128 S    
C56   H44   1.083399 S    
C28   C29   1.398406 A    
C14   H30   1.109893 S    
C53   C57   1.412258 A    
O6    C10   1.404527 S    
O7    Ba1   2.819084 S    
O19   C13   1.403293 S    
C35   H39   1.078196 S    
C40   C41   1.413968 A    
P5    C55   1.851377 S    
P4    O13   1.574717 S    
C22   C26   1.411245 A    
Ba2   O20   2.751325 S    
Ba1   O16   2.751845 S    
C60   H46   1.082380 S    
C49   H45   1.083632 S    
C13   H28   1.107135 S    
C4    Br7   1.938214 S    
P1    O5    1.753925 S    
C33   C34   1.407967 A    
C2    C3    1.521280 S    
C32   C42   1.421787 A    
C50   C59   1.445977 S    
C23   C24   1.411774 A    
C18   C19   1.397584 A    
P2    C48   1.856559 S    
C55   C60   1.396152 A    
C17   C18   1.406619 A    
C31   C38   1.410879 A    
C24   C27   1.422219 A    
C30   C35   1.412654 A    
C12   H24   1.111724 S    
C39   H40   1.082155 S    
P1    O2    1.574583 S    
O2    Ba1   2.935354 S    
C45   H42   1.074706 S    
C8    H15   1.104945 S    
C54   C60   1.397284 A    
C1    H3    1.110687 S    
P4    C29   1.881228 S    
C31   C32   1.424624 A    
C4    O15   1.402360 S    
C15   H32   1.108304 S    
P5    O18   1.545116 D    
Ba1   O20   2.929857 S    
O13   Ba2   2.936154 S    
C13   C14   1.519567 S    
C7    H12   1.110071 S    
C1    C10   1.519454 S    
O10   C8    1.397724 S    
O16   P7    1.751109 S    
C38   C41   1.416099 A    
O14   Ba2   2.788582 S    
C19   H35   1.083052 S    
C9    H17   1.110166 S    
P2    O7    1.513387 D    
O12   Ba2   2.838477 S    
C28   H36   1.081766 S    
O3    P6    1.756030 S    
C56   C57   1.407590 A    
C40   Br4   1.923293 S    
C16   H34   1.110210 S    
C50   C51   1.408741 A    
C18   C34   1.402786 A    
C5    H9    1.109972 S    
P4    O12   1.531464 D    
O8    Ba1   2.719865 S    
P7    C54   1.844080 S    
C15   O24   1.407027 S    
C1    H21   1.110711 S    
C39   C40   1.399428 A    
P2    Ba1   3.398514 S    
O4    P6    1.542172 D    
C6    H11   1.107874 S    
P8    O24   1.752879 S    
C42   C44   1.420656 A    
C17   C22   1.422224 A    
C57   C58   1.448650 S    
Ba2   O21   2.819178 S    
C4    C5    1.534365 S    
C26   C37   1.413031 A    
C36   C39   1.401895 A    
Ba1   O13   2.821229 S    
O1    Ba1   2.838027 S    
O17   Ba2   2.720470 S    
P3    O8    1.758232 S    
C53   C54   1.410552 A    
C4    H8    1.111404 S    
C8    H16   1.108062 S    
C45   C46   1.393054 A    
H43   C51   1.083342 S    
C48   C49   1.402068 A    
C49   C50   1.405664 A    
P5    O19   1.747165 S    
P1    Ba1   3.397258 S    
C7    H13   1.107845 S    
C44   C45   1.396358 A    
O5    C6    1.395953 S    
C3    H7    1.110623 S    
P1    C46   1.883427 S    
C6    O26   1.395847 S    
C16   Br2   1.934407 S    
P4    Ba2   3.397874 S    
C20   C21   1.415260 A    
C11   O22   1.400903 S    
H33   C16   1.109846 S    
P3    O9    1.545586 D    
C53   Br5   1.929091 S    
P3    C52   1.857859 S    
C3    H6    1.111053 S    
C11   H22   1.110056 S    
C32   C33   1.426410 A    
C21   C22   1.415609 A    
C37   C38   1.422395 A    
C25   C30   1.425929 A    
C12   O27   1.400337 S    
O3    Ba1   2.789209 S    
P4    O15   1.768592 S    
C47   C48   1.399606 A    
C41   C43   1.411454 A    
