data_mof_unit_57623.cif
_audit_creation_date              2012-10-26T19:52:26-0400
_audit_creation_method            fapswitch 2.2
_symmetry_space_group_name_H-M    P1
_symmetry_Int_Tables_number       1
_space_group_crystal_system       triclinic
_cell_length_a                    9.568094
_cell_length_b                    10.852241
_cell_length_c                    13.562078
_cell_angle_alpha                 91.302917
_cell_angle_beta                  73.438078
_cell_angle_gamma                 90.690873
_cell_volume                      1349.42609836

loop_
_atom_site_label
_atom_site_type_symbol
_atom_type_description
_atom_site_fract_x
_atom_site_fract_y
_atom_site_fract_z
_atom_type_partial_charge
C1    C     C_R   0.499404 0.737423 0.503789 0.550989
C2    C     C_R   0.383814 0.471698 0.811495 0.000583
C3    C     C_R   0.366412 0.934550 0.544652 0.021569
C4    C     C_R   0.423834 0.489789 0.698980 0.541434
C5    C     C_R   0.497575 0.870228 0.516851 0.008403
C6    C     C_R   0.628137 0.936669 0.504204 -0.161711
C7    C     C_R   0.627245 0.065029 0.502485 -0.160553
C8    C     C_R   0.496244 0.128579 0.512521 0.003029
C9    C     C_R   0.365581 0.061523 0.541437 0.022720
C10   C     C_3   0.236365 0.059303 0.500380 -0.282713
C11   C     C_3   0.235157 0.920214 0.507173 -0.263148
C12   C     C_R   0.442652 0.489401 0.976355 0.035590
C13   C     C_R   0.958806 0.454288 0.417345 0.132729
C14   C     C_R   0.895663 0.557362 0.576502 -0.030216
C15   C     C_R   0.044148 0.556562 0.576940 -0.031016
C16   C     C_R   0.498735 0.262058 0.501961 0.538370
C17   C     C_R   0.106674 0.456164 0.416162 0.197939
C18   C     C_3   0.127865 0.328338 0.371763 -0.007583
C19   C     C_3   0.967282 0.326124 0.375274 -0.256663
C20   C     C_R   0.577344 0.506059 0.301131 0.546794
C21   C     C_R   0.803284 0.540917 0.026626 -0.138538
C22   C     C_R   0.620390 0.518325 0.189355 -0.003921
C23   C     C_R   0.489769 0.472999 0.867733 0.030663
C24   C     C_R   0.235919 0.458734 0.865131 -0.135345
C25   C     C_R   0.191959 0.460030 0.971800 -0.150169
C26   C     C_R   0.291520 0.485087 0.026417 -0.126437
C27   C     C_3   0.335796 0.231627 0.243875 -0.305613
C28   C     C_R   0.548942 0.506496 0.030665 0.025017
C29   C     C_R   0.698448 0.514639 0.975448 0.054725
C30   C     C_R   0.743137 0.487225 0.870926 -0.153490
C31   C     C_R   0.640869 0.457137 0.820037 -0.130372
C32   C     C_R   0.512604 0.510982 0.138245 -0.141691
C33   C     C_R   0.765645 0.539127 0.133451 -0.142470
Cu1   Cu    Cu3+1 0.359330 0.500020 0.500010 0.943088
Cu2   Cu    Cu3+1 0.640670 0.499980 0.499990 0.926375
H1    H     H_    0.849762 0.552397 0.171892 0.125613
H2    H     H_    0.943876 0.321277 0.299581 0.122914
H3    H     H_    0.858112 0.481225 0.829647 0.095468
H4    H     H_    0.903167 0.260691 0.432521 0.119874
H5    H     H_    0.914476 0.559567 0.983079 0.104424
H6    H     H_    0.401593 0.503355 0.184271 0.157715
H7    H     H_    0.153600 0.449130 0.824703 0.122578
H8    H     H_    0.245700 0.500500 0.107635 0.099635
H9    H     H_    0.079362 0.445046 0.013480 0.110331
H10   H     H_    0.684572 0.415959 0.744793 0.156062
H11   H     H_    0.731800 0.890063 0.489224 0.135856
H12   H     H_    0.730269 0.113163 0.487606 0.125500
H13   H     H_    0.177493 0.337768 0.209688 0.243519
H14   H     H_    0.409871 0.245460 0.165365 0.147694
H15   H     H_    0.283764 0.139310 0.246041 0.130079
H16   H     H_    0.402217 0.237140 0.298924 0.172451
H17   H     H_    0.139017 0.103548 0.554008 0.132728
H18   H     H_    0.264994 0.087984 0.419383 0.124110
H19   H     H_    0.139786 0.883930 0.567400 0.135296
H20   H     H_    0.258376 0.872317 0.430878 0.148618
H21   H     H_    0.815738 0.602775 0.639100 0.124408
H22   H     H_    0.074619 0.600508 0.640214 0.117712
H23   H     H_    0.155861 0.264319 0.425078 0.146620
N1    N     N_R   0.852320 0.499070 0.499340 -0.239814
N2    N     N_R   0.148230 0.499110 0.499340 -0.247194
N3    N     N_2   0.225743 0.326295 0.267690 -0.523908
O1    O     O_R   0.381190 0.680360 0.500000 -0.502479
O2    O     O_R   0.618780 0.680320 0.499990 -0.504541
O3    O     O_R   0.323230 0.500000 0.650990 -0.510860
O4    O     O_R   0.560820 0.499960 0.650980 -0.521195
O5    O     O_R   0.381220 0.319680 0.500010 -0.504958
O6    O     O_R   0.618810 0.319640 0.500000 -0.510778
O7    O     O_R   0.439180 0.500040 0.349020 -0.487328
O8    O     O_R   0.676770 0.500000 0.349010 -0.504517

loop_
_geom_bond_atom_site_label_1
_geom_bond_atom_site_label_2
_ccdc_geom_bond_type
C14   H21   S    
C32   H6    S    
C18   N3    S    
C6    C7    A    
C3    C9    A    
Cu2   O6    S    
C28   C32   A    
C24   H7    S    
C9    C10   S    
C4    O3    A    
C2    C4    S    
C27   H15   S    
C13   C17   A    
C22   C32   A    
C10   H17   S    
C1    O1    A    
Cu1   O5    S    
Cu1   O3    S    
C17   C18   S    
C11   H20   S    
C7    C8    A    
C8    C16   S    
C16   O6    A    
Cu1   N2    S    
C14   N1    A    
C15   H22   S    
C12   C23   A    
Cu2   O8    S    
H13   N3    S    
C29   C30   A    
C11   H19   S    
C19   H4    S    
C12   C28   A    
C13   N1    A    
C5    C6    A    
C1    O2    A    
C25   H9    S    
C28   C29   A    
C27   N3    S    
C12   C26   A    
C27   H16   S    
C26   H8    S    
Cu1   Cu2   S    
C2    C24   A    
C30   C31   A    
C1    C5    S    
C20   O8    A    
C21   C33   A    
C10   C11   S    
C13   C19   S    
C17   N2    A    
C7    H12   S    
Cu1   O1    S    
C33   H1    S    
C3    C11   S    
C24   C25   A    
C30   H3    S    
Cu2   N1    S    
C18   C19   S    
C31   H10   S    
Cu1   O7    S    
C2    C23   A    
C22   C33   A    
C10   H18   S    
C19   H2    S    
C4    O4    A    
C8    C9    A    
C16   O5    A    
Cu2   O2    S    
C6    H11   S    
C23   C31   A    
C25   C26   A    
C14   C15   A    
C21   C29   A    
C20   O7    A    
C15   N2    A    
C18   H23   S    
C27   H14   S    
C20   C22   S    
Cu2   O4    S    
C3    C5    A    
C21   H5    S    
