data_mof_unit_36964.cif
_audit_creation_date              2012-12-10T17:37:21-0500
_audit_creation_method            fapswitch 2.2
_symmetry_space_group_name_H-M    P1
_symmetry_Int_Tables_number       1
_space_group_crystal_system       triclinic
_cell_length_a                    12.362216
_cell_length_b                    13.198432
_cell_length_c                    15.847093
_cell_angle_alpha                 77.745169
_cell_angle_beta                  101.017371
_cell_angle_gamma                 116.646143
_cell_volume                      2244.71037877

loop_
_atom_site_label
_atom_site_type_symbol
_atom_type_description
_atom_site_fract_x
_atom_site_fract_y
_atom_site_fract_z
_atom_type_partial_charge
C1    C     C_R   0.854935 0.286750 0.511125 0.865667
C2    C     C_3   0.997903 0.497297 0.917221 0.160325
C3    C     C_3   0.110397 0.571568 0.031580 -0.219638
C4    C     C_3   0.999811 0.499033 0.083100 0.125383
C5    C     C_3   0.023993 0.601471 0.958170 0.459075
C6    C     C_3   0.914095 0.531776 0.010252 -0.217675
C7    C     C_1   0.997748 0.498261 0.825278 -0.012065
C8    C     C_1   0.000586 0.499305 0.174896 -0.045302
C9    C     C_R   0.281248 0.018561 0.389974 -0.176322
C10   C     C_R   0.227969 0.835731 0.481644 -0.168412
C11   C     C_R   0.803835 0.107008 0.609559 -0.271062
C12   C     C_R   0.999366 0.499651 0.659877 0.780880
C13   C     C_R   0.714140 0.021800 0.657755 -0.255452
C14   C     C_R   0.590787 0.991012 0.627521 0.513096
C15   C     C_R   0.557657 0.030688 0.540085 -0.011776
C16   C     C_R   0.649330 0.123316 0.493108 -0.044811
C17   C     C_R   0.435546 0.986228 0.499387 0.056628
C18   C     C_R   0.403000 0.052443 0.425107 0.034451
C19   C     C_R   0.493075 0.145908 0.381651 -0.302330
C20   C     C_R   0.616142 0.174438 0.410137 0.427716
C21   C     C_R   0.347993 0.873880 0.524614 0.417723
C22   C     C_R   0.193671 0.911655 0.419455 -0.227371
C23   C     C_R   0.145092 0.713329 0.490696 0.802594
C24   C     C_R   0.771574 0.166075 0.532245 -0.066134
C25   C     C_R   0.349714 0.334691 0.641796 -0.297131
C26   C     C_R   0.764465 0.651518 0.387178 0.639857
C27   C     C_R   0.675754 0.693702 0.371005 -0.361484
C28   C     C_R   0.574636 0.640390 0.416725 -0.228134
C29   C     C_R   0.555615 0.539587 0.476120 -0.003433
C30   C     C_R   0.653272 0.505528 0.496596 0.216333
C31   C     C_R   0.447721 0.476269 0.520321 -0.108719
C32   C     C_R   0.448112 0.391327 0.592029 0.128185
C33   C     C_R   0.546717 0.363189 0.613901 -0.240843
C34   C     C_R   0.000450 0.500089 0.340141 0.871695
C35   C     C_R   0.645912 0.417528 0.566342 -0.155787
C36   C     C_R   0.338072 0.491930 0.497060 0.580884
C37   C     C_R   0.250418 0.361424 0.620481 -0.005164
C38   C     C_3   0.973056 0.392128 0.043676 -0.135107
C39   C     C_3   0.887828 0.425020 0.969140 -0.215875
C40   C     C_1   0.998190 0.499021 0.749587 -0.152868
C41   C     C_1   0.000848 0.499629 0.250503 -0.150935
C42   C     C_3   0.083176 0.464622 0.990379 -0.216107
Cu1   Cu    Cu3+1 0.098270 0.475420 0.519690 0.998354
Cu2   Cu    Cu3+1 0.901730 0.524580 0.480310 0.998323
H1    H     H_    0.797047 0.364636 0.942488 0.146943
H2    H     H_    0.897306 0.137881 0.639336 0.169377
H3    H     H_    0.740921 0.987902 0.722586 0.143694
H4    H     H_    0.175143 0.319345 0.659635 0.140356
H5    H     H_    0.547015 0.297636 0.668284 0.151892
H6    H     H_    0.350174 0.270864 0.697467 0.155158
H7    H     H_    0.951950 0.305209 0.080684 0.141394
H8    H     H_    0.515586 0.682974 0.406768 0.219047
H9    H     H_    0.686129 0.769479 0.324201 0.150315
H10   H     H_    0.716752 0.390142 0.588647 0.192632
H11   H     H_    0.846161 0.561050 0.019036 0.143861
H12   H     H_    0.201024 0.632950 0.057586 0.144092
H13   H     H_    0.151795 0.436508 0.981065 0.147631
H14   H     H_    0.101835 0.884044 0.386858 0.193309
H15   H     H_    0.467786 0.190798 0.321242 0.137354
H16   H     H_    0.255155 0.071381 0.335499 0.146975
N1    N     N_R   0.246280 0.438200 0.549540 -0.188191
N2    N     N_R   0.754330 0.561180 0.450980 -0.218232
O1    O     O_R   0.972510 0.318130 0.524770 -0.601269
O2    O     O_R   0.806530 0.359650 0.491510 -0.580748
O3    O     O_R   0.082970 0.479240 0.637550 -0.591692
O4    O     O_R   0.916990 0.520750 0.604290 -0.598580
O5    O     O_R   0.193470 0.640350 0.508490 -0.522832
O6    O     O_R   0.027490 0.681870 0.475230 -0.539829
O7    O     O_R   0.083010 0.479250 0.395710 -0.534697
O8    O     O_R   0.917030 0.520760 0.362450 -0.521620
O9    O     O_3   0.384946 0.797415 0.581120 -0.676727
H17   H     H_    0.320572 0.750595 0.620238 0.339070
O10   O     O_3   0.503893 0.934935 0.685184 -0.718834
H18   H     H_    0.542905 0.915931 0.743283 0.317921
O11   O     O_3   0.704650 0.249620 0.356985 -0.738284
H19   H     H_    0.665772 0.276721 0.301837 0.318982
O12   O     O_3   0.316573 0.553423 0.419621 -0.710929
H20   H     H_    0.341201 0.529498 0.373933 0.293597
O13   O     O_3   0.865215 0.703180 0.342012 -0.713913
H21   H     H_    0.859259 0.767283 0.298612 0.285458
O14   O     O_3   0.050505 0.710651 0.911087 -0.723890
H22   H     H_    0.063034 0.760057 0.954535 0.313979

loop_
_geom_bond_atom_site_label_1
_geom_bond_atom_site_label_2
_ccdc_geom_bond_type
C3    C42   S    
C28   H8    S    
O10   H18   S    
Cu2   O4    S    
C19   C20   A    
C6    H11   S    
Cu1   Cu2   S    
O14   H22   S    
Cu1   O1    S    
O12   H20   S    
C10   C22   A    
C26   C27   A    
C30   C35   A    
C21   O9    S    
C16   C20   A    
C38   C42   S    
C36   O12   S    
C38   C39   S    
C9    C22   A    
C33   H5    S    
C15   C16   A    
C11   C24   A    
C18   C19   A    
C23   O5    A    
C25   H6    S    
C25   C37   A    
C2    C39   S    
C2    C7    S    
C7    C40   T    
Cu2   O8    S    
C34   O8    A    
C4    C8    S    
C39   H1    S    
C25   C32   A    
C16   C24   A    
C13   C14   A    
C35   H10   S    
C34   C41   S    
C1    O1    A    
C42   H13   S    
C10   C21   A    
C14   O10   S    
C8    C41   T    
C4    C6    S    
C13   H3    S    
C38   H7    S    
C19   H15   S    
C12   O4    A    
Cu2   O2    S    
C20   O11   S    
C23   O6    A    
C12   C40   S    
O11   H19   S    
C29   C30   A    
C5    O14   S    
C3    H12   S    
C31   C32   A    
C14   C15   A    
Cu1   O3    S    
C17   C18   A    
C37   H4    S    
C34   O7    A    
C4    C38   S    
C30   N2    A    
Cu2   O6    S    
C2    C5    S    
C36   N1    A    
C1    O2    A    
Cu1   N1    S    
C15   C17   A    
C28   C29   A    
C31   C36   A    
C3    C5    S    
C22   H14   S    
C37   N1    A    
C27   H9    S    
C10   C23   S    
C12   O3    A    
C26   O13   S    
C9    H16   S    
Cu2   N2    S    
C32   C33   A    
C26   N2    A    
O9    H17   S    
C29   C31   A    
C11   C13   A    
C5    C6    S    
C2    C42   S    
C33   C35   A    
C17   C21   A    
O13   H21   S    
C9    C18   A    
C1    C24   S    
Cu1   O5    S    
C27   C28   A    
C6    C39   S    
C11   H2    S    
Cu1   O7    S    
C3    C4    S    
