data_mof_unit_11917.cif
_audit_creation_date              2012-12-10T17:25:17-0500
_audit_creation_method            fapswitch 2.2
_symmetry_space_group_name_H-M    P1
_symmetry_Int_Tables_number       1
_space_group_crystal_system       triclinic
_cell_length_a                    27.755622
_cell_length_b                    10.933265
_cell_length_c                    9.592893
_cell_angle_alpha                 90.323532
_cell_angle_beta                  90.858458
_cell_angle_gamma                 93.922812
_cell_volume                      2903.84401319

loop_
_atom_site_label
_atom_site_type_symbol
_atom_type_description
_atom_site_fract_x
_atom_site_fract_y
_atom_site_fract_z
_atom_type_partial_charge
C1    C     C_R   0.494361 0.262792 0.500142 0.821875
C2    C     C_R   0.276189 0.401249 0.427546 -0.024975
C3    C     C_R   0.253554 0.496749 0.493818 0.280766
C4    C     C_R   0.101421 0.496403 0.496866 -0.043404
C5    C     C_R   0.127271 0.469980 0.618992 -0.039425
C6    C     C_R   0.102180 0.438185 0.740052 -0.174569
C7    C     C_R   0.126831 0.522554 0.373260 -0.019738
C8    C     C_R   0.354786 0.498357 0.496666 -0.124385
C9    C     C_R   0.644861 0.500298 0.502866 -0.114671
C10   C     C_R   0.974900 0.494413 0.626994 0.040893
C11   C     C_R   0.973382 0.505331 0.370459 0.045957
C12   C     C_R   0.407741 0.499552 0.499037 0.803358
C13   C     C_R   0.948868 0.500672 0.499074 0.075891
C14   C     C_R   0.949908 0.512779 0.751819 -0.186289
C15   C     C_R   0.899988 0.517902 0.752184 -0.135271
C16   C     C_R   0.873395 0.509849 0.627186 -0.020959
C17   C     C_R   0.897838 0.503975 0.499981 -0.045673
C18   C     C_R   0.871236 0.502198 0.373733 -0.022560
C19   C     C_R   0.820711 0.502456 0.377220 0.555745
C20   C     C_R   0.822829 0.510259 0.625885 0.550814
C21   C     C_R   0.717996 0.390512 0.483277 -0.030018
C22   C     C_R   0.667237 0.389563 0.482693 -0.106503
C23   C     C_R   0.500693 0.738892 0.499956 0.780912
C24   C     C_R   0.673139 0.611045 0.523601 -0.067745
C25   C     C_R   0.723379 0.610994 0.523559 -0.113068
C26   C     C_R   0.745884 0.501864 0.503209 0.279842
C27   C     C_R   0.025271 0.476502 0.625280 -0.007759
C28   C     C_R   0.050278 0.496094 0.497998 0.061805
C29   C     C_R   0.024606 0.514195 0.371241 0.052864
C30   C     C_R   0.051920 0.437277 0.743535 -0.038082
C31   C     C_R   0.101319 0.546209 0.250808 -0.131191
C32   C     C_R   0.945653 0.501819 0.245361 -0.192384
C33   C     C_R   0.895523 0.499563 0.247259 -0.130935
C34   C     C_R   0.592146 0.500431 0.500909 0.801922
C35   C     C_R   0.051185 0.541539 0.249385 -0.182951
C36   C     C_R   0.477269 0.114383 0.760058 -0.124098
C37   C     C_R   0.493434 0.062289 0.882894 -0.120461
C38   C     C_R   0.520377 0.960125 0.875109 -0.103703
C39   C     C_R   0.525105 0.902045 0.746827 -0.107830
C40   C     C_R   0.503451 0.944250 0.624962 0.100123
C41   C     C_R   0.487877 0.063430 0.628878 0.095300
C42   C     C_R   0.486601 0.128634 0.502449 -0.118885
C43   C     C_R   0.484247 0.063855 0.376344 -0.199835
C44   C     C_R   0.486591 0.937120 0.374415 -0.032036
C45   C     C_R   0.177868 0.470616 0.615621 0.556926
C46   C     C_R   0.498711 0.874897 0.498869 -0.143500
C47   C     C_R   0.568174 0.655423 0.149133 -0.169713
C48   C     C_R   0.604488 0.723496 0.079929 -0.036698
C49   C     C_R   0.606603 0.716394 0.936555 -0.241447
C50   C     C_R   0.571795 0.644301 0.862548 -0.177871
C51   C     C_R   0.535042 0.571649 0.928162 0.219974
C52   C     C_R   0.534166 0.574428 0.077325 0.218892
C53   C     C_R   0.466864 0.430690 0.072038 -0.045984
C54   C     C_R   0.466431 0.432218 0.924143 -0.046690
C55   C     C_R   0.177453 0.524317 0.375057 0.554302
C56   C     C_R   0.281355 0.591481 0.561299 -0.131116
C57   C     C_R   0.331635 0.592839 0.563728 -0.072822
C58   C     C_R   0.326970 0.402273 0.428034 -0.105333
Cu1   Cu    Cu3+1 0.500000 0.499990 0.640660 0.960835
Cu2   Cu    Cu3+1 0.500000 0.500010 0.359340 0.970113
H1    H     H_    0.263446 0.664456 0.611828 0.156456
H2    H     H_    0.120014 0.567833 0.154758 0.189420
H3    H     H_    0.875878 0.496434 0.148693 0.188974
H4    H     H_    0.745348 0.696052 0.538513 0.158459
H5    H     H_    0.479854 0.111968 0.278835 0.161602
H6    H     H_    0.456305 0.193403 0.768586 0.142122
H7    H     H_    0.487049 0.104392 0.982757 0.134437
H8    H     H_    0.548864 0.831077 0.739773 0.144580
H9    H     H_    0.439755 0.373766 0.125720 0.149646
H10   H     H_    0.567574 0.671240 0.258369 0.193702
H11   H     H_    0.633889 0.771377 0.880698 0.179208
H12   H     H_    0.573341 0.655899 0.753693 0.197571
H13   H     H_    0.438492 0.378048 0.867683 0.130206
H14   H     H_    0.121680 0.409861 0.831954 0.196192
H15   H     H_    0.882387 0.529249 0.851031 0.184310
H16   H     H_    0.968523 0.529022 0.850338 0.144820
N1    N     N_R   0.201811 0.497600 0.494868 -0.465196
N2    N     N_R   0.797651 0.505115 0.502113 -0.466894
N3    N     N_R   0.500460 0.501210 0.147910 -0.197898
N4    N     N_R   0.500480 0.501290 0.852040 -0.196282
O1    O     O_R   0.500000 0.319640 0.618810 -0.589255
O2    O     O_2   0.798945 0.514669 0.747128 -0.515276
O3    O     O_2   0.202190 0.552343 0.258124 -0.519000
O4    O     O_2   0.794768 0.500057 0.256988 -0.512908
O5    O     O_R   0.500000 0.319660 0.381240 -0.574262
O6    O     O_R   0.430260 0.500010 0.618770 -0.577317
O7    O     O_R   0.430270 0.500030 0.381200 -0.568336
O8    O     O_R   0.500000 0.680340 0.618760 -0.587209
O9    O     O_R   0.500000 0.680360 0.381190 -0.592142
O10   O     O_R   0.569730 0.499970 0.618800 -0.591286
O11   O     O_R   0.569740 0.499990 0.381230 -0.590046
O12   O     O_2   0.202967 0.443614 0.731741 -0.519107
C59   C     C_1   0.350448 0.302822 0.362279 0.250053
N5    N     N_1   0.369218 0.223513 0.309988 -0.290919
H17   H     H_    0.961656 0.497368 0.143923 0.148995
C60   C     C_1   0.651256 0.726058 0.542707 0.212530
N6    N     N_1   0.633704 0.818139 0.557804 -0.290933
H18   H     H_    0.034220 0.563533 0.151710 0.141832
C61   C     C_1   0.247005 0.301492 0.361935 0.307435
N7    N     N_1   0.223646 0.221850 0.309536 -0.240482
H19   H     H_    0.537243 0.925324 0.967811 0.155090
C62   C     C_1   0.475701 0.875603 0.242760 0.277285
N8    N     N_1   0.466517 0.826216 0.137708 -0.269749
C63   C     C_1   0.638872 0.803824 0.156404 0.267657
N9    N     N_1   0.666473 0.868378 0.217752 -0.227540
C64   C     C_1   0.638128 0.275279 0.462521 0.278150
N10   N     N_1   0.614906 0.184127 0.446485 -0.254612
C65   C     C_1   0.741817 0.277938 0.464494 0.304367
N11   N     N_1   0.760892 0.188030 0.449479 -0.236573
C66   C     C_1   0.029546 0.378405 0.863181 0.223871
N12   N     N_1   0.011912 0.330738 0.959005 -0.274490
C67   C     C_1   0.358861 0.693998 0.632416 0.280531
N13   N     N_1   0.380727 0.774931 0.687258 -0.250320

loop_
_geom_bond_atom_site_label_1
_geom_bond_atom_site_label_2
_ccdc_geom_bond_type
C10   C27   A    
C15   H15   S    
C21   C26   A    
Cu2   N3    S    
C59   N5    T    
C20   O2    S    
C39   H8    S    
C7    C55   A    
C53   H9    S    
Cu2   O9    S    
C56   C57   A    
C40   C46   A    
C26   N2    S    
C30   C66   S    
C28   C29   A    
C53   N3    A    
C58   C59   S    
C38   H19   S    
C24   C60   S    
C5    C6    A    
C55   N1    A    
C36   H6    S    
C9    C22   A    
C57   C67   S    
C64   N10   T    
C1    O1    A    
C15   C16   A    
C48   C63   S    
C65   N11   T    
C18   C19   A    
C41   C42   A    
C45   O12   S    
C50   H12   S    
C34   O11   A    
C63   N9    T    
C8    C58   A    
C51   N4    A    
C47   C48   A    
C16   C17   A    
C23   O9    A    
C8    C12   S    
C52   N3    A    
C43   H5    S    
Cu1   Cu2   S    
C23   C46   S    
C21   C22   A    
C27   C30   A    
C31   H2    S    
C36   C41   A    
C4    C7    A    
C67   N13   T    
C4    C28   A    
Cu2   O7    S    
C44   C46   A    
C6    H14   S    
C54   N4    A    
C1    O5    A    
C33   H3    S    
C7    C31   A    
C51   C52   A    
C24   C25   A    
C10   C14   A    
C39   C40   A    
C44   C62   S    
C50   C51   A    
C25   C26   A    
C22   C64   S    
C5    C45   A    
C66   N12   T    
C25   H4    S    
C14   H16   S    
C19   N2    A    
C43   C44   A    
C34   O10   A    
C47   H10   S    
C37   C38   A    
C8    C57   A    
C54   H13   S    
C3    C56   A    
C61   N7    T    
C16   C20   A    
C60   N6    T    
C17   C18   A    
C40   C41   A    
C6    C30   A    
C2    C61   S    
C23   O8    A    
C9    C34   S    
C31   C35   A    
C42   C43   A    
C55   O3    S    
C19   O4    S    
C35   H18   S    
Cu2   O11   S    
Cu1   O8    S    
C12   O7    A    
C14   C15   A    
Cu1   O1    S    
C4    C5    A    
C10   C13   A    
Cu1   N4    S    
C11   C32   A    
Cu2   O5    S    
C2    C58   A    
C9    C24   A    
C53   C54   A    
C47   C52   A    
C20   N2    A    
C29   C35   A    
C12   O6    A    
C32   C33   A    
C2    C3    A    
Cu1   O6    S    
C11   C13   A    
C38   C39   A    
C48   C49   A    
C37   H7    S    
C62   N8    T    
C18   C33   A    
C21   C65   S    
C13   C17   A    
C1    C42   S    
C32   H17   S    
C11   C29   A    
C36   C37   A    
C49   C50   A    
C49   H11   S    
C27   C28   A    
C56   H1    S    
C45   N1    A    
Cu1   O10   S    
C3    N1    S    
