data_mof_unit_31466.cif
_audit_creation_date              2013-03-05T16:42:13-0500
_audit_creation_method            fapswitch 2.2
_symmetry_space_group_name_H-M    P1
_symmetry_Int_Tables_number       1
_space_group_crystal_system       triclinic
_cell_length_a                    14.886846
_cell_length_b                    10.711619
_cell_length_c                    9.869229
_cell_angle_alpha                 90.984153
_cell_angle_beta                  88.757027
_cell_angle_gamma                 90.58353
_cell_volume                      1573.09098832

loop_
_atom_site_label
_atom_site_type_symbol
_atom_site_description
_atom_site_fract_x
_atom_site_fract_y
_atom_site_fract_z
_atom_type_partial_charge
O1    O     O_R   0.500010 0.316790 0.614690 -0.622003
O2    O     O_R   0.500000 0.316760 0.385350 -0.585921
C1    C     C_R   0.498306 0.259818 0.498762 0.915831
O3    O     O_R   0.367850 0.499990 0.614680 -0.590786
O4    O     O_R   0.367840 0.499950 0.385340 -0.625915
C2    C     C_R   0.327197 0.499095 0.501428 0.885428
Zn1   Zn    Zn3+2 0.500010 0.500020 0.653130 0.985496
Zn2   Zn    Zn3+2 0.499990 0.499980 0.346870 0.963553
O5    O     O_R   0.500000 0.683240 0.614650 -0.603402
O6    O     O_R   0.499990 0.683210 0.385310 -0.633136
O7    O     O_R   0.632160 0.500050 0.614660 -0.615839
O8    O     O_R   0.632150 0.500010 0.385320 -0.675301
C3    C     C_R   0.497939 0.739633 0.501150 0.900129
C4    C     C_R   0.672950 0.498378 0.498242 1.017579
C5    C     C_R   0.814718 0.612614 0.501852 0.347720
C6    C     C_R   0.768644 0.498102 0.493050 -0.295724
C7    C     C_R   0.812978 0.383788 0.478121 0.371184
C8    C     C_R   0.906299 0.382331 0.493144 0.009317
C9    C     C_R   0.953561 0.497216 0.506245 -0.076234
C10   C     C_R   0.907722 0.612290 0.512640 0.033332
C11   C     C_R   0.953230 0.269260 0.497767 -0.181749
C12   C     C_R   0.046429 0.269653 0.500409 -0.191492
C13   C     C_R   0.093610 0.382927 0.503728 0.146561
C14   C     C_R   0.047177 0.497225 0.511454 0.115600
C15   C     C_R   0.094743 0.611714 0.521879 0.139249
C16   C     C_R   0.048845 0.724462 0.533514 -0.214314
C17   C     C_R   0.955782 0.724728 0.530231 -0.165933
C18   C     C_R   0.186693 0.384369 0.499399 -0.189847
C19   C     C_R   0.232207 0.498244 0.505438 -0.028694
C20   C     C_R   0.187729 0.611244 0.519292 -0.202932
H1    H     H_    0.918363 0.180054 0.497503 0.166417
H2    H     H_    0.081597 0.181513 0.498956 0.154506
H3    H     H_    0.223888 0.297798 0.491641 0.143425
H4    H     H_    0.225683 0.698125 0.526202 0.138306
H5    H     H_    0.084925 0.812396 0.543940 0.156037
H6    H     H_    0.921839 0.813425 0.540024 0.183150
C21   C     C_R   0.506510 0.065969 0.617864 0.112178
C22   C     C_R   0.488978 0.127370 0.498024 -0.249523
C23   C     C_R   0.455927 0.058945 0.385384 0.317115
C24   C     C_R   0.454049 0.929862 0.390407 -0.281735
H7    H     H_    0.432923 0.876685 0.302002 0.206184
C25   C     C_R   0.486360 0.870481 0.504290 -0.184337
C26   C     C_R   0.505278 0.938747 0.621119 0.154519
C27   C     C_3   0.585319 0.934276 0.709656 -0.461608
C28   C     C_3   0.586709 0.075769 0.706327 -0.443834
H8    H     H_    0.568154 0.897020 0.811533 0.221684
H9    H     H_    0.644649 0.890924 0.657891 0.228427
H10   H     H_    0.570339 0.120322 0.806314 0.228038
H11   H     H_    0.646902 0.114910 0.652736 0.228500
C29   C     C_R   0.421141 0.503247 0.073870 0.180872
N1    N     N_R   0.499390 0.499140 0.142800 -0.096029
C30   C     C_R   0.577931 0.511440 0.069585 -0.119060
H12   H     H_    0.640814 0.520401 0.121356 0.136303
C31   C     C_R   0.578048 0.510483 0.925843 -0.125875
H13   H     H_    0.641316 0.517000 0.870591 0.164022
N2    N     N_R   0.499390 0.499180 0.857150 -0.134144
C32   C     C_R   0.421029 0.503154 0.931303 0.169335
C33   C     C_3   0.346333 0.408568 0.928266 0.091736
C34   C     C_3   0.345975 0.410878 0.082445 -0.502494
H14   H     H_    0.366205 0.317363 0.881494 0.139019
H15   H     H_    0.284602 0.451838 0.130780 0.230442
H16   H     H_    0.366996 0.321611 0.126091 0.260932
O9    O     O_3   0.768444 0.724559 0.507013 -0.662796
C35   C     C_3   0.741347 0.756707 0.375206 0.091572
H17   H     H_    0.675252 0.803342 0.385931 0.169520
H18   H     H_    0.731771 0.675142 0.305126 0.137163
C36   C     C_3   0.808450 0.847780 0.309887 -0.392174
H19   H     H_    0.818272 0.929814 0.378532 0.220386
H20   H     H_    0.874129 0.801186 0.293024 0.230694
C37   C     C_3   0.775255 0.891316 0.173510 -0.946127
H21   H     H_    0.770322 0.810998 0.101237 0.271898
H22   H     H_    0.823175 0.961149 0.130814 0.271434
H23   H     H_    0.708126 0.934808 0.186123 0.267530
N3    N     N_R   0.263298 0.457961 0.874511 0.244150
O10   O     O_R   0.240992 0.574026 0.895660 -0.378547
O11   O     O_R   0.207037 0.382272 0.815389 -0.384144
O12   O     O_3   0.762723 0.274699 0.460504 -0.658919
C38   C     C_3   0.776185 0.223568 0.327811 0.030115
H24   H     H_    0.750399 0.126162 0.329343 0.186028
H25   H     H_    0.848167 0.218762 0.296103 0.144705
C39   C     C_3   0.724404 0.294079 0.221190 -0.337039
H26   H     H_    0.652173 0.296351 0.250664 0.284699
H27   H     H_    0.751226 0.390934 0.214783 0.203907
C40   C     C_3   0.733612 0.232009 0.081275 -0.910791
H28   H     H_    0.805542 0.223580 0.050532 0.263945
H29   H     H_    0.699404 0.289272 0.005578 0.266201
H30   H     H_    0.701611 0.138043 0.081608 0.280676
N4    N     N_R   0.429229 0.116553 0.263211 0.203513
O13   O     O_R   0.490774 0.150210 0.175184 -0.422250
O14   O     O_R   0.347153 0.100365 0.223280 -0.419618

loop_
_geom_bond_atom_site_label_1
_geom_bond_atom_site_label_2
_geom_bond_distance
_ccdc_geom_bond_type
C8    C11   1.406292 A    
C9    C10   1.414780 A    
C40   H30   1.109211 S    
C39   H26   1.108235 S    
O12   C38   1.421742 S    
C30   H12   1.078811 S    
Zn1   O7    1.995493 S    
C11   H1    1.082752 S    
C16   C17   1.386539 A    
C21   C22   1.393969 A    
N3    O11   1.300151 A    
C29   C34   1.488110 S    
C23   N4    1.429657 S    
C18   C19   1.390297 A    
C40   H29   1.110087 S    
O4    C2    1.284119 A    
O7    C4    1.287790 A    
C38   H25   1.111248 S    
C33   H14   1.113335 S    
C5    C6    1.401553 A    
N2    C32   1.364228 A    
C8    C9    1.416682 A    
O5    C3    1.282843 A    
C1    C22   1.424020 S    
C27   H8    1.111771 S    
C6    C7    1.400976 A    
C13   C14   1.412206 A    
C37   H21   1.110965 S    
C27   H9    1.112371 S    
C24   C25   1.397660 A    
C11   C12   1.388222 A    
Zn1   N2    2.013516 S    
O3    Zn1   2.011770 S    
C3    C25   1.413631 S    
C39   H27   1.110188 S    
C30   C31   1.418451 A    
C29   N1    1.363134 A    
C5    C10   1.390973 A    
C31   N2    1.369004 A    
C34   H15   1.112153 S    
N3    O10   1.302299 A    
C20   H4    1.085705 S    
C36   H19   1.110735 S    
C35   C36   1.529362 S    
C14   C15   1.413184 A    
O3    C2    1.282379 A    
C23   C24   1.384403 A    
C38   H24   1.108312 S    
C15   C16   1.395449 A    
N1    C30   1.367496 A    
O1    C1    1.288030 A    
C35   H18   1.114902 S    
C21   C26   1.363612 A    
C26   C27   1.494444 S    
C19   C20   1.388866 A    
C28   H11   1.112615 S    
Zn2   O8    2.011769 S    
C37   H23   1.110550 S    
C7    O12   1.391483 S    
C7    C8    1.400603 A    
C13   C18   1.385381 A    
C40   H28   1.110756 S    
Zn2   N1    2.014092 S    
C12   H2    1.083947 S    
C24   H7    1.084340 S    
N4    O14   1.300967 A    
C18   H3    1.085623 S    
C4    C6    1.424419 S    
C25   C26   1.387221 A    
C21   C28   1.496053 S    
C39   C40   1.526341 S    
C27   C28   1.516454 S    
C33   N3    1.463154 S    
C28   H10   1.112048 S    
C15   C20   1.383997 A    
Zn1   O5    2.005383 S    
C31   H13   1.080279 S    
C34   H16   1.106286 S    
O1    Zn1   1.992611 S    
C29   C32   1.407046 A    
O2    Zn2   2.005384 S    
O8    C4    1.281202 A    
O6    C3    1.283886 A    
O4    Zn2   1.995493 S    
C10   C17   1.404720 A    
C17   H6    1.082516 S    
C36   C37   1.525886 S    
C35   H17   1.110199 S    
O2    C1    1.283506 A    
C33   C34   1.521298 S    
C38   C39   1.531766 S    
C32   C33   1.497124 S    
C22   C23   1.415449 A    
C9    C14   1.395717 A    
O9    C35   1.419319 S    
C16   H5    1.083990 S    
C2    C19   1.413741 S    
N4    O13   1.301413 A    
Zn2   O6    1.992612 S    
C5    O9    1.388601 S    
C12   C13   1.396020 A    
C37   H22   1.110370 S    
C36   H20   1.110326 S    
