data_mof_unit_48040.cif
_audit_creation_date              2012-12-10T20:40:58-0500
_audit_creation_method            fapswitch 2.2
_symmetry_space_group_name_H-M    P1
_symmetry_Int_Tables_number       1
_space_group_crystal_system       triclinic
_cell_length_a                    27.603607
_cell_length_b                    10.666281
_cell_length_c                    9.948672
_cell_angle_alpha                 90.327229
_cell_angle_beta                  89.828055
_cell_angle_gamma                 92.244633
_cell_volume                      2926.85933467

loop_
_atom_site_label
_atom_site_type_symbol
_atom_type_description
_atom_site_fract_x
_atom_site_fract_y
_atom_site_fract_z
_atom_type_partial_charge
C1    C     C_R   0.497753 0.260103 0.499731 0.874567
C2    C     C_R   0.271311 0.452130 0.564386 0.501386
C3    C     C_R   0.255210 0.552041 0.487042 0.258137
C4    C     C_R   0.104737 0.584160 0.459715 -0.088551
C5    C     C_R   0.129465 0.503768 0.372133 -0.021411
C6    C     C_R   0.103713 0.428597 0.279580 -0.129102
C7    C     C_R   0.131335 0.662834 0.551044 -0.050890
C8    C     C_R   0.354045 0.512112 0.498659 -0.068539
C9    C     C_R   0.646972 0.508127 0.497959 -0.035697
C10   C     C_R   0.976457 0.483693 0.383097 0.043213
C11   C     C_R   0.976813 0.666160 0.536399 0.054556
C12   C     C_R   0.406261 0.499368 0.500002 0.888269
C13   C     C_R   0.951277 0.570178 0.463226 0.075361
C14   C     C_R   0.949783 0.383976 0.320076 -0.217771
C15   C     C_R   0.899765 0.372560 0.331679 -0.135190
C16   C     C_R   0.874517 0.460261 0.405939 -0.020851
C17   C     C_R   0.900048 0.559813 0.471199 -0.054697
C18   C     C_R   0.874293 0.648431 0.545125 -0.021007
C19   C     C_R   0.823651 0.636160 0.551859 0.506143
C20   C     C_R   0.824037 0.450166 0.417378 0.504471
C21   C     C_R   0.721832 0.541313 0.373946 -0.099241
C22   C     C_R   0.671615 0.530386 0.376220 -0.218302
C23   C     C_R   0.498321 0.739772 0.500172 0.861306
C24   C     C_R   0.673372 0.496026 0.617317 -0.224660
C25   C     C_R   0.723795 0.506031 0.614560 -0.096434
C26   C     C_R   0.748036 0.528871 0.492818 0.312610
C27   C     C_R   0.027473 0.496904 0.371946 0.056333
C28   C     C_R   0.053367 0.583427 0.456885 0.073967
C29   C     C_R   0.028253 0.666949 0.540460 -0.002084
C30   C     C_R   0.053622 0.425237 0.279139 -0.216022
C31   C     C_R   0.105844 0.745797 0.635390 0.192716
C32   C     C_R   0.949739 0.757113 0.604413 -0.218055
C33   C     C_R   0.899454 0.747987 0.608814 -0.134560
C34   C     C_R   0.593975 0.501097 0.499712 0.860840
C35   C     C_R   0.055260 0.746130 0.628751 -0.201244
C36   C     C_R   0.486290 0.063789 0.621116 0.128715
C37   C     C_R   0.488696 0.128003 0.499679 -0.105154
C38   C     C_R   0.481392 0.062422 0.378387 -0.222756
C39   C     C_R   0.481858 0.932753 0.378669 -0.219845
C40   C     C_R   0.489669 0.870449 0.500221 -0.099179
C41   C     C_R   0.487015 0.935845 0.621345 0.154419
C42   C     C_3   0.519267 0.934741 0.741622 -0.499802
C43   C     C_3   0.517980 0.076494 0.742331 -0.466657
C44   C     C_R   0.472101 0.414189 0.070266 0.116111
C45   C     C_R   0.179673 0.498406 0.380181 0.563935
C46   C     C_R   0.531373 0.577734 0.072275 0.226182
C47   C     C_R   0.531923 0.576207 0.928220 0.222225
C48   C     C_R   0.472413 0.413551 0.928767 0.077969
C49   C     C_3   0.418913 0.392195 0.921067 -0.518578
C50   C     C_3   0.418159 0.395487 0.073999 0.234973
C51   C     C_R   0.182306 0.651954 0.555704 0.555454
C52   C     C_R   0.287667 0.631330 0.417933 -0.211716
C53   C     C_R   0.336773 0.611824 0.424124 -0.241923
C54   C     C_R   0.321610 0.429239 0.568596 0.045296
H1    H     H_    0.274608 0.707653 0.358424 0.171035
H2    H     H_    0.966228 0.838400 0.653223 0.143887
H3    H     H_    0.655164 0.478510 0.712309 0.161957
H4    H     H_    0.880373 0.819312 0.663208 0.191362
H5    H     H_    0.744058 0.495684 0.706602 0.146890
H6    H     H_    0.037497 0.806343 0.698953 0.143985
H7    H     H_    0.479184 0.110477 0.283077 0.167268
H8    H     H_    0.479829 0.883053 0.283454 0.181866
H9    H     H_    0.500884 0.890737 0.830097 0.217148
H10   H     H_    0.555803 0.900416 0.717424 0.204714
H11   H     H_    0.498377 0.114605 0.830424 0.201929
H12   H     H_    0.553798 0.123537 0.720533 0.212539
H13   H     H_    0.400519 0.471390 0.873287 0.251186
H14   H     H_    0.409004 0.297888 0.879218 0.165606
H15   H     H_    0.405849 0.305899 0.122514 0.093261
H16   H     H_    0.122176 0.369670 0.208384 0.190997
H17   H     H_    0.652189 0.540529 0.282812 0.162778
H18   H     H_    0.740519 0.559391 0.279738 0.145051
H19   H     H_    0.880968 0.294156 0.282165 0.191380
H20   H     H_    0.966692 0.310162 0.264896 0.145703
H21   H     H_    0.036318 0.366448 0.203428 0.144396
H22   H     H_    0.361579 0.675091 0.370391 0.189448
N1    N     N_R   0.204516 0.569197 0.473063 -0.329177
N2    N     N_R   0.799756 0.537937 0.488692 -0.355766
N3    N     N_R   0.499670 0.499140 0.142800 -0.100179
N4    N     N_R   0.499670 0.499180 0.857150 -0.109036
O1    O     O_R   0.500010 0.316790 0.614690 -0.613253
O2    O     O_2   0.799298 0.353222 0.358119 -0.558376
O3    O     O_2   0.209814 0.720861 0.642515 -0.563052
O4    O     O_2   0.798417 0.722133 0.619725 -0.560465
O5    O     O_R   0.500000 0.316760 0.385350 -0.625828
O6    O     O_R   0.428760 0.500040 0.614660 -0.613625
O7    O     O_R   0.428750 0.500000 0.385310 -0.563365
O8    O     O_R   0.500000 0.683240 0.614650 -0.624991
O9    O     O_R   0.499990 0.683210 0.385310 -0.626950
O10   O     O_R   0.571250 0.500000 0.614690 -0.628337
O11   O     O_R   0.571240 0.499960 0.385340 -0.632490
O12   O     O_2   0.203692 0.421257 0.297524 -0.556947
Zn1   Zn    Zn3+2 0.500000 0.500020 0.653130 0.946142
Zn2   Zn    Zn3+2 0.500000 0.499980 0.346870 0.972685
C55   C     C_3   0.339345 0.314031 0.638576 -0.932242
H23   H     H_    0.332970 0.322167 0.748391 0.242863
H24   H     H_    0.319486 0.229034 0.599331 0.257173
H25   H     H_    0.378360 0.298600 0.622116 0.247143
C56   C     C_3   0.130592 0.835068 0.734640 -0.763506
H26   H     H_    0.104541 0.894486 0.788362 0.203831
H27   H     H_    0.149605 0.781483 0.812446 0.269197
H28   H     H_    0.156396 0.899942 0.681163 0.266161
O13   O     O_3   0.236386 0.378447 0.629972 -0.759877
H29   H     H_    0.251666 0.321596 0.693773 0.348728
C57   C     C_3   0.565049 0.671850 0.143185 -0.840692
H30   H     H_    0.565416 0.666262 0.251606 0.288891
H31   H     H_    0.603078 0.659103 0.111047 0.212294
H32   H     H_    0.554430 0.768541 0.119477 0.216093
C58   C     C_3   0.569775 0.658561 0.857579 -0.845768
H33   H     H_    0.564490 0.668470 0.750457 0.290334
H34   H     H_    0.569834 0.755796 0.896960 0.213245
H35   H     H_    0.606160 0.620487 0.873317 0.219883
O14   O     O_3   0.395574 0.501736 0.123636 -0.710161
H36   H     H_    0.360350 0.479394 0.125035 0.345799

loop_
_geom_bond_atom_site_label_1
_geom_bond_atom_site_label_2
_ccdc_geom_bond_type
C10   C27   A    
C21   C26   A    
C46   C57   S    
C33   H4    S    
C49   H14   S    
C20   O2    S    
C41   C42   S    
C55   H23   S    
C34   O10   A    
C55   H25   S    
C57   H31   S    
C28   C29   A    
C26   N2    S    
C14   H20   S    
C16   C20   A    
C50   H15   S    
C58   H34   S    
C5    C6    A    
C9    C22   A    
C1    O1    A    
C23   C40   S    
O7    Zn2   S    
C18   C19   A    
O9    Zn2   S    
C45   O12   S    
C34   O11   A    
O8    Zn1   S    
C15   H19   S    
C46   N3    A    
C24   H3    S    
C23   O9    A    
C31   C56   S    
C52   H1    S    
C43   H11   S    
C38   H7    S    
C21   C22   A    
C27   C30   A    
C36   C41   A    
C47   N4    A    
C4    C7    A    
C4    C28   A    
C1    O5    A    
C57   H32   S    
C7    C31   A    
C21   H18   S    
C24   C25   A    
N3    Zn2   S    
C2    C54   A    
C58   H35   S    
C8    C54   A    
C39   C40   A    
C16   C17   A    
C25   C26   A    
C47   C58   S    
C5    C45   A    
C35   H6    S    
C19   N2    A    
C51   N1    A    
C37   C38   A    
O6    Zn1   S    
O1    Zn1   S    
O5    Zn2   S    
C56   H26   S    
C8    C12   S    
C17   C18   A    
C54   C55   S    
C48   C49   S    
C56   H27   S    
C11   C32   A    
C23   O8    A    
C10   C14   A    
C9    C34   S    
C31   C35   A    
C53   H22   S    
C42   C43   S    
C19   O4    S    
C3    N1    S    
C51   O3    S    
C22   H17   S    
O13   H29   S    
C52   C53   A    
O10   Zn1   S    
O14   H36   S    
C44   C50   S    
C6    H16   S    
C39   H8    S    
C46   C47   A    
C40   C41   A    
C49   H13   S    
C12   O7    A    
C6    C30   A    
C44   N3    A    
C4    C5    A    
C10   C13   A    
C8    C53   A    
C42   H10   S    
C3    C52   A    
C55   H24   S    
C9    C24   A    
C1    C37   S    
C57   H30   S    
C29   C35   A    
C12   O6    A    
C50   O14   S    
C32   C33   A    
C48   N4    A    
C2    C3    A    
C7    C51   A    
C58   H33   S    
O11   Zn2   S    
C30   H21   S    
C11   C13   A    
C38   C39   A    
C20   N2    A    
C43   H12   S    
C18   C33   A    
C2    O13   S    
C13   C17   A    
C44   C48   A    
C56   H28   S    
C11   C29   A    
C36   C37   A    
C49   C50   S    
C27   C28   A    
C14   C15   A    
C36   C43   S    
C45   N1    A    
C25   H5    S    
N4    Zn1   S    
C42   H9    S    
C32   H2    S    
C15   C16   A    
