data_mof_unit_26425.cif
_audit_creation_date              2012-10-26T20:37:30-0400
_audit_creation_method            fapswitch 2.2
_symmetry_space_group_name_H-M    P1
_symmetry_Int_Tables_number       1
_space_group_crystal_system       triclinic
_cell_length_a                    10.893363
_cell_length_b                    10.842411
_cell_length_c                    9.831047
_cell_angle_alpha                 92.105779
_cell_angle_beta                  100.78679
_cell_angle_gamma                 91.207769
_cell_volume                      1139.39855619

loop_
_atom_site_label
_atom_site_type_symbol
_atom_type_description
_atom_site_fract_x
_atom_site_fract_y
_atom_site_fract_z
_atom_type_partial_charge
C1    C     C_R   0.502304 0.265655 0.497991 0.543152
C2    C     C_2   0.127499 0.511140 0.417890 -0.112105
C3    C     C_2   0.064604 0.580255 0.497146 0.110957
C4    C     C_2   0.872513 0.528154 0.581100 -0.153980
C5    C     C_2   0.929327 0.556485 0.475998 -0.130169
C6    C     C_2   0.591597 0.931979 0.443821 0.133966
C7    C     C_3   0.680255 0.385145 0.935583 -0.239594
C8    C     C_3   0.364824 0.310828 0.099279 -0.201384
C9    C     C_3   0.440031 0.194780 0.084447 -0.296737
C10   C     C_3   0.365738 0.078823 0.107098 -0.456454
C11   C     C_3   0.054283 0.780160 0.620945 -0.316857
C12   C     C_2   0.518687 0.867986 0.514608 -0.108624
C13   C     C_3   0.636430 0.868994 0.219903 -0.282577
C14   C     C_3   0.807856 0.149660 0.541749 -0.321311
C15   C     C_3   0.274516 0.440554 0.832496 -0.209513
C16   C     C_3   0.245072 0.313271 0.755329 -0.272786
C17   C     C_3   0.104942 0.285865 0.716376 -0.480022
C18   C     C_2   0.598437 0.068984 0.455604 0.120445
C19   C     C_2   0.502745 0.132501 0.490940 -0.116691
C20   C     C_2   0.409524 0.455385 0.907428 0.153589
C21   C     C_2   0.430936 0.425410 0.059291 0.124577
C22   C     C_R   0.263266 0.504809 0.445170 0.533980
C23   C     C_R   0.505794 0.734582 0.503702 0.571773
C24   C     C_R   0.737244 0.505648 0.554998 0.545904
Cu1   Cu    Cu3+1 0.500020 0.500020 0.638640 0.907319
Cu2   Cu    Cu3+1 0.499980 0.499980 0.361360 0.904726
H1    H     H_    0.877929 0.554020 0.369832 0.138658
H2    H     H_    0.619424 0.309017 0.879163 0.162714
H3    H     H_    0.349260 0.079104 0.215182 0.156616
H4    H     H_    0.274411 0.073331 0.034218 0.142670
H5    H     H_    0.418296 0.995896 0.087207 0.136346
H6    H     H_    0.462981 0.187233 0.979119 0.137088
H7    H     H_    0.529534 0.200260 0.160024 0.182241
H8    H     H_    0.341078 0.320465 0.202294 0.205366
H9    H     H_    0.270586 0.296488 0.035530 0.095791
H10   H     H_    0.215989 0.696540 0.590483 0.266324
H11   H     H_    0.113593 0.846020 0.695911 0.124577
H12   H     H_    0.529290 0.580590 0.119174 0.227624
H13   H     H_    0.971824 0.754391 0.666039 0.159164
H14   H     H_    0.023642 0.827142 0.522209 0.139828
H15   H     H_    0.765784 0.892700 0.402219 0.255382
H16   H     H_    0.700294 0.810649 0.171326 0.125939
H17   H     H_    0.642316 0.964557 0.184007 0.143039
H18   H     H_    0.539885 0.830258 0.186361 0.158495
H19   H     H_    0.689760 0.208460 0.367512 0.268115
H20   H     H_    0.889917 0.190382 0.505939 0.134016
H21   H     H_    0.834911 0.060377 0.589126 0.141188
H22   H     H_    0.780235 0.214050 0.620643 0.148093
H23   H     H_    0.925047 0.527272 0.686560 0.110044
H24   H     H_    0.060883 0.291586 0.809493 0.142181
H25   H     H_    0.061022 0.351903 0.640016 0.166634
H26   H     H_    0.088641 0.191003 0.669015 0.126468
H27   H     H_    0.284492 0.306411 0.660066 0.207850
H28   H     H_    0.287165 0.238071 0.819860 0.142600
H29   H     H_    0.212480 0.451704 0.909603 0.091222
H30   H     H_    0.246000 0.520001 0.769092 0.196601
H31   H     H_    0.076632 0.451222 0.334014 0.056418
H32   H     H_    0.474242 0.912936 0.592216 0.050133
H33   H     H_    0.419246 0.087109 0.512112 0.037668
H34   H     H_    0.672476 0.574822 0.903528 0.260822
H35   H     H_    0.705935 0.362375 0.046237 0.120314
H36   H     H_    0.767203 0.391102 0.892148 0.120641
N1    N     N_2   0.498650 0.498660 0.846590 -0.141302
N2    N     N_2   0.498620 0.498630 0.152710 -0.343043
N3    N     N_2   0.617798 0.502399 0.925890 -0.429918
N4    N     N_2   0.125435 0.672531 0.597517 -0.509960
N5    N     N_2   0.672810 0.867966 0.368917 -0.477274
N6    N     N_2   0.706378 0.130853 0.424668 -0.519386
O1    O     O_R   0.500020 0.321960 0.617050 -0.508463
O2    O     O_R   0.499980 0.321920 0.382890 -0.515807
O3    O     O_R   0.320700 0.500020 0.574050 -0.512960
O4    O     O_R   0.320660 0.499980 0.339890 -0.513730
O5    O     O_R   0.500020 0.678080 0.617110 -0.507113
O6    O     O_R   0.499980 0.678040 0.382950 -0.470009
O7    O     O_R   0.679340 0.500020 0.660110 -0.496968
O8    O     O_R   0.679300 0.499980 0.425950 -0.484521

loop_
_geom_bond_atom_site_label_1
_geom_bond_atom_site_label_2
_ccdc_geom_bond_type
C17   H24   S    
C2    C22   S    
Cu2   O8    S    
N1    N3    S    
C7    H36   S    
C14   H21   S    
Cu1   O3    S    
C7    N3    S    
Cu2   O4    S    
C9    C10   S    
C10   H4    S    
H10   N4    S    
C13   H16   S    
C1    O2    A    
C10   H3    S    
C11   N4    S    
C4    H23   S    
C12   H32   S    
C15   H30   S    
C17   H25   S    
H19   N6    S    
C8    C21   S    
C8    C9    S    
C2    H31   S    
H15   N5    S    
C24   O7    A    
C8    H8    S    
C9    H7    S    
C12   C23   S    
C11   H14   S    
C20   N1    D    
C4    C24   S    
C7    H35   S    
C17   H26   S    
C22   O4    A    
C6    N5    S    
Cu2   O6    S    
Cu2   O2    S    
C23   O5    A    
H34   N3    S    
C2    C3    D    
Cu1   O5    S    
C6    C12   D    
C15   C20   S    
C11   H13   S    
C6    C18   S    
C16   H28   S    
C1    C19   S    
C3    N4    S    
Cu1   O1    S    
C7    H2    S    
C23   O6    A    
C18   N6    S    
C15   C16   S    
C3    C5    S    
C22   O3    A    
C13   H17   S    
C20   C21   S    
C14   H20   S    
C18   C19   D    
Cu1   N1    S    
C11   H11   S    
H12   N2    S    
Cu2   N2    S    
C16   H27   S    
C4    C5    D    
C21   N2    D    
C14   H22   S    
C13   N5    S    
C9    H6    S    
C19   H33   S    
Cu1   Cu2   S    
C5    H1    S    
C10   H5    S    
C13   H18   S    
C1    O1    A    
C24   O8    A    
C14   N6    S    
C16   C17   S    
Cu1   O7    S    
C8    H9    S    
C15   H29   S    
