data_mof_unit_33160.cif
_audit_creation_date              2012-12-11T15:56:52-0500
_audit_creation_method            fapswitch 2.2
_symmetry_space_group_name_H-M    P1
_symmetry_Int_Tables_number       1
_space_group_crystal_system       triclinic
_cell_length_a                    18.057042
_cell_length_b                    24.885324
_cell_length_c                    15.196165
_cell_angle_alpha                 89.573043
_cell_angle_beta                  126.341174
_cell_angle_gamma                 90.256961
_cell_volume                      5500.20424445

loop_
_atom_site_label
_atom_site_type_symbol
_atom_type_description
_atom_site_fract_x
_atom_site_fract_y
_atom_site_fract_z
_atom_type_partial_charge
C1    C     C_R   0.342667 0.147982 0.907152 0.630589
C2    C     C_R   0.560231 0.151839 0.912966 -0.142846
C3    C     C_R   0.866203 0.323093 0.005515 -0.124533
C4    C     C_R   0.459595 0.000430 0.283996 -0.298998
C5    C     C_R   0.951846 0.500171 0.275757 -0.298342
C6    C     C_R   0.176224 0.999371 0.687678 -0.271112
C7    C     C_R   0.675638 0.499873 0.691149 -0.266114
C8    C     C_R   0.455463 0.045094 0.697535 -0.000987
C9    C     C_R   0.448811 0.955934 0.694193 0.031086
C10   C     C_R   0.953002 0.544952 0.696208 0.010271
C11   C     C_R   0.952057 0.455801 0.695783 -0.003678
C12   C     C_R   0.752460 0.955928 0.309038 0.524540
C13   C     C_R   0.064375 0.351339 0.910222 -0.213309
C14   C     C_R   0.756605 0.045402 0.303726 0.598171
C15   C     C_R   0.253642 0.454915 0.308743 0.576060
C16   C     C_R   0.252681 0.543696 0.310461 0.572129
C17   C     C_3   0.346388 0.181012 0.770930 -0.183793
C18   C     C_3   0.394277 0.794480 0.815233 -0.357422
C19   C     C_3   0.867663 0.679499 0.786433 -0.181967
C20   C     C_3   0.849681 0.318388 0.778622 -0.222696
C21   C     C_3   0.979132 0.857619 0.479388 -0.245959
C22   C     C_3   0.008139 0.117435 0.412475 -0.114497
C23   C     C_3   0.478955 0.363519 0.468525 -0.113859
C24   C     C_R   0.079119 0.643993 0.912800 -0.106123
C25   C     C_3   0.468961 0.636995 0.473500 -0.200940
C26   C     C_2   0.315084 0.846855 0.119450 0.471355
C27   C     C_2   0.353486 0.204112 0.196122 0.344051
C28   C     C_2   0.893737 0.302757 0.228456 0.658245
C29   C     C_2   0.890682 0.717419 0.210871 0.423133
C30   C     C_3   0.125576 0.862198 0.925965 -0.094588
C31   C     C_3   0.207250 0.115980 0.083955 -0.118519
C32   C     C_3   0.711150 0.364969 0.126964 -0.109879
C33   C     C_3   0.710109 0.655658 0.117081 -0.021846
C34   C     C_2   0.799239 0.218571 0.225163 0.531936
C35   C     C_R   0.431866 0.000870 0.629437 -0.169112
C36   C     C_2   0.761974 0.783317 0.191268 0.493227
C37   C     C_2   0.238322 0.766017 0.161325 0.465244
C38   C     C_2   0.170750 0.227098 0.124205 0.431660
C39   C     C_2   0.935939 0.214647 0.129245 0.575229
C40   C     C_2   0.977690 0.771291 0.101828 0.420318
C41   C     C_2   0.459458 0.742764 0.199254 0.524939
C42   C     C_2   0.453419 0.276182 0.129942 0.542919
C43   C     C_3   0.847131 0.098169 0.071659 0.150095
C44   C     C_3   0.958045 0.879135 0.187653 -0.252160
C45   C     C_3   0.427585 0.623787 0.222313 -0.022036
C46   C     C_R   0.933661 0.500624 0.630273 -0.146694
C47   C     C_3   0.396442 0.372895 0.194304 -0.036794
C48   C     C_2   0.857344 0.212626 0.933228 0.432442
C49   C     C_2   0.869112 0.789624 0.907373 0.621956
C50   C     C_2   0.449848 0.705587 0.046869 0.325766
C51   C     C_2   0.365841 0.291018 0.934944 0.670670
C52   C     C_2   0.705409 0.157696 0.883950 0.472747
C53   C     C_2   0.815781 0.879509 0.966260 0.539005
C54   C     C_2   0.310579 0.631667 0.995915 0.476339
C55   C     C_2   0.269650 0.370207 0.971687 0.520584
C56   C     C_3   0.595185 0.106728 0.378752 -0.292618
C57   C     C_R   0.804534 0.000476 0.366479 -0.290536
C58   C     C_3   0.574621 0.881138 0.348631 -0.330766
C59   C     C_3   0.066524 0.616577 0.349725 -0.246282
C60   C     C_3   0.076002 0.385027 0.351918 -0.262470
C61   C     C_3   0.207786 0.898874 0.594310 -0.184434
C62   C     C_3   0.223191 0.087849 0.586309 -0.280387
C63   C     C_3   0.714584 0.408502 0.587400 -0.255149
C64   C     C_3   0.711864 0.598142 0.593408 -0.204346
C65   C     C_2   0.463522 0.101425 0.675088 0.502790
C66   C     C_2   0.434981 0.899563 0.661302 0.360944
C67   C     C_2   0.962729 0.600767 0.673873 0.426397
C68   C     C_R   0.301944 0.498991 0.370206 -0.277335
C69   C     C_2   0.957416 0.399910 0.671207 0.406119
C70   C     C_3   0.783851 0.903735 0.454067 -0.222186
C71   C     C_3   0.810641 0.112653 0.434700 -0.185767
C72   C     C_3   0.283727 0.404467 0.457767 -0.206664
C73   C     C_3   0.273981 0.587111 0.460332 -0.248572
C74   C     C_2   0.632125 0.173804 0.177178 0.471593
C75   C     C_2   0.771649 0.912650 0.151302 0.466458
C76   C     C_2   0.210412 0.663040 0.204187 0.607160
C77   C     C_2   0.195742 0.330568 0.200484 0.729040
C78   C     C_R   0.621429 0.181788 0.004836 0.034474
C79   C     C_R   0.675362 0.855092 0.997420 -0.038244
C80   C     C_R   0.156714 0.666587 0.005707 0.058896
C81   C     C_R   0.355767 0.848034 0.906709 0.784151
C82   C     C_R   0.135880 0.325081 0.000193 0.058011
C83   C     C_3   0.013552 0.958426 0.601786 -0.259006
C84   C     C_3   0.015126 0.046405 0.582056 -0.239650
C85   C     C_3   0.514919 0.454620 0.604053 -0.234208
C86   C     C_3   0.512890 0.542680 0.606002 -0.228893
C87   C     C_3   0.947052 0.005557 0.575292 -0.340710
C88   C     C_3   0.446666 0.497467 0.590593 -0.353286
C89   C     C_3   0.902969 0.998359 0.453066 0.021295
C90   C     C_3   0.399295 0.498794 0.465941 -0.004944
C91   C     C_3   0.969045 0.951941 0.479062 0.652067
C92   C     C_R   0.842196 0.648290 0.907398 0.614010
C93   C     C_3   0.971102 0.038050 0.459992 0.633589
C94   C     C_3   0.466958 0.456303 0.479918 0.630603
C95   C     C_3   0.464904 0.543485 0.481886 0.636833
C96   C     C_3   0.035848 0.991815 0.482982 -0.426674
C97   C     C_3   0.529956 0.501095 0.489685 -0.437017
C98   C     C_R   0.450052 0.845935 0.086563 -0.157694
C99   C     C_R   0.434103 0.149430 0.088280 -0.099653
C100  C     C_R   0.939388 0.350042 0.091921 -0.134091
C101  C     C_R   0.935882 0.649817 0.088328 0.029942
C102  C     C_3   0.079032 0.999183 0.604913 0.179570
C103  C     C_R   0.842727 0.351131 0.912290 0.627712
C104  C     C_3   0.577203 0.499823 0.613462 0.187449
C105  C     C_3   0.262665 0.806412 0.025316 0.465711
C106  C     C_3   0.278170 0.197279 0.074114 0.458258
C107  C     C_3   0.802349 0.297431 0.114012 0.425131
C108  C     C_3   0.802327 0.717688 0.094041 0.441670
C109  C     C_3   0.744297 0.251173 0.118459 -0.425460
C110  C     C_3   0.739279 0.764869 0.081867 -0.367820
C111  C     C_3   0.213622 0.761964 0.047562 -0.424941
C112  C     C_3   0.194719 0.230690 0.044364 -0.352737
C113  C     C_3   0.841182 0.221760 0.020769 -0.372836
C114  C     C_R   0.639411 0.152131 0.092423 0.056289
C115  C     C_3   0.874310 0.779266 0.011997 -0.291840
C116  C     C_3   0.388716 0.726018 0.079604 -0.272852
C117  C     C_3   0.354075 0.276262 0.025394 -0.341500
C118  C     C_3   0.256090 0.749848 0.883865 -0.307085
C119  C     C_3   0.210808 0.224755 0.877203 -0.275276
C120  C     C_3   0.707507 0.289003 0.908087 -0.269732
C121  C     C_3   0.719756 0.729893 0.892021 -0.284003
C122  C     C_3   0.326650 0.775338 0.000047 0.024563
C123  C     C_3   0.305525 0.218879 0.996259 -0.011392
C124  C     C_3   0.808760 0.282410 0.015010 -0.014672
C125  C     C_R   0.688975 0.879988 0.086607 0.071689
C126  C     C_3   0.819009 0.725880 0.001143 0.043508
C127  C     C_3   0.692083 0.216612 0.010997 0.113947
C128  C     C_3   0.732380 0.809742 0.003136 0.062354
C129  C     C_3   0.220319 0.705443 0.005897 0.061293
C130  C     C_3   0.194606 0.286852 0.993345 0.104823
C131  C     C_3   0.761508 0.181668 0.000438 0.404489
C132  C     C_3   0.831029 0.828786 0.035433 0.358476
C133  C     C_3   0.321150 0.679705 0.067292 0.450374
C134  C     C_3   0.291572 0.316694 0.037715 0.362930
C135  C     C_3   0.639304 0.258001 0.915964 -0.580765
C136  C     C_R   0.168142 0.641870 0.095160 0.045747
C137  C     C_3   0.676144 0.782310 0.888423 -0.524965
C138  C     C_3   0.184857 0.716883 0.884576 -0.533054
C139  C     C_3   0.152908 0.270823 0.873274 -0.580812
C140  C     C_3   0.375274 0.050531 0.450308 -0.525619
C141  C     C_3   0.527185 0.998602 0.568776 -0.328172
C142  C     C_3   0.871709 0.549558 0.448515 -0.511562
C143  C     C_3   0.027480 0.502565 0.565713 -0.345231
C144  C     C_R   0.490289 0.045019 0.257949 0.554981
C145  C     C_R   0.487888 0.955347 0.256828 0.604266
C146  C     C_R   0.982306 0.544637 0.249638 0.516833
C147  C     C_R   0.158963 0.353154 0.092689 -0.031816
C148  C     C_R   0.983286 0.455431 0.251693 0.546387
C149  C     C_3   0.403700 0.055184 0.373615 -0.260280
C150  C     C_3   0.532827 0.986469 0.476114 -0.485036
C151  C     C_3   0.896611 0.554930 0.368138 -0.264092
C152  C     C_3   0.030618 0.489428 0.471249 -0.472380
C153  C     C_3   0.370884 0.951909 0.447212 -0.464143
C154  C     C_3   0.876917 0.450205 0.452713 -0.436639
C155  C     C_3   0.425098 0.000531 0.526445 0.434916
C156  C     C_3   0.926481 0.500860 0.526934 0.411768
C157  C     C_3   0.440208 0.000106 0.365860 0.382479
C158  C     C_R   0.588616 0.868135 0.908085 -0.162306
C159  C     C_3   0.935561 0.500540 0.361166 0.401556
C160  C     C_3   0.367061 0.957803 0.343017 -0.331263
C161  C     C_3   0.866308 0.457050 0.344434 -0.368964
C162  C     C_R   0.231081 0.954402 0.727190 0.547317
C163  C     C_R   0.230444 0.044754 0.722736 0.569062
C164  C     C_R   0.730512 0.454821 0.725826 0.546698
C165  C     C_R   0.730267 0.545020 0.726965 0.530914
C166  C     C_R   0.363798 0.176788 0.996126 -0.131064
C167  C     C_R   0.385488 0.816127 0.996304 -0.227189
C168  C     C_R   0.863795 0.676398 0.997709 -0.111195
H1    H     H_    0.034465 0.926719 0.664264 0.148966
H2    H     H_    0.667822 0.749461 0.037591 0.182564
H3    H     H_    0.636609 0.666217 0.056396 0.140711
H4    H     H_    0.831068 0.180993 0.232202 0.159106
H5    H     H_    0.827494 0.801891 0.252216 0.085709
H6    H     H_    0.300126 0.748573 0.230726 0.112131
H7    H     H_    0.222303 0.219901 0.210714 0.070945
H8    H     H_    0.991784 0.239299 0.144720 0.087020
H9    H     H_    0.012303 0.785146 0.184359 0.109634
H10   H     H_    0.531096 0.748591 0.231383 0.079007
H11   H     H_    0.476969 0.249155 0.196994 0.029589
H12   H     H_    0.872785 0.110221 0.023790 0.111978
H13   H     H_    0.289464 0.723417 0.858889 0.125673
H14   H     H_    0.804778 0.061253 0.036464 0.170519
H15   H     H_    0.907187 0.086992 0.155166 0.154931
H16   H     H_    0.930005 0.920514 0.167822 0.203494
H17   H     H_    0.998421 0.873210 0.155035 0.175137
H18   H     H_    0.006550 0.876022 0.277945 0.169371
H19   H     H_    0.457241 0.616708 0.177533 0.133489
H20   H     H_    0.405268 0.584053 0.232199 0.180530
H21   H     H_    0.484284 0.639348 0.303363 0.158327
H22   H     H_    0.359641 0.408657 0.193773 0.162286
H23   H     H_    0.429835 0.382697 0.154643 0.172043
H24   H     H_    0.217355 0.233994 0.811248 0.256481
H25   H     H_    0.455145 0.363170 0.278550 0.164889
H26   H     H_    0.809836 0.228380 0.851523 0.058892
H27   H     H_    0.930591 0.788821 0.910173 0.046664
H28   H     H_    0.440087 0.719381 0.973304 0.061416
H29   H     H_    0.429282 0.280476 0.946135 0.012558
H30   H     H_    0.677985 0.183429 0.813245 0.012606
H31   H     H_    0.749640 0.899485 0.916896 0.050838
H32   H     H_    0.324954 0.635817 0.936349 0.001437
H33   H     H_    0.203090 0.389086 0.928952 0.057982
H34   H     H_    0.642137 0.085470 0.366438 0.107501
H35   H     H_    0.700106 0.274581 0.834727 0.176118
H36   H     H_    0.612789 0.095965 0.460014 0.155540
H37   H     H_    0.607364 0.150494 0.379383 0.186086
H38   H     H_    0.619428 0.902089 0.427558 0.137499
H39   H     H_    0.605300 0.881841 0.303469 0.193778
H40   H     H_    0.570360 0.838584 0.367430 0.206494
H41   H     H_    0.104043 0.618098 0.313052 0.214436
H42   H     H_    0.103304 0.592771 0.426495 0.108980
H43   H     H_    0.063279 0.658299 0.372006 0.202639
H44   H     H_    0.120034 0.410861 0.423944 0.123282
H45   H     H_    0.104351 0.382271 0.304664 0.161983
H46   H     H_    0.714037 0.728760 0.816109 0.260264
H47   H     H_    0.077431 0.344293 0.382805 0.190385
H48   H     H_    0.253686 0.928456 0.592987 0.072678
H49   H     H_    0.138167 0.903376 0.517241 0.140995
H50   H     H_    0.230889 0.857781 0.593714 0.186054
H51   H     H_    0.210058 0.127261 0.544977 0.163824
H52   H     H_    0.295488 0.077592 0.625405 0.115716
H53   H     H_    0.179674 0.057087 0.523748 0.126546
H54   H     H_    0.779870 0.427681 0.612557 0.101505
H55   H     H_    0.656564 0.429980 0.515147 0.142324
H56   H     H_    0.714356 0.366957 0.561424 0.167388
H57   H     H_    0.495016 0.832115 0.168325 0.144938
H58   H     H_    0.706438 0.640845 0.568879 0.172285
H59   H     H_    0.779308 0.582890 0.617775 0.093556
H60   H     H_    0.655999 0.576102 0.520628 0.125983
H61   H     H_    0.410963 0.130282 0.654075 -0.070684
H62   H     H_    0.379644 0.876970 0.651345 0.034115
H63   H     H_    0.907429 0.629208 0.644318 -0.032370
H64   H     H_    0.898606 0.373498 0.636078 -0.006099
H65   H     H_    0.750187 0.936948 0.467048 0.097329
H66   H     H_    0.858342 0.905842 0.517752 0.161935
H67   H     H_    0.761839 0.864831 0.467652 0.162408
H68   H     H_    0.474071 0.163368 0.170747 0.179694
H69   H     H_    0.883760 0.124737 0.483245 0.185552
H70   H     H_    0.801176 0.080708 0.478854 0.083508
H71   H     H_    0.772455 0.148580 0.430276 0.159012
H72   H     H_    0.255724 0.439585 0.474137 0.098802
H73   H     H_    0.358369 0.402868 0.519115 0.168012
H74   H     H_    0.258173 0.367018 0.471160 0.148142
H75   H     H_    0.348159 0.584805 0.524948 0.164915
H76   H     H_    0.237748 0.552389 0.465809 0.106405
H77   H     H_    0.252271 0.624403 0.478544 0.159605
H78   H     H_    0.634777 0.146762 0.234763 0.053586
H79   H     H_    0.990965 0.333108 0.169606 0.107091
H80   H     H_    0.829081 0.897944 0.228837 0.148876
H81   H     H_    0.284086 0.663880 0.264043 0.102939
H82   H     H_    0.151177 0.327667 0.225944 -0.047673
H83   H     H_    0.983516 0.667276 0.166996 0.166084
H84   H     H_    0.218004 0.780179 0.817455 0.256534
H85   H     H_    0.037115 0.084461 0.628857 0.157393
H86   H     H_    0.171190 0.186520 0.853526 0.201208
H87   H     H_    0.685651 0.331893 0.890807 0.218117
H88   H     H_    0.676688 0.695483 0.884363 0.187473
H89   H     H_    0.118573 0.739317 0.839202 0.212724
H90   H     H_    0.080465 0.256730 0.828361 0.198871
H91   H     H_    0.599522 0.286148 0.929944 0.218055
H92   H     H_    0.605376 0.771531 0.860550 0.178258
H93   H     H_    0.587728 0.239943 0.835114 0.169208
H94   H     H_    0.668101 0.809998 0.825602 0.242400
H95   H     H_    0.170370 0.679680 0.836838 0.219353
H96   H     H_    0.540593 0.419577 0.660511 0.147197
H97   H     H_    0.150869 0.304999 0.824511 0.250746
H98   H     H_    0.299365 0.045334 0.401592 0.166213
H99   H     H_    0.567048 0.967454 0.633561 0.201557
H100  H     H_    0.796486 0.542473 0.402790 0.169225
H101  H     H_    0.072031 0.473620 0.633533 0.212694
H102  H     H_    0.387236 0.089898 0.487688 0.192425
H103  H     H_    0.561478 0.037674 0.605008 0.222246
H104  H     H_    0.883076 0.589132 0.485296 0.186965
H105  H     H_    0.057467 0.543062 0.596301 0.219647
H106  H     H_    0.458518 0.085997 0.410396 0.250171
H107  H     H_    0.536275 0.577109 0.662773 0.145689
H108  H     H_    0.592006 0.008338 0.488254 0.151749
H109  H     H_    0.949677 0.586803 0.401981 0.243093
H110  H     H_    0.087715 0.511837 0.479529 0.145068
H111  H     H_    0.344537 0.068868 0.291786 0.182199
H112  H     H_    0.546699 0.942917 0.480042 0.219602
H113  H     H_    0.835522 0.567746 0.286598 0.174300
H114  H     H_    0.046503 0.446081 0.478255 0.224603
H115  H     H_    0.300310 0.948989 0.425363 0.150018
H116  H     H_    0.405090 0.913302 0.481597 0.240579
H117  H     H_    0.808608 0.443771 0.435890 0.147897
H118  H     H_    0.072118 0.986880 0.444896 0.131131
H119  H     H_    0.918228 0.413356 0.490311 0.228118
H120  H     H_    0.297301 0.971153 0.273013 0.167046
H121  H     H_    0.377822 0.917860 0.320939 0.231796
H122  H     H_    0.794899 0.469842 0.278329 0.143600
H123  H     H_    0.876335 0.417992 0.319913 0.263781
H124  H     H_    0.553427 0.852963 0.828084 0.166691
H125  H     H_    0.525902 0.164902 0.830205 0.104354
H126  H     H_    0.023509 0.336991 0.828106 0.145321
H127  H     H_    0.042307 0.660545 0.832237 0.118544
H128  H     H_    0.908600 0.010726 0.610667 0.167054
H129  H     H_    0.561825 0.502815 0.445924 0.128716
H130  H     H_    0.410727 0.495807 0.629681 0.167376
H131  H     H_    0.378786 0.144926 0.766367 0.127738
H132  H     H_    0.398880 0.210848 0.828266 0.093747
H133  H     H_    0.303688 0.199914 0.688716 0.177745
H134  H     H_    0.367660 0.752854 0.797204 0.159131
H135  H     H_    0.463347 0.795744 0.895496 0.137462
H136  H     H_    0.403989 0.804860 0.751967 0.175777
H137  H     H_    0.887829 0.640640 0.772498 0.122414
H138  H     H_    0.928708 0.701282 0.854809 0.113327
H139  H     H_    0.836904 0.704349 0.711541 0.165271
H140  H     H_    0.138509 0.770078 0.994985 0.197419
H141  H     H_    0.908356 0.292399 0.840269 0.143284
H142  H     H_    0.874070 0.356198 0.765203 0.141449
H143  H     H_    0.810002 0.296052 0.700521 0.166256
H144  H     H_    0.046105 0.863139 0.559719 0.176314
H145  H     H_    0.990031 0.828029 0.433821 0.168002
H146  H     H_    0.929581 0.839518 0.491448 0.173673
H147  H     H_    0.052533 0.107118 0.387056 0.141046
H148  H     H_    0.048930 0.126473 0.500797 0.146679
H149  H     H_    0.972982 0.155522 0.371928 0.199363
H150  H     H_    0.463194 0.354833 0.527347 0.118754
H151  H     H_    0.134315 0.207975 0.976489 0.202785
H152  H     H_    0.553909 0.363631 0.510552 0.153706
H153  H     H_    0.450509 0.329201 0.411444 0.197906
H154  H     H_    0.544994 0.637726 0.526242 0.177196
H155  H     H_    0.442867 0.643477 0.522751 0.140066
H156  H     H_    0.444860 0.671578 0.416408 0.198350
H157  H     H_    0.363767 0.833460 0.202649 0.092163
H158  H     H_    0.375739 0.243351 0.232004 0.101944
H159  H     H_    0.956066 0.283448 0.252364 -0.096172
H160  H     H_    0.941510 0.748316 0.239603 0.000552
H161  H     H_    0.119241 0.904272 0.897615 0.165021
H162  H     H_    0.689086 0.269436 0.118371 0.226960
H163  H     H_    0.136788 0.863248 0.006189 0.159653
H164  H     H_    0.059325 0.841653 0.866046 0.110547
H165  H     H_    0.132143 0.122251 0.023498 0.146446
H166  H     H_    0.230006 0.128611 0.166116 0.131894
H167  H     H_    0.219256 0.072052 0.088373 0.150893
H168  H     H_    0.712831 0.409334 0.132489 0.137209
H169  H     H_    0.739667 0.348402 0.209200 0.190452
H170  H     H_    0.637628 0.353714 0.068740 0.149220
H171  H     H_    0.738547 0.676095 0.195564 0.179870
H172  H     H_    0.711973 0.611880 0.131931 0.131657
N1    N     N_R   0.392450 0.103580 0.942190 -0.116920
N2    N     N_R   0.525490 0.971610 0.207550 -0.153394
N3    N     N_R   0.025490 0.528390 0.207550 -0.143289
N4    N     N_R   0.025490 0.471610 0.207550 -0.147334
N5    N     N_R   0.317450 0.971190 0.792000 -0.146273
N6    N     N_R   0.317450 0.028810 0.792000 -0.151609
N7    N     N_R   0.817450 0.471190 0.792000 -0.147574
N8    N     N_R   0.817450 0.528810 0.792000 -0.148736
N9    N     N_R   0.473900 0.028390 0.792280 -0.063377
N10   N     N_R   0.473900 0.971610 0.792280 -0.062789
N11   N     N_R   0.973900 0.528390 0.792280 -0.063409
N12   N     N_R   0.392450 0.896420 0.942190 -0.104927
N13   N     N_R   0.973900 0.471610 0.792280 -0.061085
N14   N     N_R   0.682310 0.971180 0.208170 -0.119976
N15   N     N_R   0.682310 0.028820 0.208170 -0.123941
N16   N     N_R   0.182310 0.471180 0.208170 -0.147918
N17   N     N_R   0.182310 0.528820 0.208170 -0.139475
N18   N     N_R   0.606470 0.103570 0.057210 -0.061825
N19   N     N_R   0.606470 0.896430 0.057210 -0.053171
N20   N     N_R   0.106470 0.603570 0.057210 -0.058020
N21   N     N_R   0.106470 0.396430 0.057210 -0.087953
N22   N     N_R   0.549740 0.896000 0.943240 -0.055235
N23   N     N_R   0.892450 0.603580 0.942190 -0.125645
N24   N     N_R   0.549740 0.104000 0.943240 -0.042282
N25   N     N_R   0.049740 0.396000 0.943240 -0.053248
N26   N     N_R   0.049740 0.604000 0.943240 -0.060118
N27   N     N_R   0.892450 0.396420 0.942190 -0.111489
N28   N     N_R   0.450490 0.896000 0.057360 -0.054885
N29   N     N_R   0.450490 0.104000 0.057360 -0.091530
N30   N     N_R   0.950490 0.396000 0.057360 -0.076477
N31   N     N_R   0.950490 0.604000 0.057360 -0.086733
N32   N     N_R   0.525490 0.028390 0.207550 -0.159757
Ni1   Ni    Ni4+2 0.433780 0.065390 0.868430 0.204845
Ni2   Ni    Ni4+2 0.433780 0.934610 0.868430 0.235118
Ni3   Ni    Ni4+2 0.933780 0.565390 0.868430 0.200526
Ni4   Ni    Ni4+2 0.933780 0.434610 0.868430 0.194704
Ni5   Ni    Ni4+2 0.565800 0.934190 0.131570 0.240981
Ni6   Ni    Ni4+2 0.565800 0.065810 0.131570 0.208383
Ni7   Ni    Ni4+2 0.065800 0.434190 0.131570 0.193435
Ni8   Ni    Ni4+2 0.065800 0.565810 0.131570 0.247577
O1    O     O_3   0.289316 0.165348 0.800443 -0.613066
O2    O     O_2   0.384158 0.166023 0.258652 -0.547020
O3    O     O_2   0.896283 0.323829 0.302387 -0.552190
O4    O     O_2   0.900795 0.685793 0.278871 -0.561974
O5    O     O_3   0.196562 0.836490 0.927738 -0.614740
O6    O     O_3   0.255755 0.141138 0.048264 -0.599701
O7    O     O_3   0.759845 0.349736 0.084734 -0.613765
O8    O     O_3   0.759206 0.665773 0.072708 -0.625061
O9    O     O_2   0.808153 0.235127 0.306478 -0.533292
O10   O     O_2   0.706201 0.777621 0.211485 -0.588845
O11   O     O_2   0.191466 0.793032 0.177871 -0.549570
O12   O     O_3   0.328311 0.829637 0.805582 -0.611337
O13   O     O_2   0.090967 0.231622 0.091081 -0.600780
O14   O     O_2   0.952304 0.184313 0.201833 -0.650071
O15   O     O_2   0.024984 0.746103 0.083390 -0.566870
O16   O     O_2   0.440397 0.749185 0.262894 -0.648661
O17   O     O_2   0.509723 0.308922 0.142585 -0.576903
O18   O     O_3   0.796055 0.138792 0.079202 -0.625056
O19   O     O_3   0.887271 0.840252 0.150179 -0.706765
O20   O     O_3   0.351650 0.659862 0.172129 -0.659228
O21   O     O_3   0.336084 0.328009 0.150672 -0.660335
O22   O     O_2   0.920324 0.184735 0.950491 -0.556346
O23   O     O_3   0.801430 0.670851 0.805327 -0.601802
O24   O     O_2   0.798140 0.801964 0.819532 -0.617473
O25   O     O_2   0.511886 0.673381 0.103245 -0.624112
O26   O     O_2   0.305345 0.311805 0.847931 -0.591380
O27   O     O_2   0.689156 0.109685 0.867616 -0.537881
O28   O     O_2   0.877508 0.898460 0.964606 -0.614973
O29   O     O_2   0.280331 0.588596 0.000745 -0.561049
O30   O     O_2   0.327417 0.394274 0.968957 -0.560156
O31   O     O_3   0.501445 0.096308 0.296568 -0.580324
O32   O     O_3   0.485700 0.903029 0.285850 -0.629631
O33   O     O_3   0.977090 0.597002 0.273207 -0.596253
O34   O     O_3   0.791400 0.329909 0.808592 -0.618556
O35   O     O_3   0.985050 0.403879 0.285899 -0.606648
O36   O     O_3   0.204710 0.903379 0.684916 -0.588175
O37   O     O_3   0.203757 0.091821 0.663315 -0.571649
O38   O     O_3   0.703436 0.406417 0.671971 -0.576069
O39   O     O_3   0.701799 0.594979 0.678696 -0.580893
O40   O     O_2   0.526569 0.115802 0.672055 -0.573854
O41   O     O_2   0.488958 0.876983 0.650290 -0.612730
O42   O     O_2   0.031746 0.615106 0.683149 -0.603135
O43   O     O_2   0.027740 0.383318 0.686488 -0.586529
O44   O     O_3   0.762041 0.903830 0.347841 -0.603095
O45   O     O_3   0.942100 0.904863 0.415483 -0.629748
O46   O     O_3   0.779421 0.099285 0.327450 -0.609731
O47   O     O_3   0.259044 0.404105 0.350190 -0.604344
O48   O     O_3   0.254449 0.592385 0.355624 -0.609154
O49   O     O_2   0.615937 0.220991 0.179124 -0.590101
O50   O     O_2   0.776463 0.955946 0.116481 -0.610552
O51   O     O_2   0.162228 0.678902 0.230374 -0.563937
O52   O     O_2   0.275133 0.315406 0.262752 -0.570008
O53   O     O_3   0.941476 0.077123 0.377494 -0.595893
O54   O     O_3   0.438524 0.411812 0.409174 -0.627608
O55   O     O_3   0.434478 0.589075 0.412644 -0.643527
O56   O     O_2   0.302977 0.895226 0.102457 -0.572843

loop_
_geom_bond_atom_site_label_1
_geom_bond_atom_site_label_2
_ccdc_geom_bond_type
C69   O43   D    
C83   C102  S    
C96   C102  S    
C153  H115  S    
C154  C161  S    
C146  N3    A    
C158  H124  S    
C165  O39   S    
C82   C147  A    
C90   C95   S    
C73   O48   S    
C164  O38   S    
N12   N28   A    
C13   H126  S    
C141  H99   S    
N12   Ni2   S    
C60   H47   S    
C150  H108  S    
C70   O44   S    
C151  H113  S    
C86   C88   S    
C73   H77   S    
C74   C114  S    
C154  H117  S    
C62   H53   S    
N23   Ni3   S    
C51   H29   S    
C66   O41   D    
C91   C96   S    
C3    C100  A    
C109  C127  S    
C56   H37   S    
C59   H43   S    
C68   C90   S    
C25   O55   S    
C29   C108  S    
C61   H48   S    
C26   O56   D    
C32   H170  S    
C77   C147  S    
C59   H42   S    
C18   H136  S    
C137  H94   S    
C23   H153  S    
C17   H132  S    
C67   H63   S    
C21   H146  S    
C5    C148  A    
C22   H149  S    
C59   O33   S    
C19   H138  S    
C130  C134  S    
C107  C124  S    
N4    Ni7   S    
C21   O45   S    
C78   C127  S    
C26   C105  S    
C33   H172  S    
C43   H12   S    
C108  O8    S    
C69   H64   S    
C116  C133  S    
C49   H27   S    
C94   C97   S    
C13   C82   A    
C32   O7    S    
C112  H151  S    
C8    C35   A    
C142  C151  S    
N6    Ni1   S    
C2    C78   A    
C19   H139  S    
C92   C168  A    
C15   N16   A    
C11   C69   S    
C81   C167  A    
C53   C132  S    
C60   H44   S    
N23   N31   A    
C57   C89   S    
C129  C133  S    
C49   C115  S    
C1    O1    S    
C157  C160  S    
C87   C89   S    
C52   H30   S    
C3    C103  A    
C14   C57   A    
C122  C167  S    
C145  O32   S    
C47   H25   S    
C61   H49   S    
C162  O36   S    
C4    C144  A    
C95   C97   S    
C42   C117  S    
C119  C123  S    
C83   C91   S    
C12   N14   A    
C120  C135  S    
C62   H51   S    
N16   Ni7   S    
N13   Ni4   S    
C100  H79   S    
C86   H107  S    
C136  N20   A    
C113  C124  S    
C64   O39   S    
C74   H78   S    
C83   H1    S    
C43   H15   S    
N27   N30   A    
C84   C93   S    
C6    C102  S    
C1    N1    A    
C127  C131  S    
C37   C111  S    
C86   C95   S    
C28   H159  S    
C72   O47   S    
N5    Ni2   S    
C22   H147  S    
C81   N12   A    
N7    Ni4   S    
C11   C46   A    
C77   H82   S    
C34   O9    D    
C108  C126  S    
C118  C138  S    
C75   H80   S    
C110  C128  S    
N14   Ni5   S    
N9    N10   A    
C150  C157  S    
C63   O38   S    
C84   C102  S    
C16   O48   S    
C92   N23   A    
C128  C137  S    
C86   C104  S    
C79   C158  A    
C15   O47   S    
C131  O18   S    
C67   O42   D    
C95   O55   S    
C142  H100  S    
N3    Ni8   S    
C55   H33   S    
C139  H90   S    
N21   Ni7   S    
C31   H166  S    
N2    N32   A    
C118  C122  S    
C121  C137  S    
C134  O21   S    
C119  H86   S    
N29   Ni6   S    
C20   H141  S    
C39   C113  S    
C99   N29   A    
C21   H144  S    
N18   N24   A    
C89   C91   S    
C44   H17   S    
C70   H67   S    
C79   C125  A    
C152  C159  S    
C151  H109  S    
C8    C65   S    
N22   Ni2   S    
C30   H163  S    
C2    H125  S    
C17   O1    S    
C38   O13   D    
C152  H114  S    
C141  C150  S    
C115  C132  S    
C53   H31   S    
C71   H70   S    
C72   H74   S    
C119  H24   S    
C45   H19   S    
C27   C106  S    
N27   Ni4   S    
C70   H65   S    
C151  C159  S    
C101  C168  A    
C4    C157  S    
C25   H155  S    
C58   H40   S    
C18   H135  S    
C54   O29   D    
C159  C161  S    
C14   N15   A    
C103  O34   S    
C6    C163  A    
C12   C57   A    
C36   C110  S    
C140  H98   S    
C88   H130  S    
C38   C112  S    
C40   O15   D    
C9    C35   A    
C94   O54   S    
C85   C88   S    
C23   O54   S    
C80   C129  S    
C143  H101  S    
C48   O22   D    
C53   O28   D    
C46   C156  S    
C135  H91   S    
C87   H128  S    
C165  N8    A    
C65   H61   S    
C29   H160  S    
C142  C156  S    
C47   H22   S    
C120  H87   S    
N18   Ni6   S    
C92   O23   S    
N20   N26   A    
C99   H68   S    
C73   H76   S    
C1    C166  A    
C20   H143  S    
C4    C145  A    
C147  N21   A    
C51   C117  S    
C108  C110  S    
C105  C122  S    
N19   N22   A    
C149  H111  S    
C7    C165  A    
C40   H9    S    
C36   H5    S    
C24   N26   A    
C74   O49   D    
C107  O7    S    
N14   N15   A    
C44   H18   S    
C84   H85   S    
C30   H161  S    
C105  O5    S    
C112  C130  S    
C140  C149  S    
C64   H59   S    
C59   H41   S    
C83   C87   S    
C17   H131  S    
C21   H145  S    
C19   H137  S    
C63   H54   S    
N3    N4    A    
C162  N5    A    
C78   C114  A    
C33   H171  S    
C115  C126  S    
C116  C122  S    
C148  N4    A    
C161  H123  S    
N8    Ni3   S    
C127  C135  S    
C126  C168  S    
C101  N31   A    
C40   C115  S    
C58   H38   S    
C163  N6    A    
C37   H6    S    
C123  C166  S    
C50   H28   S    
C111  C129  S    
C76   O51   D    
C8    N9    A    
C12   O44   S    
C96   H118  S    
C31   H167  S    
C5    C146  A    
C153  C155  S    
C154  C156  S    
C98   H57   S    
C144  O31   S    
C105  C111  S    
C153  H116  S    
C107  C109  S    
C101  H83   S    
C52   O27   D    
C76   H81   S    
C72   H73   S    
C65   O40   D    
C2    N24   A    
C90   C94   S    
C97   H129  S    
C61   H50   S    
C29   O4    D    
N7    N8    A    
C26   H157  S    
C141  C155  S    
C43   O18   S    
N11   Ni3   S    
C54   C133  S    
C75   C125  S    
C71   H71   S    
C55   O30   D    
C42   H11   S    
C14   O46   S    
N2    Ni5   S    
C146  O33   S    
C158  N22   A    
N1    Ni1   S    
C32   H169  S    
C27   H158  S    
C85   C104  S    
C152  H110  S    
N30   Ni7   S    
C110  H2    S    
C143  C152  S    
C88   C90   S    
C31   O6    S    
C22   H148  S    
C27   O2    D    
C16   N17   A    
C85   H96   S    
C145  N2    A    
C33   H3    S    
C34   H4    S    
C3    C124  S    
C118  H13   S    
N21   N25   A    
C48   H26   S    
C52   C131  S    
N24   Ni1   S    
C51   O26   D    
C35   C155  S    
C45   O20   S    
N11   N13   A    
C18   O12   S    
N20   Ni8   S    
C55   C134  S    
C7    C164  A    
C80   C136  A    
C28   O3    D    
C119  C139  S    
C121  H46   S    
N28   Ni5   S    
C20   O34   S    
C75   O50   D    
C38   H7    S    
C163  O37   S    
C153  C160  S    
C140  H102  S    
C31   H165  S    
C141  H103  S    
C47   H23   S    
C37   O11   D    
C150  H112  S    
C97   C104  S    
C140  C155  S    
C100  N30   A    
C20   H142  S    
C61   O36   S    
C143  H105  S    
C93   O53   S    
C149  C157  S    
N25   Ni4   S    
C62   H52   S    
C48   C113  S    
C114  N18   A    
C79   C128  S    
C32   H168  S    
C30   H164  S    
C84   C87   S    
C160  H121  S    
C42   O17   D    
C47   O21   S    
C76   C136  S    
C71   O46   S    
C106  C112  S    
C10   C67   S    
N32   Ni6   S    
C71   H69   S    
C33   O8    S    
C23   H152  S    
C77   O52   D    
C56   O31   S    
C63   H55   S    
C56   H34   S    
C28   C107  S    
C54   H32   S    
C81   O12   S    
C70   H66   S    
C106  O6    S    
C9    C66   S    
C133  O20   S    
C24   C80   A    
C25   H154  S    
C6    C162  A    
C5    C159  S    
C36   O10   D    
C106  C123  S    
C10   C46   A    
C72   H72   S    
C16   C68   A    
C82   C130  S    
C30   O5    S    
C44   H16   S    
C98   C167  A    
C11   N13   A    
C99   C166  A    
C138  H89   S    
C89   C93   S    
C50   O25   D    
N9    Ni1   S    
C10   N11   A    
C44   O19   S    
C128  C132  S    
C130  C139  S    
C109  H162  S    
C64   H58   S    
C111  H140  S    
N17   Ni8   S    
C129  C138  S    
C41   H10   S    
C149  H106  S    
C9    N10   A    
C117  C134  S    
C160  H120  S    
C60   H45   S    
C85   C94   S    
C73   H75   S    
C60   O35   S    
C154  H119  S    
N15   Ni6   S    
C45   H21   S    
C135  H93   S    
C93   C96   S    
C7    C104  S    
C62   O37   S    
C41   C116  S    
C144  N32   A    
C64   H60   S    
C24   H127  S    
C121  H88   S    
C103  N27   A    
C137  H92   S    
C34   C109  S    
C41   O16   D    
C13   N25   A    
N31   Ni8   S    
C113  C131  S    
C63   H56   S    
C23   H150  S    
C17   H133  S    
C39   H8    S    
N26   Ni3   S    
C45   H20   S    
C56   H36   S    
C66   H62   S    
C43   H14   S    
C132  O19   S    
N1    N29   A    
C161  H122  S    
C117  C123  S    
C39   O14   D    
C121  C126  S    
C118  H84   S    
N10   Ni2   S    
C143  C156  S    
C25   H156  S    
C58   H39   S    
C22   O53   S    
C15   C68   A    
C18   H134  S    
C164  N7    A    
N16   N17   A    
C50   C116  S    
C139  H97   S    
C142  H104  S    
C98   N28   A    
C91   O45   S    
C138  H95   S    
C120  H35   S    
N5    N6    A    
C58   O32   S    
C19   O23   S    
C120  C124  S    
C49   O24   D    
C125  N19   A    
C148  O35   S    
N19   Ni5   S    
