data_mof_unit_29099.cif
_audit_creation_date              2012-12-10T20:05:43-0500
_audit_creation_method            fapswitch 2.2
_symmetry_space_group_name_H-M    P1
_symmetry_Int_Tables_number       1
_space_group_crystal_system       triclinic
_cell_length_a                    12.710348
_cell_length_b                    18.901324
_cell_length_c                    18.39422
_cell_angle_alpha                 91.400912
_cell_angle_beta                  98.112906
_cell_angle_gamma                 90.695369
_cell_volume                      4372.99509197

loop_
_atom_site_label
_atom_site_type_symbol
_atom_type_description
_atom_site_fract_x
_atom_site_fract_y
_atom_site_fract_z
_atom_type_partial_charge
C1    C     C_R   0.500424 0.364233 0.499229 0.979496
C2    C     C_R   0.483200 0.286916 0.495424 -0.390128
C3    C     C_R   0.479238 0.958177 0.480160 0.502805
C4    C     C_R   0.292674 0.037748 0.485028 0.532426
C5    C     C_R   0.481089 0.030886 0.472453 -0.330883
C6    C     C_R   0.291815 0.963605 0.494577 -0.408940
C7    C     C_R   0.390241 0.070541 0.476984 0.098286
C8    C     C_R   0.384335 0.924593 0.492175 0.108814
C9    C     C_R   0.562794 0.545964 0.735540 0.355270
C10   C     C_R   0.437307 0.453035 0.265429 0.478156
C11   C     C_R   0.555047 0.549701 0.811320 0.284372
C12   C     C_R   0.496464 0.635693 0.500230 1.010804
C13   C     C_R   0.436622 0.452797 0.188834 0.289926
C14   C     C_R   0.490115 0.500347 0.840928 -0.170544
C15   C     C_R   0.502632 0.501174 0.158298 -0.180896
C16   C     C_R   0.296163 0.502797 0.485160 0.958208
C17   C     C_R   0.698831 0.485531 0.513853 0.959566
C18   C     C_R   0.428569 0.451882 0.792599 0.284314
C19   C     C_R   0.566677 0.548845 0.206053 0.306462
C20   C     C_R   0.433337 0.453831 0.716807 -0.065044
C21   C     C_R   0.564778 0.546602 0.282127 -0.135469
C22   C     C_R   0.536745 0.443259 0.963291 -0.158054
C23   C     C_R   0.386130 0.848285 0.503925 -0.193081
C24   C     C_R   0.455752 0.557657 0.036062 -0.207985
C25   C     C_R   0.542385 0.444273 0.040120 -0.100221
C26   C     C_R   0.448769 0.556140 0.959270 -0.141145
C27   C     C_R   0.502761 0.501804 0.077242 0.214658
C28   C     C_R   0.490038 0.499282 0.922089 0.259481
C29   C     C_R   0.808555 0.462452 0.521094 -0.312393
C30   C     C_R   0.180115 0.500888 0.474770 -0.358084
C31   C     C_R   0.012940 0.474821 0.396603 0.378956
C32   C     C_R   0.979323 0.456277 0.594009 0.397403
C33   C     C_R   0.121506 0.490777 0.404165 0.344480
C34   C     C_R   0.404113 0.147559 0.478909 -0.153376
C35   C     C_R   0.868604 0.450455 0.589353 0.342789
C36   C     C_R   0.127648 0.502395 0.536979 0.388347
C37   C     C_R   0.854941 0.451041 0.457218 0.397225
C38   C     C_R   0.023975 0.476112 0.531076 -0.180488
C39   C     C_R   0.963603 0.465893 0.460277 -0.209173
C40   C     C_R   0.394830 0.736207 0.439251 0.333741
C41   C     C_R   0.449998 0.252212 0.555857 0.311816
C42   C     C_R   0.347495 0.802168 0.445298 0.379244
C43   C     C_R   0.402412 0.184763 0.545719 0.361546
C44   C     C_3   0.573418 0.665783 0.849284 0.129767
C45   C     C_R   0.454084 0.823581 0.564310 0.386038
C46   C     C_3   0.613205 0.711308 0.917624 -0.302265
C47   C     C_3   0.568604 0.785883 0.911328 -0.966041
C48   C     C_3   0.288973 0.433831 0.101517 0.096680
C49   C     C_3   0.187030 0.392204 0.107962 -0.306600
C50   C     C_3   0.092077 0.421467 0.058158 -0.904673
C51   C     C_3   0.819230 0.451122 0.705766 0.187069
C52   C     C_3   0.843446 0.402890 0.771389 -0.374003
C53   C     C_3   0.830782 0.441750 0.843296 -0.874918
C54   C     C_3   0.166617 0.563817 0.316345 0.144173
C55   C     C_3   0.191989 0.563021 0.237659 -0.283217
C56   C     C_R   0.443036 0.179893 0.419839 0.336651
C57   C     C_3   0.175289 0.634942 0.202573 -0.982393
C58   C     C_3   0.440271 0.704820 0.326578 0.133406
C59   C     C_3   0.421646 0.772590 0.282551 -0.359533
C60   C     C_3   0.485718 0.772660 0.218348 -0.895845
C61   C     C_3   0.568696 0.280135 0.658988 0.137069
C62   C     C_3   0.595245 0.206569 0.689588 -0.354009
C63   C     C_3   0.705573 0.206038 0.734651 -0.955607
C64   C     C_3   0.169453 0.814844 0.408239 0.093775
C65   C     C_3   0.124242 0.741111 0.384412 -0.356449
C66   C     C_3   0.008288 0.733743 0.396435 -0.928400
C67   C     C_R   0.498599 0.756597 0.559994 0.256084
C68   C     C_3   0.276454 0.183102 0.624560 0.185094
C69   C     C_3   0.288119 0.193196 0.708075 -0.373352
C70   C     C_3   0.187624 0.223812 0.732245 -0.827290
C71   C     C_3   0.436984 0.855338 0.682915 0.134587
C72   C     C_3   0.333393 0.896729 0.678210 -0.397803
C73   C     C_3   0.281871 0.889162 0.747717 -0.926440
C74   C     C_3   0.370409 0.161863 0.299201 0.185369
C75   C     C_3   0.266443 0.120662 0.301262 -0.436234
C76   C     C_3   0.185012 0.135894 0.234474 -0.901214
C77   C     C_3   0.651638 0.934757 0.531101 0.143383
C78   C     C_R   0.486910 0.248323 0.429131 0.284060
C79   C     C_3   0.749468 0.962585 0.500522 -0.378580
C80   C     C_3   0.840499 0.979272 0.562240 -0.958149
C81   C     C_3   0.104380 0.046878 0.474617 0.062350
C82   C     C_3   0.073984 0.019097 0.395128 -0.372916
C83   C     C_3   0.968147 0.978708 0.385413 -0.954281
C84   C     C_R   0.466812 0.711088 0.498799 -0.384898
Cl1   Cl    Cl    0.778841 0.404537 0.382256 -0.428290
Cl2   Cl    Cl    0.558141 0.279915 0.360166 -0.462747
Cl3   Cl    Cl    0.182069 0.551400 0.617681 -0.542579
Cl4   Cl    Cl    0.660801 0.596480 0.702032 -0.544173
Cl5   Cl    Cl    0.352207 0.393757 0.301819 -0.511203
Cl6   Cl    Cl    0.342681 0.389872 0.824623 -0.600474
Cl7   Cl    Cl    0.652022 0.610429 0.172815 -0.602675
Cl8   Cl    Cl    0.944176 0.471488 0.305727 -0.490023
Cl9   Cl    Cl    0.060365 0.424967 0.672485 -0.551948
Cl10  Cl    Cl    0.608557 0.737874 0.625090 -0.550116
H1    H     H_    0.384153 0.417801 0.679525 0.229174
H2    H     H_    0.599587 0.691213 0.800930 0.220163
H3    H     H_    0.588676 0.686388 0.966840 0.246866
H4    H     H_    0.701459 0.714654 0.924900 0.249763
H5    H     H_    0.593539 0.812254 0.863060 0.270517
H6    H     H_    0.599091 0.817646 0.961633 0.280429
H7    H     H_    0.480407 0.783868 0.905447 0.262920
H8    H     H_    0.303610 0.430900 0.043366 0.187154
H9    H     H_    0.276913 0.490599 0.115990 0.103605
H10   H     H_    0.197220 0.335736 0.092491 0.241081
H11   H     H_    0.171090 0.395022 0.165829 0.265177
H12   H     H_    0.614785 0.582678 0.318819 0.190937
H13   H     H_    0.079628 0.477765 0.072978 0.269914
H14   H     H_    0.019319 0.390519 0.064623 0.281245
H15   H     H_    0.105196 0.417358 0.999766 0.276649
H16   H     H_    0.736712 0.468572 0.704931 0.187741
H17   H     H_    0.873839 0.498286 0.713373 0.181890
H18   H     H_    0.787979 0.356629 0.763920 0.216462
H19   H     H_    0.925787 0.383099 0.774753 0.281880
H20   H     H_    0.885488 0.488407 0.852190 0.291061
H21   H     H_    0.850023 0.405592 0.889824 0.263525
H22   H     H_    0.747619 0.459499 0.842308 0.269375
H23   H     H_    0.569595 0.399042 0.935941 0.153244
H24   H     H_    0.226764 0.597132 0.351575 0.170171
H25   H     H_    0.086842 0.587640 0.316727 0.150928
H26   H     H_    0.275940 0.547837 0.237763 0.193828
H27   H     H_    0.139806 0.523305 0.204154 0.256007
H28   H     H_    0.091018 0.650803 0.200056 0.288443
H29   H     H_    0.195716 0.631998 0.145849 0.263761
H30   H     H_    0.227304 0.675398 0.234628 0.276607
H31   H     H_    0.430030 0.658876 0.287382 0.160585
H32   H     H_    0.524061 0.704165 0.354462 0.145108
H33   H     H_    0.336024 0.777192 0.260885 0.252895
H34   H     H_    0.422615 0.601785 0.063387 0.149348
H35   H     H_    0.446404 0.819474 0.318810 0.251675
H36   H     H_    0.571891 0.768331 0.238675 0.289683
H37   H     H_    0.472504 0.822802 0.188423 0.268171
H38   H     H_    0.460226 0.727687 0.179564 0.273446
H39   H     H_    0.579769 0.319589 0.705325 0.161845
H40   H     H_    0.626005 0.295465 0.621256 0.151749
H41   H     H_    0.535734 0.190489 0.725019 0.246719
H42   H     H_    0.592969 0.167149 0.643570 0.227178
H43   H     H_    0.766618 0.223749 0.701078 0.277943
H44   H     H_    0.724223 0.151490 0.752952 0.273609
H45   H     H_    0.577726 0.400218 0.070726 0.174870
H46   H     H_    0.708183 0.241353 0.784035 0.264466
H47   H     H_    0.117475 0.854750 0.378764 0.174874
H48   H     H_    0.166037 0.823823 0.468028 0.110665
H49   H     H_    0.129793 0.731566 0.325323 0.244426
H50   H     H_    0.170902 0.700540 0.416993 0.224237
H51   H     H_    0.000972 0.742550 0.455433 0.273048
H52   H     H_    0.978220 0.679594 0.379355 0.274703
H53   H     H_    0.958735 0.772637 0.363265 0.272190
H54   H     H_    0.207492 0.147080 0.606954 0.172060
H55   H     H_    0.257354 0.235215 0.598821 0.151387
H56   H     H_    0.410673 0.599337 0.928884 0.137056
H57   H     H_    0.304566 0.141388 0.734351 0.220704
H58   H     H_    0.355797 0.229893 0.727081 0.273293
H59   H     H_    0.171061 0.276363 0.707761 0.313927
H60   H     H_    0.198645 0.230471 0.793001 0.285329
H61   H     H_    0.118573 0.187644 0.715076 0.240558
H62   H     H_    0.490121 0.873113 0.733424 0.174887
H63   H     H_    0.421070 0.797713 0.689081 0.148655
H64   H     H_    0.350149 0.953684 0.670285 0.249628
H65   H     H_    0.276728 0.876550 0.630470 0.213979
H66   H     H_    0.263264 0.832623 0.756131 0.272170
H67   H     H_    0.554835 0.057056 0.464764 0.187018
H68   H     H_    0.206819 0.919271 0.742398 0.270879
H69   H     H_    0.335853 0.910469 0.796297 0.264737
H70   H     H_    0.399341 0.149580 0.246137 0.184938
H71   H     H_    0.355473 0.219905 0.300237 0.186631
H72   H     H_    0.282293 0.062958 0.302518 0.243718
H73   H     H_    0.232912 0.136345 0.351714 0.249532
H74   H     H_    0.166488 0.193183 0.233172 0.284183
H75   H     H_    0.110588 0.105400 0.237312 0.266711
H76   H     H_    0.216016 0.119954 0.183080 0.266733
H77   H     H_    0.673195 0.884818 0.559770 0.219606
H78   H     H_    0.221794 0.935445 0.505171 0.147577
H79   H     H_    0.629848 0.973073 0.573603 0.145529
H80   H     H_    0.775556 0.922151 0.462243 0.244268
H81   H     H_    0.729354 0.011416 0.469513 0.230077
H82   H     H_    0.816084 0.019737 0.601114 0.270303
H83   H     H_    0.909793 0.000445 0.538865 0.260222
H84   H     H_    0.864675 0.930583 0.592457 0.278504
H85   H     H_    0.044850 0.087027 0.485156 0.175913
H86   H     H_    0.097746 0.006138 0.516183 0.129601
H87   H     H_    0.067137 0.064561 0.357769 0.240124
H88   H     H_    0.136060 0.983678 0.378844 0.225232
H89   H     H_    0.484706 0.664605 0.841758 0.110054
H90   H     H_    0.972366 0.933162 0.422709 0.259126
H91   H     H_    0.949431 0.958276 0.327872 0.274168
H92   H     H_    0.903469 0.014304 0.397288 0.280830
N1    N     N_R   0.500010 0.499980 0.689440 -0.173281
N2    N     N_R   0.499990 0.500020 0.310560 -0.165837
O1    O     O_R   0.500000 0.398180 0.560840 -0.620526
O2    O     O_3   0.375375 0.402203 0.145563 -0.592869
O3    O     O_3   0.822869 0.411642 0.640103 -0.635408
O4    O     O_3   0.170300 0.493747 0.341636 -0.554832
O5    O     O_3   0.365168 0.695636 0.375885 -0.648612
O6    O     O_3   0.461289 0.283587 0.625501 -0.620733
O7    O     O_3   0.272626 0.824449 0.388802 -0.630139
O8    O     O_3   0.369010 0.150867 0.604732 -0.633479
O9    O     O_3   0.490442 0.869755 0.622322 -0.632400
O10   O     O_3   0.449887 0.140679 0.356034 -0.605812
O11   O     O_3   0.568728 0.918777 0.472688 -0.653234
O12   O     O_R   0.500000 0.601820 0.439160 -0.634446
O13   O     O_3   0.204780 0.081626 0.484996 -0.670225
O14   O     O_R   0.499960 0.398180 0.439210 -0.521207
O15   O     O_R   0.500040 0.601820 0.560790 -0.536209
O16   O     O_R   0.346380 0.499990 0.550760 -0.576843
O17   O     O_R   0.653620 0.500010 0.449240 -0.580747
O18   O     O_R   0.346330 0.499980 0.429130 -0.558707
O19   O     O_R   0.653670 0.500020 0.570870 -0.582377
O20   O     O_3   0.617122 0.597397 0.857739 -0.599888
Zn1   Zn    Zn3+2 0.500030 0.500000 0.581210 1.037500
Zn2   Zn    Zn3+2 0.499970 0.500000 0.418790 1.057603

loop_
_geom_bond_atom_site_label_1
_geom_bond_atom_site_label_2
_ccdc_geom_bond_type
C22   H23   S    
C55   H27   S    
C34   C56   A    
C23   C45   A    
C70   H59   S    
C41   C43   A    
C63   H46   S    
C40   C84   A    
C24   C27   A    
C60   H38   S    
C49   H10   S    
C81   C82   S    
C61   H39   S    
C6    H78   S    
C52   H19   S    
C53   H20   S    
C15   C19   A    
C82   H87   S    
C41   O6    S    
C23   C42   A    
C54   O4    S    
C33   O4    S    
C44   H2    S    
C37   Cl1   S    
C25   H45   S    
C24   C26   A    
C16   O18   A    
C69   C70   S    
C9    Cl4   S    
C38   C39   A    
C65   H49   S    
C11   C14   A    
C64   H47   S    
C52   H18   S    
C2    C41   A    
C59   H33   S    
C64   O7    S    
C44   O20   S    
C8    C23   S    
C47   H5    S    
C12   C84   S    
C1    C2    S    
C12   O15   A    
C62   H42   S    
C14   C18   A    
C10   N2    A    
C66   H51   S    
C68   H55   S    
C57   H28   S    
C46   C47   S    
N2    Zn2   S    
C42   O7    S    
N1    Zn1   S    
C10   Cl5   S    
C68   C69   S    
C22   C25   A    
O16   Zn1   S    
C45   C67   A    
C67   Cl10  S    
C3    O11   S    
C31   C33   A    
C83   H92   S    
C32   C38   A    
C48   O2    S    
C21   H12   S    
C68   H54   S    
C53   H22   S    
C40   O5    S    
C78   Cl2   S    
C40   C42   A    
C32   Cl9   S    
C46   H4    S    
C59   C60   S    
C22   C28   A    
C54   H25   S    
C50   H14   S    
C63   H43   S    
C79   H80   S    
C9    C11   A    
C61   C62   S    
O14   Zn2   S    
C4    C7    A    
C1    O14   A    
C60   H37   S    
C44   C46   S    
C61   H40   S    
C71   O9    S    
C56   O10   S    
C55   H26   S    
C77   C79   S    
C36   Cl3   S    
C71   H63   S    
C74   C75   S    
C45   O9    S    
C51   C52   S    
C18   Cl6   S    
C32   C35   A    
C74   O10   S    
C26   H56   S    
C80   H82   S    
C4    C6    A    
C3    C8    A    
C60   H36   S    
C5    C7    A    
C65   H50   S    
C49   H11   S    
C56   C78   A    
C3    C5    A    
C58   C59   S    
C48   H9    S    
C82   C83   S    
C50   H15   S    
O12   Zn2   S    
C47   H6    S    
C70   H61   S    
C43   O8    S    
C69   H57   S    
C62   H41   S    
C75   C76   S    
C73   H68   S    
C2    C78   A    
C79   H81   S    
C57   H29   S    
C77   O11   S    
O18   Zn2   S    
C15   C27   S    
C73   H66   S    
C17   O19   A    
C77   H77   S    
C48   H8    S    
C62   C63   S    
C12   O12   A    
C68   O8    S    
C76   H76   S    
C72   H65   S    
C44   H89   S    
C81   H85   S    
C66   H53   S    
C51   H17   S    
C77   H79   S    
C48   C49   S    
C46   H3    S    
C49   C50   S    
C51   H16   S    
C13   C15   A    
C50   H13   S    
C63   H44   S    
C11   O20   S    
C36   C38   A    
C54   H24   S    
C51   O3    S    
C52   C53   S    
C21   N2    A    
C24   H34   S    
C72   H64   S    
C29   C35   A    
C54   C55   S    
C59   H35   S    
C35   O3    S    
C30   C33   A    
C19   C21   A    
C70   H60   S    
C69   H58   S    
C20   H1    S    
C83   H91   S    
C34   C43   A    
C81   H86   S    
C72   C73   S    
C9    N1    A    
C10   C13   A    
C6    C8    A    
C58   H32   S    
C25   C27   A    
C82   H88   S    
C58   O5    S    
C26   C28   A    
C30   C36   A    
C64   C65   S    
C55   C57   S    
C71   C72   S    
C37   C39   A    
O1    Zn1   S    
C17   C29   S    
C80   H83   S    
C20   N1    A    
C74   H70   S    
C4    O13   S    
C64   H48   S    
O17   Zn2   S    
C71   H62   S    
C17   O17   A    
C7    C34   S    
C31   C39   A    
C83   H90   S    
C76   H74   S    
C75   H72   S    
C18   C20   A    
C47   H7    S    
C65   C66   S    
C76   H75   S    
C66   H52   S    
C19   Cl7   S    
C13   O2    S    
C79   C80   S    
C53   H21   S    
C67   C84   A    
C58   H31   S    
C73   H69   S    
C31   Cl8   S    
C29   C37   A    
O19   Zn1   S    
O15   Zn1   S    
C75   H73   S    
C5    H67   S    
C14   C28   S    
C16   O16   A    
C16   C30   S    
C61   O6    S    
C74   H71   S    
C81   O13   S    
C80   H84   S    
C57   H30   S    
C1    O1    A    
