data_mof_unit_29287.cif
_audit_creation_date              2013-03-05T15:47:25-0500
_audit_creation_method            fapswitch 2.2
_symmetry_space_group_name_H-M    P1
_symmetry_Int_Tables_number       1
_space_group_crystal_system       triclinic
_cell_length_a                    18.187005
_cell_length_b                    18.625782
_cell_length_c                    11.734198
_cell_angle_alpha                 89.950198
_cell_angle_beta                  74.985487
_cell_angle_gamma                 89.972293
_cell_volume                      3839.22196191

loop_
_atom_site_label
_atom_site_type_symbol
_atom_site_description
_atom_site_fract_x
_atom_site_fract_y
_atom_site_fract_z
_atom_type_partial_charge
O1    O     O_R   0.430030 0.075530 0.417420 -0.544828
O2    O     O_R   0.569970 0.924470 0.582580 -0.544930
O3    O     O_R   0.569970 0.075530 0.582580 -0.545657
O4    O     O_R   0.430030 0.924470 0.417420 -0.545743
O5    O     O_R   0.930030 0.575530 0.417420 -0.544930
O6    O     O_R   0.069970 0.424470 0.582580 -0.544828
O7    O     O_R   0.069970 0.575530 0.582580 -0.545743
O8    O     O_R   0.930030 0.424470 0.417420 -0.545657
O9    O     O_R   0.416860 0.075510 0.614610 -0.598795
O10   O     O_R   0.583140 0.924490 0.385390 -0.598826
O11   O     O_R   0.583140 0.075510 0.385390 -0.599152
O12   O     O_R   0.416860 0.924490 0.614610 -0.599176
O13   O     O_R   0.916860 0.575510 0.614610 -0.598826
O14   O     O_R   0.083140 0.424490 0.385390 -0.598795
O15   O     O_R   0.083140 0.575510 0.385390 -0.599175
O16   O     O_R   0.916860 0.424490 0.614610 -0.599153
C1    C     C_R   0.397142 0.098453 0.523021 0.822419
C2    C     C_R   0.602848 0.901535 0.476975 0.822424
C3    C     C_R   0.602703 0.098655 0.476904 0.822157
C4    C     C_R   0.397307 0.901332 0.523099 0.822144
C5    C     C_R   0.897152 0.598465 0.523025 0.822425
C6    C     C_R   0.102858 0.401547 0.476979 0.822418
C7    C     C_R   0.102693 0.598668 0.476901 0.822144
C8    C     C_R   0.897296 0.401345 0.523096 0.822159
C9    C     C_R   0.409795 0.000282 0.867961 -0.037290
C10   C     C_R   0.590205 0.999712 0.132039 -0.037318
C11   C     C_R   0.909795 0.500288 0.867961 -0.037318
C12   C     C_R   0.090205 0.499717 0.132039 -0.037290
Cu1   Cu    Cu3+1 0.507800 1.000000 0.383250 0.985976
Cu2   Cu    Cu3+1 0.492200 0.000000 0.616750 0.985978
Cu3   Cu    Cu3+1 0.007800 0.500000 0.383250 0.985978
Cu4   Cu    Cu3+1 0.992200 0.500000 0.616750 0.985976
C13   C     C_R   0.400008 0.000394 0.990712 -0.246321
C14   C     C_R   0.599992 0.999605 0.009288 -0.246320
C15   C     C_R   0.900008 0.500396 0.990712 -0.246320
C16   C     C_R   0.099992 0.499605 0.009288 -0.246321
H1    H     H_    0.639622 0.999588 0.166667 0.149217
H2    H     H_    0.360378 0.000406 0.833333 0.149204
H3    H     H_    0.139622 0.499593 0.166667 0.149204
H4    H     H_    0.860378 0.500412 0.833333 0.149217
C17   C     C_R   0.543928 0.999698 0.836821 0.515617
C18   C     C_R   0.456072 0.000315 0.163179 0.515623
C19   C     C_R   0.043928 0.499684 0.836821 0.515623
C20   C     C_R   0.956072 0.500302 0.163179 0.515617
C21   C     C_R   0.662650 0.153320 0.461157 -0.059374
C22   C     C_R   0.337383 0.846642 0.538861 -0.059531
C23   C     C_R   0.336873 0.152720 0.538524 -0.056580
C24   C     C_R   0.663094 0.847239 0.461452 -0.056795
C25   C     C_R   0.162617 0.653358 0.461139 -0.059531
C26   C     C_R   0.837350 0.346679 0.538843 -0.059373
C27   C     C_R   0.836906 0.652761 0.538548 -0.056795
C28   C     C_R   0.163127 0.347280 0.461476 -0.056581
C29   C     C_R   0.225480 0.783491 0.653709 -0.162044
C30   C     C_R   0.774698 0.216305 0.346404 -0.162011
C31   C     C_R   0.777211 0.786704 0.348177 -0.161423
C32   C     C_R   0.222575 0.213045 0.651653 -0.161385
C33   C     C_R   0.725302 0.283695 0.653595 -0.162011
C34   C     C_R   0.274520 0.716508 0.346291 -0.162043
C35   C     C_R   0.277424 0.286955 0.348347 -0.161386
C36   C     C_R   0.722789 0.713296 0.651823 -0.161425
C37   C     C_R   0.282314 0.834850 0.648110 0.161210
C38   C     C_R   0.717852 0.164958 0.352000 0.161288
C39   C     C_R   0.720157 0.837867 0.353706 0.162538
C40   C     C_R   0.279650 0.161902 0.646135 0.162617
C41   C     C_R   0.782148 0.335042 0.648000 0.161287
C42   C     C_R   0.217686 0.665150 0.351890 0.161209
C43   C     C_R   0.220350 0.338097 0.353865 0.162618
C44   C     C_R   0.779843 0.662133 0.646294 0.162538
C45   C     C_R   0.334428 0.806118 0.439769 -0.225354
C46   C     C_R   0.665497 0.193963 0.560179 -0.225306
C47   C     C_R   0.664408 0.804821 0.559372 -0.224817
C48   C     C_R   0.335687 0.195285 0.440707 -0.224789
C49   C     C_R   0.834503 0.306037 0.439820 -0.225307
C50   C     C_R   0.165572 0.693882 0.560231 -0.225355
C51   C     C_R   0.164312 0.304715 0.559292 -0.224788
C52   C     C_R   0.835593 0.695180 0.440628 -0.224816
C53   C     C_R   0.277389 0.755643 0.446282 0.109102
C54   C     C_R   0.722548 0.244427 0.553678 0.109126
C55   C     C_R   0.721647 0.754520 0.553041 0.109611
C56   C     C_R   0.278431 0.245568 0.447021 0.109657
C57   C     C_R   0.777452 0.255573 0.446322 0.109125
C58   C     C_R   0.222612 0.744356 0.553718 0.109102
C59   C     C_R   0.221569 0.254431 0.552979 0.109657
C60   C     C_R   0.778353 0.745480 0.446959 0.109611
N1    N     N_R   0.519530 1.000000 0.207810 -0.234915
N2    N     N_R   0.480470 0.000000 0.792190 -0.234915
N3    N     N_R   0.019530 0.500000 0.207810 -0.234915
N4    N     N_R   0.980470 0.500000 0.792190 -0.234915
H5    H     H_    0.622985 0.186386 0.643222 0.180409
H6    H     H_    0.376845 0.813794 0.356657 0.180588
H7    H     H_    0.379673 0.189327 0.358838 0.177344
H8    H     H_    0.620536 0.810902 0.641340 0.177591
H9    H     H_    0.123155 0.686205 0.643343 0.180588
H10   H     H_    0.877015 0.313614 0.356778 0.180408
H11   H     H_    0.879464 0.689098 0.358660 0.177591
H12   H     H_    0.120326 0.310673 0.641162 0.177344
H13   H     H_    0.682688 0.274462 0.736009 0.144245
H14   H     H_    0.317034 0.725857 0.263813 0.144260
H15   H     H_    0.321560 0.279560 0.267040 0.143928
H16   H     H_    0.678774 0.720836 0.733226 0.143954
H17   H     H_    0.182966 0.774143 0.736186 0.144260
H18   H     H_    0.817312 0.225538 0.263991 0.144244
H19   H     H_    0.821226 0.779164 0.266774 0.143954
H20   H     H_    0.178439 0.220440 0.732960 0.143928
H21   H     H_    0.342529 0.000631 0.046909 0.208728
H22   H     H_    0.657471 0.999369 0.953090 0.208734
H23   H     H_    0.842529 0.500633 0.046909 0.208734
H24   H     H_    0.157471 0.499367 0.953090 0.208728
C61   C     C_R   0.536459 0.999817 0.961033 -0.070653
C62   C     C_R   0.463541 0.000184 0.038967 -0.070654
C63   C     C_R   0.036459 0.499816 0.961032 -0.070654
C64   C     C_R   0.963541 0.500183 0.038967 -0.070653
N5    N     N_R   0.381427 0.000960 0.241735 0.126042
O17   O     O_R   0.343128 0.941255 0.260582 -0.391132
O18   O     O_R   0.344055 0.061226 0.259230 -0.389282
N6    N     N_R   0.618574 0.999117 0.758265 0.126046
O19   O     O_R   0.656824 0.058851 0.739474 -0.390969
O20   O     O_R   0.655995 0.938879 0.740719 -0.389485
N7    N     N_R   0.881426 0.500885 0.241735 0.126045
O21   O     O_R   0.843175 0.441152 0.260528 -0.390967
O22   O     O_R   0.844006 0.561124 0.259279 -0.389487
N8    N     N_R   0.118573 0.499039 0.758265 0.126042
O23   O     O_R   0.156873 0.558743 0.739416 -0.391131
O24   O     O_R   0.155944 0.438771 0.740772 -0.389283
C65   C     C_3   0.719530 0.122982 0.241641 -0.827571
H25   H     H_    0.769632 0.136867 0.168110 0.222448
H26   H     H_    0.723202 0.064913 0.259546 0.221474
H27   H     H_    0.667923 0.134839 0.211135 0.249616
C66   C     C_3   0.280764 0.876658 0.758586 -0.827376
H28   H     H_    0.230782 0.862617 0.832221 0.222394
H29   H     H_    0.332481 0.864803 0.788803 0.249645
H30   H     H_    0.276953 0.934748 0.740974 0.221472
C67   C     C_3   0.276116 0.117331 0.754590 -0.830979
H31   H     H_    0.224210 0.128806 0.826350 0.223288
H32   H     H_    0.274680 0.059675 0.732356 0.221609
H33   H     H_    0.325961 0.129197 0.789507 0.248934
C68   C     C_3   0.723549 0.882243 0.245088 -0.830758
H34   H     H_    0.775315 0.870579 0.173175 0.223228
H35   H     H_    0.673559 0.870380 0.210522 0.248998
H36   H     H_    0.725168 0.939934 0.266985 0.221578
C69   C     C_3   0.219235 0.623342 0.241414 -0.827376
H37   H     H_    0.269217 0.637382 0.167779 0.222394
H38   H     H_    0.223047 0.565252 0.259026 0.221472
H39   H     H_    0.167519 0.635197 0.211197 0.249646
C70   C     C_3   0.780471 0.377018 0.758359 -0.827570
H40   H     H_    0.730368 0.363132 0.831891 0.222448
H41   H     H_    0.832078 0.365161 0.788865 0.249616
H42   H     H_    0.776798 0.435087 0.740455 0.221474
C71   C     C_3   0.776450 0.617756 0.754911 -0.830759
H43   H     H_    0.724684 0.629420 0.826824 0.223228
H44   H     H_    0.774832 0.560066 0.733013 0.221578
H45   H     H_    0.826440 0.629619 0.789478 0.248998
C72   C     C_3   0.223884 0.382669 0.245410 -0.830980
H46   H     H_    0.275790 0.371194 0.173650 0.223288
H47   H     H_    0.174039 0.370803 0.210493 0.248934
H48   H     H_    0.225320 0.440325 0.267645 0.221608

loop_
_geom_bond_atom_site_label_1
_geom_bond_atom_site_label_2
_geom_bond_distance
_ccdc_geom_bond_type
O6    Cu4   1.961027 S    
C36   C55   1.394450 A    
C16   H24   1.081893 S    
C35   H15   1.084838 S    
O13   Cu4   1.967755 S    
C45   C53   1.387645 A    
C63   C64   1.402398 A    
C34   H14   1.084866 S    
O14   Cu3   1.967755 S    
C28   C51   1.399164 A    
C52   C60   1.387835 A    
C47   C55   1.387835 A    
C70   H40   1.110931 S    
C42   C69   1.506818 S    
C17   N2    1.385434 A    
C68   H35   1.109651 S    
O11   C3    1.290154 A    
C19   N4    1.385434 A    
N5    O17   1.300478 A    
C69   H38   1.106865 S    
C52   H11   1.084921 S    
C55   C60   1.405877 A    
C7    C25   1.468301 S    
C46   C54   1.387691 A    
O6    C6    1.300838 A    
C31   H19   1.084841 S    
C21   C38   1.424427 A    
N6    O19   1.300472 A    
C22   C45   1.399496 A    
C44   C71   1.506282 S    
C34   C53   1.394258 A    
C35   C43   1.397630 A    
C29   C37   1.397661 A    
C10   C14   1.404832 A    
C47   H8    1.084922 S    
C29   H17   1.084865 S    
C31   C39   1.397606 A    
C65   H27   1.109764 S    
C32   C40   1.397628 A    
O3    C3    1.301703 A    
Cu2   N2    2.013951 S    
C20   N3    1.385436 A    
Cu1   N1    2.013949 S    
O4    Cu1   1.961508 S    
C37   C66   1.506818 S    
C66   H30   1.106866 S    
O15   C7    1.290108 A    
O16   C8    1.290151 A    
C17   C61   1.428373 A    
C39   C68   1.506281 S    
C50   H9    1.084767 S    
C19   C63   1.428376 A    
C49   H10   1.084777 S    
C50   C58   1.387644 A    
C56   C59   1.405908 A    
C49   C57   1.387691 A    
C70   H41   1.109765 S    
C34   C42   1.397661 A    
C51   H12   1.084928 S    
N7    O22   1.300574 A    
C8    C26   1.468276 S    
C68   H36   1.107222 S    
Cu3   N3    2.013949 S    
C25   C42   1.424496 A    
C22   C37   1.424497 A    
C14   H22   1.081889 S    
C13   H21   1.081893 S    
C27   C52   1.399156 A    
C32   H20   1.084838 S    
C69   H39   1.109771 S    
C23   C40   1.423422 A    
C48   H7    1.084929 S    
C24   C39   1.423512 A    
C30   C38   1.397683 A    
C12   H3    1.077992 S    
C11   C15   1.404832 A    
N5    O18   1.300579 A    
C29   C58   1.394257 A    
O4    C4    1.301764 A    
O3    Cu2   1.961507 S    
Cu1   Cu2   2.680478 S    
C9    H2    1.077991 S    
C67   H33   1.109654 S    
C18   N5    1.429851 S    
Cu3   Cu4   2.680478 S    
C11   H4    1.077997 S    
C33   H13   1.084864 S    
O12   C4    1.290106 A    
C16   C63   1.412351 A    
O1    Cu1   1.961026 S    
O13   C5    1.290288 A    
C18   N1    1.385435 A    
C72   H48   1.107256 S    
C65   H26   1.106898 S    
C19   N8    1.429851 S    
O11   Cu1   1.968732 S    
C28   C43   1.423421 A    
O9    Cu2   1.967755 S    
C20   C64   1.428373 A    
O9    C1    1.290344 A    
C67   H31   1.110917 S    
C71   H45   1.109651 S    
C46   H5    1.084777 S    
C72   H47   1.109652 S    
C17   N6    1.429856 S    
C41   C70   1.506793 S    
C45   H6    1.084767 S    
C5    C27   1.467062 S    
C70   H42   1.106896 S    
C32   C59   1.394494 A    
C6    C28   1.467024 S    
C66   H28   1.110932 S    
C40   C67   1.506244 S    
O7    Cu4   1.961507 S    
O12   Cu2   1.968734 S    
C21   C46   1.399503 A    
O8    Cu3   1.961508 S    
C33   C54   1.394291 A    
C30   H18   1.084864 S    
C1    C23   1.467024 S    
C33   C41   1.397682 A    
O2    C2    1.300916 A    
C36   H16   1.084841 S    
C2    C24   1.467062 S    
C35   C56   1.394494 A    
C38   C65   1.506792 S    
N7    O21   1.300480 A    
C3    C21   1.468274 S    
C10   H1    1.077997 S    
O15   Cu3   1.968732 S    
O16   Cu4   1.968734 S    
C68   H34   1.110912 S    
O1    C1    1.300837 A    
C20   N7    1.429853 S    
O2    Cu2   1.961027 S    
C43   C72   1.506243 S    
C36   C44   1.397607 A    
O14   C6    1.290346 A    
C71   H44   1.107222 S    
N8    O23   1.300478 A    
C48   C56   1.387886 A    
C69   H37   1.110932 S    
C54   C57   1.405376 A    
C51   C59   1.387886 A    
C65   H25   1.110930 S    
C53   C58   1.405346 A    
O10   C2    1.290290 A    
C10   N1    1.360358 A    
O7    C7    1.301764 A    
C26   C49   1.399502 A    
C9    N2    1.360361 A    
O8    C8    1.301701 A    
N6    O20   1.300575 A    
C27   C44   1.423511 A    
C18   C62   1.428376 A    
C11   N4    1.360359 A    
C26   C41   1.424429 A    
C23   C48   1.399163 A    
C15   H23   1.081888 S    
C12   N3    1.360360 A    
O10   Cu1   1.967755 S    
O5    C5    1.300915 A    
C12   C16   1.404835 A    
C61   C62   1.402396 A    
C67   H32   1.107256 S    
C14   C61   1.412356 A    
C25   C50   1.399497 A    
C13   C62   1.412351 A    
C24   C47   1.399155 A    
O5    Cu3   1.961026 S    
C72   H46   1.110918 S    
C71   H43   1.110912 S    
N8    O24   1.300580 A    
C31   C60   1.394451 A    
C30   C57   1.394292 A    
C4    C22   1.468301 S    
C15   C64   1.412354 A    
C9    C13   1.404835 A    
C66   H29   1.109772 S    
Cu4   N4    2.013951 S    
