data_mof_unit_37044.cif
_audit_creation_date              2013-03-05T16:10:40-0500
_audit_creation_method            fapswitch 2.2
_symmetry_space_group_name_H-M    P1
_symmetry_Int_Tables_number       1
_space_group_crystal_system       triclinic
_cell_length_a                    9.851219
_cell_length_b                    10.671194
_cell_length_c                    15.524111
_cell_angle_alpha                 89.536035
_cell_angle_beta                  67.019295
_cell_angle_gamma                 89.034561
_cell_volume                      1502.22717865

loop_
_atom_site_label
_atom_site_type_symbol
_atom_site_description
_atom_site_fract_x
_atom_site_fract_y
_atom_site_fract_z
_atom_type_partial_charge
O1    O     O_R   0.385370 0.683250 0.500010 -0.626271
O2    O     O_R   0.614630 0.316750 0.499990 -0.625374
O3    O     O_R   0.614700 0.683220 0.500000 -0.577952
O4    O     O_R   0.385300 0.316780 0.500000 -0.577018
C1    C     C_R   0.491349 0.739991 0.511139 0.908268
C2    C     C_R   0.495048 0.259913 0.510987 0.909979
O5    O     O_R   0.319830 0.500020 0.632250 -0.610169
O6    O     O_R   0.680170 0.499980 0.367750 -0.608080
O7    O     O_R   0.549160 0.499990 0.632240 -0.626042
O8    O     O_R   0.450840 0.500010 0.367760 -0.626581
C3    C     C_R   0.407289 0.499924 0.676066 0.885925
C4    C     C_R   0.592697 0.500060 0.323935 0.881828
Zn1   Zn    Zn3+2 0.346870 0.500020 0.500000 0.962488
Zn2   Zn    Zn3+2 0.653130 0.499980 0.500000 0.962092
C5    C     C_R   0.347803 0.492319 0.777501 -0.050147
C6    C     C_R   0.652143 0.507786 0.222463 -0.051893
C7    C     C_R   0.178000 0.406927 0.922952 -0.144198
C8    C     C_R   0.821823 0.593462 0.077044 -0.148943
C9    C     C_R   0.216166 0.431554 0.828242 -0.156933
C10   C     C_R   0.783703 0.568703 0.171742 -0.171508
C11   C     C_R   0.436565 0.533308 0.821854 -0.219019
C12   C     C_R   0.563371 0.466840 0.178079 -0.227902
C13   C     C_R   0.410273 0.497687 0.913697 0.080315
C14   C     C_R   0.589521 0.502798 0.086297 0.083080
C15   C     C_R   0.275755 0.436108 0.966050 0.109861
C16   C     C_R   0.724021 0.564420 0.033958 0.103803
C17   C     C_R   0.516352 0.518447 0.953113 0.036485
C18   C     C_R   0.483375 0.482225 0.046905 0.039530
C19   C     C_R   0.343890 0.429276 0.099133 -0.241950
C20   C     C_R   0.655753 0.571590 0.900931 -0.227470
C21   C     C_R   0.243273 0.403934 0.059459 0.125678
C22   C     C_R   0.756422 0.596803 0.940587 0.126979
H1    H     H_    0.471089 0.410439 0.219133 0.142752
H2    H     H_    0.529012 0.589379 0.780717 0.166082
H3    H     H_    0.854532 0.600026 0.205667 0.162468
H4    H     H_    0.145293 0.400284 0.794346 0.183976
H5    H     H_    0.074964 0.360299 0.960402 0.189270
H6    H     H_    0.924827 0.640146 0.039605 0.183579
H7    H     H_    0.307258 0.405755 0.172010 0.156381
H8    H     H_    0.692301 0.595423 0.828116 0.170468
C23   C     C_R   0.580377 0.928214 0.561400 0.132541
C24   C     C_R   0.344129 0.071487 0.561585 0.130606
C25   C     C_R   0.600277 0.057035 0.546749 0.034300
C26   C     C_R   0.341953 0.942638 0.547340 0.037461
C27   C     C_R   0.482060 0.128244 0.538431 -0.186058
C28   C     C_R   0.470554 0.871495 0.538695 -0.182249
C29   C     C_R   0.978190 0.500810 0.417781 -0.104838
C30   C     C_R   0.021770 0.500498 0.582124 -0.057267
H9    H     H_    0.964264 0.501096 0.352041 0.160532
H10   H     H_    0.035637 0.500962 0.647883 0.161157
C31   C     C_R   0.121799 0.499182 0.417768 -0.087899
C32   C     C_R   0.878345 0.499748 0.582142 -0.041425
H11   H     H_    0.215023 0.498754 0.351471 0.149827
H12   H     H_    0.785151 0.499377 0.648457 0.150374
N1    N     N_R   0.142780 0.500030 0.500020 -0.075579
N2    N     N_R   0.857220 0.499970 0.499980 -0.075663
I1    I     I_    0.046236 0.312840 0.147197 -0.462126
I2    I     I_    0.953471 0.687922 0.852820 -0.400301
I3    I     I_    0.692306 0.824962 0.635457 -0.405462
I4    I     I_    0.141333 0.174789 0.635502 -0.407273
C33   C     C_3   0.746787 0.112439 0.538335 -0.345131
C34   C     C_3   0.853455 0.124480 0.435288 -0.336069
C35   C     C_3   0.001820 0.173913 0.427985 -0.818890
H13   H     H_    0.986040 0.263181 0.466418 0.280696
H14   H     H_    0.055250 0.107014 0.460061 0.268763
H15   H     H_    0.075214 0.188700 0.353496 0.263949
H16   H     H_    0.870487 0.031513 0.400710 0.221838
H17   H     H_    0.808511 0.187897 0.395683 0.259043
H18   H     H_    0.730295 0.201967 0.577106 0.228274
H19   H     H_    0.803017 0.053837 0.573585 0.225277
C36   C     C_3   0.205415 0.887127 0.539527 -0.319854
C37   C     C_3   0.224673 0.875644 0.436623 -0.362089
C38   C     C_3   0.084957 0.826310 0.429721 -0.827251
H20   H     H_    0.053384 0.737021 0.468354 0.283578
H21   H     H_    0.992297 0.893337 0.461643 0.273058
H22   H     H_    0.102949 0.811508 0.355310 0.248611
H23   H     H_    0.250113 0.968741 0.402035 0.221516
H24   H     H_    0.318198 0.812434 0.396734 0.247227
H25   H     H_    0.174745 0.797337 0.578249 0.236300
H26   H     H_    0.105788 0.945421 0.575154 0.226657

loop_
_geom_bond_atom_site_label_1
_geom_bond_atom_site_label_2
_geom_bond_distance
_ccdc_geom_bond_type
C33   H19   1.103109 S    
C15   C21   1.398694 A    
C30   N1    1.363508 A    
Zn2   N2    2.010412 S    
C35   H14   1.104937 S    
C16   C22   1.398825 A    
C2    C27   1.458041 S    
C38   H21   1.104952 S    
C38   H20   1.104255 S    
C8    C16   1.410083 A    
C22   I2    2.132359 S    
C36   H25   1.108750 S    
C29   H9    1.081490 S    
O5    C3    1.289407 A    
C37   H23   1.110291 S    
C34   H16   1.110487 S    
O1    C1    1.284638 A    
C18   C19   1.419012 A    
C14   C16   1.424169 A    
C30   C32   1.412958 A    
C9    H4    1.083182 S    
C26   C36   1.526508 S    
O4    Zn1   1.985429 S    
C37   H24   1.107991 S    
C10   H3    1.083336 S    
C3    C5    1.452108 S    
C4    C6    1.452719 S    
C32   H12   1.079245 S    
O6    Zn2   1.964434 S    
C23   C28   1.408667 A    
C13   C17   1.422978 A    
C31   N1    1.370968 A    
C6    C10   1.394817 A    
C30   H10   1.081588 S    
C35   H15   1.110356 S    
C17   C20   1.419104 A    
C23   C25   1.396102 A    
O2    C2    1.284575 A    
C24   C26   1.396258 A    
C36   H26   1.103285 S    
C26   C28   1.426828 A    
C23   I3    2.163314 S    
O4    C2    1.298624 A    
C24   I4    2.163173 S    
C29   C31   1.414463 A    
C11   H2    1.073909 S    
C31   H11   1.079153 S    
C24   C27   1.408962 A    
C5    C9    1.394652 A    
O7    Zn2   1.903060 S    
C34   C35   1.524117 S    
O7    C3    1.293728 A    
O5    Zn1   1.964432 S    
O6    C4    1.289514 A    
C19   H7    1.073692 S    
C20   H8    1.073648 S    
C7    H5    1.080471 S    
C25   C27   1.427015 A    
O3    Zn2   1.985429 S    
O8    C4    1.293602 A    
C11   C13   1.396634 A    
C38   H22   1.110374 S    
C12   C14   1.397007 A    
O1    Zn1   1.998004 S    
C25   C33   1.526445 S    
C33   H18   1.108651 S    
C12   H1    1.074564 S    
C6    C12   1.385174 A    
C14   C18   1.422952 A    
C37   C38   1.524308 S    
O3    C1    1.298591 A    
O8    Zn1   1.903063 S    
C1    C28   1.458027 S    
C34   H17   1.108039 S    
C7    C15   1.410174 A    
C21   I1    2.132028 S    
C8    H6    1.080488 S    
C36   C37   1.539065 S    
C19   C21   1.386860 A    
C20   C22   1.386818 A    
C7    C9    1.391967 A    
C8    C10   1.392120 A    
C13   C15   1.424126 A    
C33   C34   1.538962 S    
O2    Zn2   1.998004 S    
C35   H13   1.104264 S    
C5    C11   1.384884 A    
C17   C18   1.414470 A    
C32   N2    1.370180 A    
C29   N2    1.364312 A    
Zn1   N1    2.010413 S    
