data_mof_unit_56168.cif
_audit_creation_date              2012-12-10T17:02:32-0500
_audit_creation_method            fapswitch 2.2
_symmetry_space_group_name_H-M    P1
_symmetry_Int_Tables_number       1
_space_group_crystal_system       triclinic
_cell_length_a                    10.773296
_cell_length_b                    11.045276
_cell_length_c                    9.78343
_cell_angle_alpha                 112.358572
_cell_angle_beta                  95.852144
_cell_angle_gamma                 89.785242
_cell_volume                      1070.26083073

loop_
_atom_site_label
_atom_site_type_symbol
_atom_type_description
_atom_site_fract_x
_atom_site_fract_y
_atom_site_fract_z
_atom_type_partial_charge
C1    C     C_R   0.487228 0.253623 0.439727 0.730432
C2    C     C_R   0.514916 0.746202 0.559980 0.735514
C3    C     C_2   0.474033 0.112598 0.404786 0.262943
C4    C     C_2   0.534016 0.886610 0.593615 0.226305
C5    C     C_2   0.514958 0.068249 0.510147 -0.129293
C6    C     C_2   0.501384 0.930118 0.485313 -0.164554
C7    C     C_2   0.510599 0.509397 0.080652 -0.035221
C8    C     C_2   0.489536 0.490458 0.919311 -0.013290
C9    C     C_R   0.263320 0.511567 0.508394 0.788146
C10   C     C_R   0.736599 0.488419 0.491576 0.792972
C11   C     C_R   0.116120 0.756244 0.619830 -0.126907
C12   C     C_R   0.882777 0.244501 0.385213 -0.035400
C13   C     C_R   0.046097 0.862586 0.615242 -0.195354
C14   C     C_R   0.951070 0.139157 0.395522 -0.161405
C15   C     C_R   0.921431 0.844556 0.558261 -0.119371
C16   C     C_R   0.076464 0.156830 0.449926 -0.157977
C17   C     C_R   0.862835 0.721997 0.513340 -0.140052
C18   C     C_R   0.136376 0.278237 0.488909 -0.142012
C19   C     C_R   0.930820 0.612141 0.513097 0.085134
C20   C     C_R   0.068864 0.387922 0.487316 0.081039
C21   C     C_R   0.061385 0.626243 0.551350 0.030406
C22   C     C_R   0.938261 0.374025 0.449632 0.006356
C23   C     C_R   0.869736 0.489339 0.476268 -0.142111
C24   C     C_R   0.130054 0.510682 0.523531 -0.150699
Cu1   Cu    Cu3+1 0.521920 0.521810 0.644910 0.998192
Cu2   Cu    Cu3+1 0.478080 0.478190 0.355090 0.974321
H1    H     H_    0.129182 0.074335 0.453896 0.151804
H2    H     H_    0.867922 0.927586 0.557639 0.157639
H3    H     H_    0.084543 0.962070 0.665965 0.144465
H4    H     H_    0.909863 0.040645 0.351110 0.169167
H5    H     H_    0.764108 0.713847 0.476487 0.124305
H6    H     H_    0.235390 0.286011 0.524269 0.124917
H7    H     H_    0.461220 0.862742 0.376426 0.203168
H8    H     H_    0.558444 0.135388 0.617464 0.191369
H9    H     H_    0.417164 0.420535 0.847572 0.156459
H10   H     H_    0.583038 0.579237 0.152375 0.165143
H11   H     H_    0.623061 0.620418 0.933000 0.207582
H12   H     H_    0.376910 0.379618 0.067008 0.205328
N1    N     N_2   0.445130 0.445420 0.137360 -0.282146
N2    N     N_2   0.554870 0.554580 0.862640 -0.265389
O1    O     O_R   0.511700 0.332340 0.577400 -0.613320
O2    O     O_R   0.488300 0.667660 0.422600 -0.609754
O3    O     O_R   0.474680 0.295500 0.332650 -0.557763
O4    O     O_R   0.525320 0.704500 0.667350 -0.534467
O5    O     O_R   0.338170 0.518410 0.622370 -0.545846
O6    O     O_R   0.661830 0.481590 0.377630 -0.551327
O7    O     O_R   0.301150 0.481570 0.377630 -0.561680
O8    O     O_R   0.698850 0.518430 0.622370 -0.567632
C25   C     C_2   0.229962 0.789567 0.728433 0.866944
O9    O     O_2   0.248003 0.731775 0.812606 -0.508771
O10   O     O_R   0.310107 0.895533 0.748526 -0.720271
H13   H     H_    0.291765 0.934566 0.670602 0.279130
C26   C     C_2   0.769377 0.209733 0.276869 0.823959
O11   O     O_2   0.701701 0.116371 0.263093 -0.598186
O12   O     O_R   0.747960 0.273666 0.178256 -0.725724
H14   H     H_    0.670068 0.238211 0.105975 0.354366
O13   O     O_3   0.583344 0.973362 0.732876 -0.707661
H15   H     H_    0.606711 0.923887 0.796812 0.362937
O14   O     O_3   0.420766 0.026201 0.267267 -0.694471
H16   H     H_    0.390258 0.076412 0.206378 0.357611

loop_
_geom_bond_atom_site_label_1
_geom_bond_atom_site_label_2
_ccdc_geom_bond_type
C4    O13   S    
C10   O6    A    
C19   C23   A    
O12   H14   S    
C9    C24   S    
C9    O5    A    
C11   C25   S    
Cu1   O5    S    
C10   C23   S    
C7    H10   S    
C2    C4    S    
C12   C26   S    
C6    H7    S    
C12   C14   A    
C5    H8    S    
C16   H1    S    
C26   O12   S    
O13   H15   S    
O14   H16   S    
C26   O11   D    
C11   C13   A    
Cu1   O8    S    
C15   H2    S    
C5    C6    S    
Cu2   O7    S    
C2    O2    A    
Cu1   O4    S    
C1    O1    A    
C19   C21   A    
C14   H4    S    
Cu2   O3    S    
C9    O7    A    
H11   N2    S    
C18   C20   A    
C13   C15   A    
Cu1   N2    S    
C10   O8    A    
H12   N1    S    
C17   H5    S    
C14   C16   A    
Cu2   N1    S    
C4    C6    D    
C18   H6    S    
C20   C22   A    
Cu1   O1    S    
O10   H13   S    
C12   C22   A    
C7    C8    S    
Cu2   O2    S    
C16   C18   A    
C25   O9    D    
C21   C24   A    
C13   H3    S    
C1    C3    S    
C15   C17   A    
C7    N1    D    
C22   C23   A    
C17   C19   A    
C8    N2    D    
C25   O10   S    
Cu1   Cu2   S    
Cu2   O6    S    
C1    O3    A    
C11   C21   A    
C20   C24   A    
C2    O4    A    
C3    C5    D    
C8    H9    S    
C3    O14   S    
