data_mof_unit_47877.cif
_audit_creation_date              2012-10-26T19:58:20-0400
_audit_creation_method            fapswitch 2.2
_symmetry_space_group_name_H-M    P1
_symmetry_Int_Tables_number       1
_space_group_crystal_system       triclinic
_cell_length_a                    7.453279
_cell_length_b                    8.73157
_cell_length_c                    13.396269
_cell_angle_alpha                 94.72293
_cell_angle_beta                  77.353058
_cell_angle_gamma                 103.249248
_cell_volume                      827.543833548

loop_
_atom_site_label
_atom_site_type_symbol
_atom_type_description
_atom_site_fract_x
_atom_site_fract_y
_atom_site_fract_z
_atom_type_partial_charge
C1    C     C_R   0.545745 0.799866 0.500984 0.546834
C2    C     C_R   0.333029 0.488898 0.807888 -0.012801
C3    C     C_2   0.565964 0.967360 0.503646 -0.150875
C4    C     C_R   0.398412 0.495010 0.694818 0.536501
C5    C     C_2   0.439150 0.034034 0.476390 -0.055351
C6    C     C_R   0.457362 0.200435 0.492150 0.535422
C7    C     C_R   0.601616 0.511080 0.305991 0.535892
C8    C     C_R   0.875607 0.679850 0.054655 -0.130082
C9    C     C_R   0.662722 0.536463 0.195985 -0.005816
C10   C     C_R   0.147276 0.408561 0.851764 -0.021245
C11   C     C_R   0.097598 0.381079 0.956003 -0.139780
C12   C     C_R   0.416644 0.503123 0.976645 0.031758
C13   C     C_R   0.230049 0.423902 0.017197 -0.136708
C14   C     C_1   0.288375 0.949848 0.426340 0.239408
C15   C     C_1   0.018745 0.644403 0.601914 0.481331
C16   C     C_1   0.003466 0.349059 0.792796 0.225315
C17   C     C_R   0.462040 0.549296 0.873437 0.017415
C18   C     C_R   0.558458 0.541484 0.036173 0.034425
C19   C     C_R   0.735732 0.639244 0.995952 0.042945
C20   C     C_R   0.769169 0.699541 0.899009 -0.125599
C21   C     C_R   0.633861 0.657226 0.839245 -0.101334
C22   C     C_R   0.529165 0.485879 0.134957 -0.126860
C23   C     C_R   0.838645 0.629860 0.154765 -0.138440
Cu1   Cu    Cu3+1 0.321300 0.483160 0.488710 1.010365
Cu2   Cu    Cu3+1 0.678700 0.516840 0.511290 0.994556
H1    H     H_    0.943685 0.670003 0.201146 0.148720
H2    H     H_    0.990309 0.383420 0.419348 0.226256
H3    H     H_    0.900420 0.780596 0.869380 0.134969
H4    H     H_    0.011320 0.754452 0.024222 0.121589
H5    H     H_    0.401139 0.405143 0.167803 0.117317
H6    H     H_    0.955341 0.321878 0.990254 0.129320
H7    H     H_    0.664091 0.714487 0.767131 0.147863
H8    H     H_    0.683693 0.037732 0.534145 0.139394
H9    H     H_    0.179393 0.397613 0.096932 0.110347
N1    N     N_2   0.947230 0.542220 0.528320 -0.172908
N2    N     N_2   0.052770 0.457780 0.471680 -0.255326
N3    N     N_1   0.168514 0.883648 0.386388 -0.289194
N4    N     N_1   0.076321 0.730639 0.663669 -0.358114
N5    N     N_1   0.887652 0.301272 0.746043 -0.275143
O1    O     O_R   0.383920 0.714220 0.492660 -0.487678
O2    O     O_R   0.685730 0.742660 0.511730 -0.500919
O3    O     O_R   0.275440 0.478800 0.636790 -0.486258
O4    O     O_R   0.577250 0.507240 0.655860 -0.506695
O5    O     O_R   0.314270 0.257340 0.488270 -0.492993
O6    O     O_R   0.616080 0.285780 0.507340 -0.515367
O7    O     O_R   0.422750 0.492760 0.344140 -0.509023
O8    O     O_R   0.724560 0.521200 0.363210 -0.513434

loop_
_geom_bond_atom_site_label_1
_geom_bond_atom_site_label_2
_ccdc_geom_bond_type
C12   C17   A    
C1    O2    A    
C2    C4    S    
Cu1   Cu2   S    
C15   N4    T    
C6    O6    A    
H2    N2    S    
Cu1   O3    S    
Cu2   O8    S    
C20   H3    S    
N1    N2    D    
C3    C5    D    
Cu1   O7    S    
Cu2   O4    S    
C11   H6    S    
C13   H9    S    
C6    O5    A    
C12   C13   A    
C2    C17   A    
C11   C13   A    
C5    C14   S    
Cu1   N2    S    
C4    O3    A    
Cu2   N1    S    
C8    H4    S    
C15   N1    S    
C4    O4    A    
C1    C3    S    
C5    C6    S    
Cu1   O5    S    
C21   H7    S    
C9    C22   A    
C8    C19   A    
C10   C11   A    
C3    H8    S    
C16   N5    T    
C12   C18   A    
C2    C10   A    
C7    O7    A    
Cu2   O6    S    
C8    C23   A    
C20   C21   A    
C18   C19   A    
C23   H1    S    
Cu2   O2    S    
C7    C9    S    
C9    C23   A    
C10   C16   S    
C22   H5    S    
C1    O1    A    
Cu1   O1    S    
C18   C22   A    
C17   C21   A    
C19   C20   A    
C14   N3    T    
C7    O8    A    
