data_mof_unit_13694.cif
_audit_creation_date              2012-12-10T17:31:18-0500
_audit_creation_method            fapswitch 2.2
_symmetry_space_group_name_H-M    P1
_symmetry_Int_Tables_number       1
_space_group_crystal_system       triclinic
_cell_length_a                    18.960117
_cell_length_b                    18.850946
_cell_length_c                    12.474886
_cell_angle_alpha                 89.981133
_cell_angle_beta                  130.91742
_cell_angle_gamma                 90.01229
_cell_volume                      3369.25531516

loop_
_atom_site_label
_atom_site_type_symbol
_atom_type_description
_atom_site_fract_x
_atom_site_fract_y
_atom_site_fract_z
_atom_type_partial_charge
C1    C     C_R   0.606448 0.894635 0.645432 0.834927
C2    C     C_R   0.603074 0.106588 0.641038 0.833020
C3    C     C_R   0.106450 0.394636 0.645434 0.834948
C4    C     C_R   0.103073 0.606588 0.641036 0.833031
C5    C     C_R   0.232612 0.779869 0.026552 0.066645
C6    C     C_R   0.238093 0.225062 0.037370 0.063725
C7    C     C_R   0.732614 0.279867 0.026557 0.066644
C8    C     C_R   0.738093 0.725063 0.037371 0.063723
C9    C     C_R   0.661058 0.263931 0.030730 0.058898
C10   C     C_R   0.667445 0.742266 0.042598 0.066743
C11   C     C_R   0.161056 0.763932 0.030726 0.058898
C12   C     C_R   0.167444 0.242264 0.042597 0.066742
C13   C     C_R   0.585077 0.223144 0.922778 -0.160872
C14   C     C_R   0.591320 0.782462 0.933592 -0.176640
C15   C     C_R   0.085075 0.723146 0.922774 -0.160868
C16   C     C_R   0.091319 0.282461 0.933590 -0.176647
C17   C     C_R   0.579730 0.196729 0.814298 -0.096945
C18   C     C_R   0.585023 0.806568 0.822792 -0.145817
C19   C     C_R   0.079727 0.696731 0.814293 -0.096942
C20   C     C_R   0.085023 0.306567 0.822792 -0.145819
C21   C     C_R   0.308830 0.820414 0.137461 -0.198817
C22   C     C_R   0.314423 0.184937 0.148307 -0.171514
C23   C     C_R   0.808833 0.320412 0.137466 -0.198818
C24   C     C_R   0.814423 0.684938 0.148308 -0.171514
C25   C     C_R   0.240245 0.833712 0.245402 -0.187443
C26   C     C_R   0.245542 0.171224 0.255388 -0.169920
C27   C     C_R   0.740245 0.333712 0.245403 -0.187444
C28   C     C_R   0.745543 0.671225 0.255389 -0.169922
C29   C     C_R   0.650358 0.175972 0.706388 -0.258388
C30   C     C_R   0.657596 0.826726 0.716176 -0.258052
C31   C     C_R   0.150355 0.675974 0.706382 -0.258410
C32   C     C_R   0.157597 0.326727 0.716177 -0.258065
C33   C     C_R   0.679342 0.954166 0.293065 0.121597
C34   C     C_R   0.179341 0.454165 0.293063 0.121600
C35   C     C_R   0.340687 0.000513 0.618799 0.140152
C36   C     C_R   0.840687 0.500514 0.618799 0.140151
C37   C     C_R   0.302921 0.985175 0.680600 -0.157919
C38   C     C_R   0.802920 0.485177 0.680598 -0.157919
C39   C     C_R   0.385584 0.100026 0.344558 0.819223
C40   C     C_R   0.384383 0.900885 0.342571 0.808940
C41   C     C_R   0.885584 0.600026 0.344558 0.819219
C42   C     C_R   0.884384 0.400885 0.342572 0.808939
C43   C     C_R   0.361606 0.973078 0.825777 -0.052517
C44   C     C_R   0.861604 0.473080 0.825775 -0.052515
C45   C     C_R   0.458952 0.982814 0.915240 0.006234
C46   C     C_R   0.958951 0.482814 0.915239 0.006236
C47   C     C_R   0.496053 0.989704 0.845773 0.192411
C48   C     C_R   0.996052 0.489704 0.845773 0.192413
C49   C     C_R   0.521610 0.980562 0.069551 -0.097718
C50   C     C_R   0.021609 0.480562 0.069550 -0.097719
C51   C     C_R   0.614777 0.960254 0.143967 -0.043080
C52   C     C_R   0.114775 0.460252 0.143965 -0.043075
C53   C     C_R   0.645493 0.951531 0.070371 -0.298830
C54   C     C_R   0.145487 0.451524 0.070365 -0.298835
C55   C     C_R   0.595347 0.979908 0.933221 0.438975
C56   C     C_R   0.095344 0.479906 0.933219 0.438974
C57   C     C_R   0.498165 0.998398 0.154646 0.345760
C58   C     C_R   0.998165 0.498398 0.154646 0.345761
C59   C     C_R   0.656434 0.982421 0.370754 0.586188
C60   C     C_R   0.156434 0.482420 0.370753 0.586185
C61   C     C_R   0.665279 0.291339 0.140236 0.277421
C62   C     C_R   0.672345 0.715863 0.153312 0.301777
C63   C     C_R   0.165278 0.791339 0.140234 0.277421
C64   C     C_R   0.172344 0.215862 0.153311 0.301777
C65   C     C_R   0.311541 0.849112 0.243579 -0.109291
C66   C     C_R   0.315533 0.154361 0.251116 -0.106842
C67   C     C_R   0.811542 0.349111 0.243581 -0.109290
C68   C     C_R   0.815533 0.654362 0.251116 -0.106841
C69   C     C_R   0.698349 0.210266 0.670252 0.227599
C70   C     C_R   0.708856 0.792439 0.684628 0.258760
C71   C     C_R   0.198346 0.710266 0.670248 0.227606
C72   C     C_R   0.208857 0.292440 0.684630 0.258757
C73   C     C_R   0.267009 0.760294 0.762924 0.291730
C74   C     C_R   0.270582 0.237483 0.772109 0.293730
C75   C     C_R   0.767011 0.260293 0.762929 0.291728
C76   C     C_R   0.770580 0.737483 0.772107 0.293728
C77   C     C_R   0.283509 0.779870 0.885515 -0.245074
C78   C     C_R   0.285132 0.218777 0.892933 -0.221269
C79   C     C_R   0.783511 0.279869 0.885520 -0.245072
C80   C     C_R   0.785131 0.718776 0.892932 -0.221270
C81   C     C_R   0.724818 0.255504 0.910740 0.049429
C82   C     C_R   0.729519 0.747377 0.920267 0.045161
C83   C     C_R   0.224815 0.755506 0.910735 0.049431
C84   C     C_R   0.229519 0.247377 0.920267 0.045163
C85   C     C_R   0.652060 0.207765 0.811535 0.041272
C86   C     C_R   0.657617 0.795234 0.820365 0.023591
C87   C     C_R   0.152057 0.707768 0.811529 0.041254
C88   C     C_R   0.157617 0.295234 0.820365 0.023594
Cu1   Cu    Cu3+1 0.526340 0.000000 0.421010 1.073393
Cu2   Cu    Cu3+1 0.026340 0.500000 0.421010 1.073400
Cu3   Cu    Cu3+1 0.473640 0.000000 0.578990 0.989786
Cu4   Cu    Cu3+1 0.973640 0.500000 0.578990 0.989790
H1    H     H_    0.241131 0.856334 0.326102 0.203453
H2    H     H_    0.246145 0.148273 0.335608 0.200815
H3    H     H_    0.741131 0.356335 0.326102 0.203453
H4    H     H_    0.746146 0.648273 0.335608 0.200814
H5    H     H_    0.715076 0.931856 0.128307 0.186426
H6    H     H_    0.215065 0.431842 0.128293 0.186433
H7    H     H_    0.294924 0.006900 0.504980 0.130250
H8    H     H_    0.794925 0.506902 0.504980 0.130251
H9    H     H_    0.329686 0.949114 0.863055 0.189978
H10   H     H_    0.829683 0.449116 0.863052 0.189980
H11   H     H_    0.228220 0.978654 0.614826 0.169108
H12   H     H_    0.728219 0.478657 0.614824 0.169107
H13   H     H_    0.528403 0.211587 0.920358 0.225658
H14   H     H_    0.535235 0.795123 0.931988 0.226777
H15   H     H_    0.028401 0.711588 0.920355 0.225657
H16   H     H_    0.035234 0.295121 0.931986 0.226779
H17   H     H_    0.367284 0.830478 0.143551 0.185995
H18   H     H_    0.373803 0.176184 0.156059 0.203123
H19   H     H_    0.867288 0.330475 0.143557 0.185994
H20   H     H_    0.873804 0.676185 0.156060 0.203123
H21   H     H_    0.337468 0.818773 0.951934 0.181484
H22   H     H_    0.334584 0.176773 0.956199 0.211563
H23   H     H_    0.837469 0.318773 0.951938 0.181486
H24   H     H_    0.834583 0.676773 0.956198 0.211564
H25   H     H_    0.514794 0.171430 0.728121 0.198938
H26   H     H_    0.519199 0.830198 0.735269 0.202999
H27   H     H_    0.014792 0.671431 0.728117 0.198938
H28   H     H_    0.019200 0.330198 0.735269 0.202998
N1    N     N_R   0.566260 0.000000 0.302220 -0.240474
N2    N     N_R   0.066260 0.500000 0.302220 -0.240472
N3    N     N_R   0.434410 0.000000 0.697680 -0.206266
N4    N     N_R   0.934410 0.500000 0.697680 -0.206268
O1    O     O_R   0.608610 0.924520 0.551740 -0.499082
O2    O     O_R   0.608610 0.075480 0.551740 -0.523261
O3    O     O_R   0.108610 0.424520 0.551740 -0.499074
O4    O     O_R   0.108610 0.575480 0.551740 -0.523251
O5    O     O_R   0.564110 0.924510 0.685150 -0.554687
O6    O     O_R   0.564110 0.075490 0.685150 -0.525315
O7    O     O_R   0.064110 0.424510 0.685150 -0.554687
O8    O     O_R   0.064110 0.575490 0.685150 -0.525316
O9    O     O_R   0.435880 0.075470 0.314850 -0.527650
O10   O     O_R   0.435880 0.924530 0.314850 -0.552581
O11   O     O_R   0.935880 0.575470 0.314850 -0.527651
O12   O     O_R   0.935880 0.424530 0.314850 -0.552583
O13   O     O_R   0.391380 0.075460 0.448260 -0.612665
O14   O     O_R   0.391380 0.924540 0.448260 -0.604923
O15   O     O_R   0.891380 0.575460 0.448260 -0.612667
O16   O     O_R   0.891380 0.424540 0.448260 -0.604924
Br1   Br    Br    0.795566 0.902587 0.391666 -0.459330
Br2   Br    Br    0.295565 0.402587 0.391660 -0.459343
Br3   Br    Br    0.372052 0.025326 0.063790 -0.543269
Br4   Br    Br    0.872052 0.525327 0.063790 -0.543269
O17   O     O_3   0.642088 0.002674 0.887910 -0.526994
C89   C     C_3   0.739790 0.989944 0.982124 0.064158
H29   H     H_    0.753912 0.931864 0.996105 0.157701
H30   H     H_    0.775548 0.016850 0.085748 0.161269
C90   C     C_3   0.781827 0.019848 0.921888 -0.756343
H31   H     H_    0.777018 0.078535 0.917462 0.234981
H32   H     H_    0.856672 0.004911 0.991397 0.220547
H33   H     H_    0.745218 0.998063 0.814475 0.252864
O18   O     O_3   0.142087 0.502673 0.887913 -0.526991
C91   C     C_3   0.239791 0.489950 0.982139 0.064144
H34   H     H_    0.253921 0.431873 0.996110 0.157707
H35   H     H_    0.275540 0.516849 0.085764 0.161270
C92   C     C_3   0.281837 0.519873 0.921929 -0.756342
H36   H     H_    0.276979 0.578557 0.917451 0.235005
H37   H     H_    0.356700 0.504975 0.991496 0.220545
H38   H     H_    0.245272 0.498066 0.814544 0.252836
Br5   Br    Br    0.567560 0.277299 0.146647 -0.466672
Br6   Br    Br    0.577506 0.733962 0.164615 -0.470405
Br7   Br    Br    0.067560 0.777299 0.146647 -0.466673
Br8   Br    Br    0.077504 0.233962 0.164613 -0.470406
Br9   Br    Br    0.659944 0.199797 0.484798 -0.426340
Br10  Br    Br    0.688974 0.811594 0.514961 -0.321705
Br11  Br    Br    0.159947 0.699793 0.484798 -0.426338
Br12  Br    Br    0.188976 0.311594 0.514963 -0.321705
Br13  Br    Br    0.339792 0.802888 0.723944 -0.554944
Br14  Br    Br    0.334157 0.183257 0.727506 -0.494086
Br15  Br    Br    0.839792 0.302889 0.723947 -0.554951
Br16  Br    Br    0.834154 0.683256 0.727503 -0.494087
O19   O     O_3   0.721744 0.985365 0.517587 -0.519225
C93   C     C_3   0.790092 0.037310 0.561189 0.089750
H39   H     H_    0.759041 0.086232 0.495530 0.171150
H40   H     H_    0.842010 0.016655 0.555090 0.186354
C94   C     C_3   0.843310 0.057143 0.715232 -0.692467
H41   H     H_    0.874858 0.009055 0.783173 0.252644
H42   H     H_    0.899696 0.095373 0.751445 0.224781
H43   H     H_    0.795736 0.082408 0.726330 0.245790
O20   O     O_3   0.221742 0.485359 0.517587 -0.519226
C95   C     C_3   0.290095 0.537301 0.561200 0.089752
H44   H     H_    0.259052 0.586225 0.495548 0.171151
H45   H     H_    0.342015 0.516644 0.555105 0.186362
C96   C     C_3   0.343310 0.557129 0.715245 -0.692474
H46   H     H_    0.374827 0.509035 0.783171 0.252652
H47   H     H_    0.399720 0.595338 0.751482 0.224773
H48   H     H_    0.295743 0.582416 0.726335 0.245785

loop_
_geom_bond_atom_site_label_1
_geom_bond_atom_site_label_2
_ccdc_geom_bond_type
C59   N1    A    
C83   C87   A    
C39   O13   A    
C26   H2    S    
C92   H36   S    
C79   H23   S    
C72   Br12  S    
C14   C18   A    
C27   H3    S    
C24   H20   S    
C20   H28   S    
C64   Br8   S    
C11   C63   A    
Cu1   O9    S    
O17   C89   S    
C32   C72   A    
Cu3   O6    S    
Cu1   O1    S    
O19   C93   S    
C63   Br7   S    
C69   Br9   S    
C18   C86   A    
C2    C29   S    
C9    C61   A    
C28   C68   A    
C1    O1    A    
C5    C11   A    
Cu3   O14   S    
C1    O5    A    
C90   H32   S    
C6    C12   A    
C5    C83   A    
C3    O3    A    
C96   H47   S    
C77   C83   A    
C23   C67   A    
C6    C22   A    
C49   C57   A    
C42   O12   A    
C25   C63   A    
C15   H15   S    
C76   Br16  S    
C29   C69   A    
C9    C13   A    
C93   H39   S    
C22   C66   A    
C38   H12   S    
C34   C52   A    
C27   C61   A    
C2    O6    A    
Cu3   O13   S    
C11   C15   A    
C80   H24   S    
C52   C54   A    
C49   C51   A    
C40   O14   A    
C50   C52   A    
Cu2   O3    S    
C30   C86   A    
C18   H26   S    
C91   H35   S    
C48   C56   A    
C17   H25   S    
C21   C65   A    
C53   C55   A    
C19   H27   S    
C92   H37   S    
Cu3   N3    S    
C78   H22   S    
C34   C60   A    
Cu2   N2    S    
C10   C62   A    
C77   H21   S    
C30   C70   A    
C44   C46   A    
C81   C85   A    
C41   C68   S    
C89   H30   S    
Cu1   O2    S    
C45   C47   A    
C46   C48   A    
C58   N2    A    
C6    C84   A    
C4    O4    A    
C42   O16   A    
C26   C66   A    
C12   C16   A    
Cu4   O7    S    
C31   C87   A    
C91   C92   S    
C72   C74   A    
C10   C14   A    
C90   H33   S    
C79   C81   A    
C44   H10   S    
C35   N3    A    
C96   H48   S    
C53   H5    S    
O20   C95   S    
C24   C68   A    
C40   O10   A    
C3    O7    A    
C51   C53   A    
C95   C96   S    
C50   C58   A    
C37   C43   A    
C15   C19   A    
C43   H9    S    
C38   C44   A    
C74   Br14  S    
C78   C84   A    
C89   C90   S    
C22   H18   S    
Cu2   Cu4   S    
C45   C49   A    
C25   H1    S    
C16   C20   A    
C94   H43   S    
C25   C65   A    
C36   H8    S    
C27   C67   A    
C60   N2    A    
C35   H7    S    
C93   C94   S    
C91   H34   S    
C2    O2    A    
C13   H13   S    
C7    C81   A    
C92   H38   S    
C40   C65   S    
C75   Br15  S    
C42   C67   S    
C39   C66   S    
C17   C85   A    
Cu1   Cu3   S    
C73   Br13  S    
Cu4   O16   S    
C41   O11   A    
C35   C37   A    
C47   C55   A    
C89   H29   S    
C39   O9    A    
C60   O20   S    
C7    C9    A    
C12   C64   A    
C34   Br2   S    
Cu2   O4    S    
Cu1   O10   S    
C95   H45   S    
C36   N4    A    
C29   C85   A    
C8    C10   A    
C84   C88   A    
C56   O18   S    
C59   O19   S    
C48   N4    A    
C37   H11   S    
C76   C80   A    
C54   C56   A    
C47   N3    A    
Cu3   O5    S    
C26   C64   A    
C33   C51   A    
C23   H19   S    
Cu4   O8    S    
C46   C50   A    
C19   C87   A    
C13   C17   A    
C28   H4    S    
C33   Br1   S    
Cu4   N4    S    
C43   C45   A    
C82   C86   A    
C90   H31   S    
C70   C76   A    
Cu2   O11   S    
C4    O8    A    
C96   H46   S    
C62   Br6   S    
Cu1   N1    S    
C7    C23   A    
C20   C88   A    
C36   C38   A    
C1    C30   S    
C8    C24   A    
C80   C82   A    
C94   H42   S    
Cu2   O12   S    
C69   C75   A    
C70   Br10  S    
C3    C32   S    
C93   H40   S    
C41   O15   A    
C4    C31   S    
C55   O17   S    
C16   H16   S    
C57   N1    A    
C58   Br4   S    
C8    C82   A    
C5    C21   A    
C73   C77   A    
C33   C59   A    
C94   H41   S    
C74   C78   A    
C14   H14   S    
C71   C73   A    
C61   Br5   S    
C54   H6    S    
C71   Br11  S    
O18   C91   S    
Cu4   O15   S    
C75   C79   A    
C31   C71   A    
C95   H44   S    
C57   Br3   S    
C28   C62   A    
C21   H17   S    
C32   C88   A    
