data_mof_unit_25290.cif
_audit_creation_date              2012-10-26T18:34:24-0400
_audit_creation_method            fapswitch 2.2
_symmetry_space_group_name_H-M    P1
_symmetry_Int_Tables_number       1
_space_group_crystal_system       triclinic
_cell_length_a                    10.904286
_cell_length_b                    9.617347
_cell_length_c                    9.052413
_cell_angle_alpha                 90.677641
_cell_angle_beta                  93.361198
_cell_angle_gamma                 92.165056
_cell_volume                      946.925873073

loop_
_atom_site_label
_atom_site_type_symbol
_atom_type_description
_atom_site_fract_x
_atom_site_fract_y
_atom_site_fract_z
_atom_type_partial_charge
Br1   Br    Br    0.332525 0.156831 0.241696 -0.430604
Br2   Br    Br    0.667510 0.843157 0.758266 -0.430551
Br3   Br    Br    0.686151 0.178412 0.740171 -0.455420
Br4   Br    Br    0.313835 0.821585 0.259845 -0.455464
C1    C     C_R   0.262432 0.497284 0.508162 0.589993
C2    C     C_R   0.071359 0.604477 0.582385 0.125206
C3    C     C_R   0.872520 0.508215 0.484251 0.004645
C4    C     C_R   0.127470 0.491759 0.515720 0.004675
C5    C     C_R   0.428404 0.069640 0.397346 0.246877
C6    C     C_R   0.571602 0.930358 0.602648 0.246944
C7    C     C_R   0.573418 0.078320 0.600935 0.244365
C8    C     C_R   0.426580 0.921679 0.399068 0.244398
C9    C     C_3   0.049820 0.126901 0.362515 -0.250750
C10   C     C_3   0.950201 0.873084 0.637359 -0.250647
C11   C     C_3   0.783107 0.217826 0.289729 -0.247015
C12   C     C_R   0.737563 0.502711 0.491821 0.590006
C13   C     C_3   0.216869 0.782019 0.710464 -0.247048
C14   C     C_R   0.499810 0.499500 0.220912 0.576718
C15   C     C_R   0.500190 0.500500 0.779088 0.576700
C16   C     C_1   0.499945 0.499308 0.065634 0.014036
C17   C     C_1   0.500054 0.500692 0.934366 0.014017
C18   C     C_R   0.055699 0.379221 0.448216 0.115985
C19   C     C_R   0.944290 0.620746 0.551747 0.115954
C20   C     C_R   0.928621 0.395478 0.417609 0.125224
Cu1   Cu    Cu3+1 0.500000 0.640660 0.500000 1.057588
Cu2   Cu    Cu3+1 0.500000 0.359340 0.500000 1.057552
H1    H     H_    0.156336 0.218310 0.533553 0.265193
H2    H     H_    0.811912 0.131475 0.218728 0.133262
H3    H     H_    0.691685 0.248027 0.244212 0.207079
H4    H     H_    0.775873 0.178560 0.403781 0.179017
H5    H     H_    0.079933 0.659177 0.808107 0.269392
H6    H     H_    0.188086 0.868317 0.781549 0.133356
H7    H     H_    0.224139 0.821384 0.596461 0.178967
H8    H     H_    0.308274 0.751738 0.755958 0.207053
H9    H     H_    0.967612 0.094582 0.420936 0.122897
H10   H     H_    0.111702 0.037852 0.367959 0.178448
H11   H     H_    0.029697 0.147379 0.243634 0.195476
H12   H     H_    0.843797 0.781666 0.466169 0.265047
H13   H     H_    0.032465 0.905359 0.579017 0.122878
H14   H     H_    0.970251 0.852627 0.756257 0.195482
H15   H     H_    0.888368 0.962158 0.631810 0.178349
H16   H     H_    0.919925 0.340708 0.191895 0.269382
N1    N     N_R   0.500000 0.852070 0.500000 -0.269344
N2    N     N_R   0.500000 0.147930 0.500000 -0.269372
N3    N     N_2   0.111232 0.246625 0.435756 -0.457078
N4    N     N_2   0.888786 0.753379 0.564081 -0.457000
N5    N     N_2   0.869521 0.336005 0.284734 -0.525653
N6    N     N_2   0.130408 0.663870 0.715329 -0.525686
O1    O     O_R   0.319640 0.618740 0.499990 -0.480246
O2    O     O_R   0.680360 0.381260 0.500010 -0.480262
O3    O     O_R   0.680360 0.618740 0.500010 -0.475195
O4    O     O_R   0.319640 0.381260 0.499990 -0.475298
O5    O     O_R   0.500000 0.618760 0.288390 -0.459040
O6    O     O_R   0.500000 0.381240 0.711610 -0.459014
O7    O     O_R   0.500000 0.618760 0.711610 -0.475754
O8    O     O_R   0.500000 0.381240 0.288390 -0.475719

loop_
_geom_bond_atom_site_label_1
_geom_bond_atom_site_label_2
_ccdc_geom_bond_type
C1    C4    S    
C4    C18   A    
C13   N6    S    
C1    O4    A    
C9    H9    S    
Cu2   O4    S    
Br4   C8    S    
C9    H11   S    
C12   O3    A    
C14   O8    A    
H16   N5    S    
H1    N3    S    
Cu1   O3    S    
Cu1   Cu2   S    
Cu2   N2    S    
C7    N2    A    
C10   N4    S    
C19   N4    S    
C9    N3    S    
C1    O1    A    
C11   H2    S    
C2    N6    S    
C11   H4    S    
C10   H15   S    
C3    C19   A    
C2    C19   A    
Cu2   O6    S    
C15   O6    A    
C13   H7    S    
Cu1   N1    S    
C15   C17   S    
Cu1   O5    S    
C11   H3    S    
C8    N1    A    
C14   C16   S    
H5    N6    S    
Cu2   O2    S    
C10   H13   S    
C5    C8    A    
C18   C20   A    
H12   N4    S    
Br3   C7    S    
C13   H8    S    
C10   H14   S    
C3    C20   A    
Br2   C6    S    
C18   N3    S    
Br1   C5    S    
C16   C17   T    
C9    H10   S    
C6    C7    A    
C15   O7    A    
C13   H6    S    
C11   N5    S    
C3    C12   S    
C5    N2    A    
C2    C4    A    
C14   O5    A    
C6    N1    A    
C20   N5    S    
Cu1   O7    S    
C12   O2    A    
Cu1   O1    S    
Cu2   O8    S    
