data_mof_unit_25866.cif
_audit_creation_date              2012-12-10T17:58:17-0500
_audit_creation_method            fapswitch 2.2
_symmetry_space_group_name_H-M    P1
_symmetry_Int_Tables_number       1
_space_group_crystal_system       triclinic
_cell_length_a                    9.554886
_cell_length_b                    10.830552
_cell_length_c                    15.42817
_cell_angle_alpha                 89.081817
_cell_angle_beta                  74.752803
_cell_angle_gamma                 89.656763
_cell_volume                      1540.1796946

loop_
_atom_site_label
_atom_site_type_symbol
_atom_type_description
_atom_site_fract_x
_atom_site_fract_y
_atom_site_fract_z
_atom_type_partial_charge
C1    C     C_R   0.000161 0.262177 0.500101 0.808232
C2    C     C_R   0.999832 0.737822 0.499915 0.807861
C3    C     C_R   0.575695 0.571628 0.089610 -0.203780
C4    C     C_R   0.416448 0.474885 0.905067 -0.201943
C5    C     C_R   0.720529 0.587776 0.044453 -0.220936
C6    C     C_R   0.271205 0.460703 0.949895 -0.221180
C7    C     C_R   0.871471 0.064510 0.503810 -0.177908
C8    C     C_R   0.128508 0.935483 0.496245 -0.178205
C9    C     C_R   0.871249 0.936777 0.503699 -0.142001
C10   C     C_R   0.128730 0.063217 0.496357 -0.142220
C11   C     C_R   0.999756 0.871729 0.499912 -0.029056
C12   C     C_R   0.000227 0.128267 0.500131 -0.029395
C13   C     C_R   0.551392 0.425706 0.557926 -0.108389
C14   C     C_R   0.448601 0.574310 0.442084 -0.107835
C15   C     C_R   0.403215 0.425313 0.558314 0.346563
C16   C     C_R   0.596774 0.574721 0.441705 0.347349
C17   C     C_R   0.918527 0.501081 0.672176 0.816741
C18   C     C_R   0.081493 0.499913 0.327759 0.816436
C19   C     C_R   0.873106 0.512179 0.770256 -0.041965
C20   C     C_R   0.126555 0.497319 0.229163 -0.045727
C21   C     C_R   0.916995 0.578761 0.909371 -0.218388
C22   C     C_R   0.077260 0.457263 0.086527 -0.213470
C23   C     C_R   0.968329 0.554762 0.818096 -0.170036
C24   C     C_R   0.028426 0.468894 0.179330 -0.161772
C25   C     C_R   0.727599 0.490487 0.814907 -0.238262
C26   C     C_R   0.272602 0.518183 0.185037 -0.242285
C27   C     C_R   0.671510 0.518607 0.906157 0.094848
C28   C     C_R   0.324474 0.509395 0.091200 0.094939
C29   C     C_R   0.769865 0.561323 0.953612 0.156433
C30   C     C_R   0.224139 0.476110 0.042304 0.156913
C31   C     C_R   0.521120 0.506281 0.951183 0.063064
C32   C     C_R   0.473371 0.528886 0.045156 0.061889
Cu1   Cu    Cu3+1 0.140660 0.500020 0.500000 0.988971
Cu2   Cu    Cu3+1 0.859340 0.499980 0.500000 0.989396
H1    H     H_    0.344524 0.537598 0.226148 0.151405
H2    H     H_    0.660473 0.451696 0.776256 0.148480
H3    H     H_    0.915121 0.452069 0.212219 0.174612
H4    H     H_    0.081161 0.572673 0.784597 0.169650
H5    H     H_    0.991834 0.613639 0.945048 0.147211
H6    H     H_    0.000466 0.431247 0.049455 0.148580
H7    H     H_    0.547489 0.596972 0.159220 0.159984
H8    H     H_    0.441866 0.462821 0.833522 0.158283
H9    H     H_    0.770841 0.113030 0.506910 0.162387
H10   H     H_    0.229138 0.886963 0.493146 0.162260
H11   H     H_    0.770581 0.889284 0.506765 0.179828
H12   H     H_    0.229397 0.110709 0.493293 0.179694
N1    N     N_R   0.352080 0.500030 0.499980 -0.195491
N2    N     N_R   0.647920 0.499970 0.500020 -0.195092
O1    O     O_R   0.118740 0.319660 0.500000 -0.546729
O2    O     O_R   0.881260 0.680340 0.500000 -0.546611
O3    O     O_R   0.881170 0.319630 0.500010 -0.595565
O4    O     O_R   0.118830 0.680370 0.499990 -0.596100
O5    O     O_R   0.055570 0.500030 0.629830 -0.540959
O6    O     O_R   0.944430 0.499970 0.370170 -0.541147
O7    O     O_R   0.818000 0.500000 0.629840 -0.595086
O8    O     O_R   0.182000 0.500000 0.370160 -0.595615
H13   H     H_    0.794645 0.621489 0.081160 0.167811
H14   H     H_    0.195258 0.436034 0.911789 0.166137
H15   H     H_    0.589037 0.366154 0.604128 0.162265
H16   H     H_    0.410950 0.633877 0.395891 0.161561
Br1   Br    Br    0.280295 0.315874 0.643373 -0.550205
Br2   Br    Br    0.719639 0.684286 0.356711 -0.556430

loop_
_geom_bond_atom_site_label_1
_geom_bond_atom_site_label_2
_ccdc_geom_bond_type
C21   C29   A    
C10   H12   S    
C13   N2    A    
C19   C23   A    
C9    H11   S    
C14   N1    A    
C13   H15   S    
C14   C16   A    
C7    H9    S    
C27   C29   A    
C23   H4    S    
C14   H16   S    
C6    H14   S    
C26   C28   A    
C31   C32   A    
C21   H5    S    
C2    O4    A    
C15   N1    A    
C22   H6    S    
C20   C24   A    
C16   N2    A    
Cu1   O8    S    
C28   C30   A    
Cu1   Cu2   S    
C15   Br1   S    
C5    H13   S    
Cu1   O4    S    
C18   O8    A    
C9    C11   A    
Cu2   O3    S    
C7    C12   A    
C1    C12   S    
C20   C26   A    
C8    C11   A    
C19   C25   A    
C2    C11   S    
C10   C12   A    
C28   C32   A    
C4    C6    A    
C17   C19   S    
Cu2   O6    S    
C5    C29   A    
C13   C15   A    
C21   C23   A    
Cu1   O5    S    
C3    C32   A    
Cu1   N1    S    
C4    H8    S    
C22   C24   A    
Cu2   O2    S    
C4    C31   A    
Cu2   N2    S    
C18   O6    A    
C25   H2    S    
C27   C31   A    
C17   O5    A    
C26   H1    S    
Cu2   O7    S    
C18   C20   S    
C8    C10   A    
C16   Br2   S    
C24   H3    S    
C7    C9    A    
C17   O7    A    
C3    H7    S    
C1    O3    A    
C22   C30   A    
C6    C30   A    
Cu1   O1    S    
C2    O2    A    
C8    H10   S    
C3    C5    A    
C25   C27   A    
C1    O1    A    
