data_mof_unit_60526.cif
_audit_creation_date              2012-12-10T16:57:33-0500
_audit_creation_method            fapswitch 2.2
_symmetry_space_group_name_H-M    P1
_symmetry_Int_Tables_number       1
_space_group_crystal_system       triclinic
_cell_length_a                    21.786857
_cell_length_b                    21.7586
_cell_length_c                    22.126249
_cell_angle_alpha                 59.591635
_cell_angle_beta                  119.098939
_cell_angle_gamma                 91.155705
_cell_volume                      7540.54090052

loop_
_atom_site_label
_atom_site_type_symbol
_atom_type_description
_atom_site_fract_x
_atom_site_fract_y
_atom_site_fract_z
_atom_type_partial_charge
C1    C     C_R   0.616303 0.503366 0.494805 0.919503
C2    C     C_2   0.818394 0.495958 0.507162 0.339142
C3    C     C_2   0.699664 0.471817 0.464966 -0.120085
C4    C     C_R   0.418664 0.581542 0.337228 0.907371
C5    C     C_2   0.673702 0.514426 0.479367 -0.263921
C6    C     C_3   0.770242 0.177114 0.028217 -0.224819
C7    C     C_3   0.690425 0.228410 0.974342 -0.123166
C8    C     C_1   0.625978 0.373587 0.751715 -0.188487
C9    C     C_1   0.876110 0.125842 0.248213 -0.176072
C10   C     C_3   0.789042 0.239730 0.969690 -0.254210
C11   C     C_3   0.709952 0.290479 0.917622 0.139372
C12   C     C_3   0.289654 0.708599 0.082090 0.205187
C13   C     C_3   0.811247 0.270263 0.024283 0.559291
C14   C     C_3   0.793349 0.208378 0.082158 0.136916
C15   C     C_3   0.732671 0.322101 0.971361 -0.268179
C16   C     C_R   0.382310 0.497768 0.502909 0.934769
C17   C     C_3   0.714289 0.258893 0.029805 -0.220103
C18   C     C_1   0.663846 0.335884 0.826760 -0.051640
C19   C     C_1   0.839139 0.163252 0.173116 -0.020184
C20   C     C_2   0.244249 0.507950 0.555488 -0.146607
C21   C     C_2   0.182256 0.511204 0.494453 -0.337709
C22   C     C_2   0.307520 0.516765 0.548303 -0.157331
C23   C     C_3   0.177256 0.766894 0.974310 -0.163899
C24   C     C_2   0.320724 0.490359 0.511458 -0.337830
C25   C     C_R   0.000268 0.879690 0.502317 0.973462
C26   C     C_R   0.080751 0.918372 0.662727 0.908841
C27   C     C_R   0.999295 0.120569 0.496869 0.934425
C28   C     C_R   0.581258 0.418459 0.662724 0.916798
C29   C     C_R   0.919274 0.081347 0.337282 0.905126
C30   C     C_R   0.002586 0.619432 0.499595 0.964589
C31   C     C_R   0.881644 0.499084 0.501386 0.804169
C32   C     C_R   0.998250 0.380497 0.500597 0.938139
C33   C     C_R   0.118627 0.502706 0.498863 0.943825
C34   C     C_3   0.206677 0.790053 0.917891 0.205608
C35   C     C_2   0.063449 0.686882 0.561870 0.521733
C36   C     C_2   0.009630 0.686638 0.497017 -0.449562
C37   C     C_2   0.064765 0.759353 0.550491 -0.272385
C38   C     C_2   0.001655 0.809144 0.512123 -0.416131
C39   C     C_2   0.936914 0.311478 0.442714 -0.157737
C40   C     C_3   0.257755 0.710504 0.971942 -0.165597
C41   C     C_2   0.993873 0.312884 0.504060 -0.336611
C42   C     C_2   0.935158 0.240974 0.449953 -0.152151
C43   C     C_2   0.998031 0.190966 0.487607 -0.333194
C44   C     C_3   0.319054 0.731749 0.025643 -0.163208
C45   C     C_3   0.238564 0.788140 0.028009 -0.162509
C46   C     C_1   0.373721 0.626284 0.248152 -0.185031
C47   C     C_1   0.124038 0.873390 0.751814 -0.184783
C48   C     C_3   0.229156 0.686533 0.029998 -0.162209
C49   C     C_3   0.880480 0.347210 0.989046 0.067815
C50   C     C_3   0.942611 0.316563 0.988448 -0.325502
C51   C     C_3   0.948898 0.377131 0.917428 -0.972276
C52   C     C_3   0.132037 0.611059 0.707421 0.097916
C53   C     C_3   0.207197 0.619041 0.756629 -0.342548
C54   C     C_3   0.221545 0.607729 0.836850 -0.979755
C55   C     C_3   0.845583 0.547642 0.583982 0.081589
C56   C     C_3   0.267187 0.812073 0.970008 -0.161897
C57   C     C_3   0.913894 0.515057 0.672204 -0.285290
C58   C     C_3   0.941606 0.576510 0.681908 -0.993895
C59   C     C_1   0.335716 0.663602 0.173058 -0.078506
C60   C     C_1   0.161115 0.835551 0.826925 -0.079022
C61   C     C_2   0.762642 0.481846 0.457654 -0.267019
H1    H     H_    0.377971 0.716587 0.048236 0.133301
H2    H     H_    0.344631 0.542226 0.576027 0.167545
H3    H     H_    0.264791 0.679456 0.947373 0.138133
H4    H     H_    0.288503 0.457472 0.492317 0.157267
H5    H     H_    0.970420 0.738786 0.437545 0.131970
H6    H     H_    0.117146 0.770263 0.576518 0.177378
H7    H     H_    0.950253 0.795042 0.493866 0.152872
H8    H     H_    0.890346 0.361158 0.389124 0.163871
H9    H     H_    0.036227 0.261644 0.561972 0.157459
H10   H     H_    0.882337 0.231310 0.422033 0.165213
H11   H     H_    0.049832 0.204202 0.506869 0.157000
H12   H     H_    0.693871 0.561093 0.477230 0.161676
H13   H     H_    0.281990 0.864329 0.943847 0.134463
H14   H     H_    0.231500 0.819210 0.052543 0.136028
H15   H     H_    0.118332 0.782063 0.951685 0.135717
H16   H     H_    0.214370 0.634268 0.056169 0.135271
H17   H     H_    0.764675 0.474374 0.413577 0.126020
H18   H     H_    0.674935 0.429992 0.458247 0.162729
H19   H     H_    0.893353 0.391402 0.000504 0.164689
H20   H     H_    0.828170 0.374877 0.925622 0.123971
H21   H     H_    0.995622 0.294065 0.049558 0.232712
H22   H     H_    0.932041 0.270260 0.980346 0.216094
H23   H     H_    0.639502 0.212031 0.951822 0.139117
H24   H     H_    0.896950 0.399197 0.855597 0.265373
H25   H     H_    0.994532 0.353254 0.918860 0.266768
H26   H     H_    0.960613 0.423666 0.924830 0.265181
H27   H     H_    0.132127 0.553147 0.746876 0.161504
H28   H     H_    0.087910 0.648409 0.696471 0.129069
H29   H     H_    0.251067 0.576978 0.773392 0.228487
H30   H     H_    0.209799 0.675432 0.717197 0.216439
H31   H     H_    0.179416 0.650606 0.821338 0.265616
H32   H     H_    0.276663 0.613123 0.871447 0.264410
H33   H     H_    0.220212 0.551231 0.878124 0.264706
H34   H     H_    0.786039 0.117108 0.053110 0.151863
H35   H     H_    0.800015 0.580012 0.575652 0.144692
H36   H     H_    0.856148 0.588521 0.535933 0.099095
H37   H     H_    0.900243 0.481610 0.719469 0.218368
H38   H     H_    0.958666 0.477465 0.684925 0.242730
H39   H     H_    0.957577 0.609289 0.636745 0.265887
H40   H     H_    0.990663 0.551066 0.746663 0.260984
H41   H     H_    0.898204 0.614489 0.670670 0.265968
H42   H     H_    0.684455 0.265532 0.055956 0.151250
H43   H     H_    0.717347 0.382065 0.946799 0.140107
H44   H     H_    0.818610 0.233029 0.943341 0.139944
H45   H     H_    0.247659 0.501692 0.609064 0.174566
H46   H     H_    0.176022 0.525946 0.436500 0.156836
O1    O     O_R   0.590490 0.448940 0.499990 -0.619602
O2    O     O_R   0.034710 0.555670 0.569560 -0.578338
O3    O     O_R   0.874770 0.534770 0.430450 -0.647587
O4    O     O_R   0.590420 0.551070 0.499980 -0.629756
O5    O     O_R   0.944330 0.465210 0.569580 -0.611369
O6    O     O_R   0.965290 0.444330 0.430440 -0.616754
O7    O     O_R   0.034850 0.374760 0.569570 -0.624146
O8    O     O_R   0.055670 0.534790 0.430420 -0.624090
O9    O     O_R   0.125230 0.465230 0.569550 -0.613054
O10   O     O_R   0.438430 0.510550 0.376780 -0.620684
O11   O     O_R   0.438360 0.612680 0.376770 -0.618418
O12   O     O_R   0.948920 0.909510 0.500030 -0.627793
O13   O     O_R   0.409580 0.448930 0.500020 -0.624386
O14   O     O_R   0.409510 0.551060 0.500010 -0.616572
O15   O     O_R   0.561640 0.387320 0.623230 -0.613794
O16   O     O_R   0.561570 0.489450 0.623220 -0.620718
O17   O     O_R   0.051050 0.909420 0.500010 -0.616687
O18   O     O_3   0.876535 0.289527 0.055746 -0.647522
O19   O     O_3   0.120282 0.621933 0.633329 -0.624682
O20   O     O_3   0.823804 0.488747 0.576109 -0.629774
O21   O     O_R   0.112670 0.938280 0.623210 -0.620621
O22   O     O_R   0.010540 0.938370 0.623230 -0.617888
O23   O     O_R   0.051080 0.090340 0.499970 -0.622573
O24   O     O_R   0.948950 0.090430 0.499990 -0.617192
O25   O     O_R   0.989460 0.061480 0.376770 -0.610455
O26   O     O_R   0.887330 0.061570 0.376790 -0.624290
O27   O     O_R   0.965150 0.625240 0.430430 -0.631602
Zn1   Zn    Zn3+2 0.500050 0.431810 0.500010 0.957711
Zn2   Zn    Zn3+2 0.499950 0.568190 0.499990 0.952348
Zn3   Zn    Zn3+2 0.068190 0.999870 0.499990 0.962027
Zn4   Zn    Zn3+2 0.931810 0.999990 0.500010 0.952009
Zn5   Zn    Zn3+2 0.953560 0.546450 0.407100 0.946137
Zn6   Zn    Zn3+2 0.046440 0.453550 0.592900 0.965250

loop_
_geom_bond_atom_site_label_1
_geom_bond_atom_site_label_2
_ccdc_geom_bond_type
C29   O26   A    
C11   C18   S    
C34   C56   S    
C43   H11   S    
C23   C45   S    
C46   C59   T    
C27   O24   A    
O5    Zn6   S    
C35   C36   D    
C23   H15   S    
C12   C48   S    
C3    H18   S    
C51   H24   S    
C28   O16   A    
C39   C41   D    
C4    C46   S    
C53   C54   S    
C7    C11   S    
O2    Zn6   S    
C1    C5    S    
O3    Zn5   S    
C35   C37   S    
C16   O13   A    
C28   O15   A    
O4    Zn2   S    
C29   O25   A    
C21   C33   S    
C57   H38   S    
C40   C48   S    
C49   H20   S    
C54   H32   S    
C22   H2    S    
C12   C59   S    
C11   C15   S    
C9    C19   T    
O22   Zn4   S    
C45   C56   S    
C30   O27   A    
C53   H30   S    
C32   C41   S    
O6    Zn5   S    
C58   H41   S    
O7    Zn6   S    
C15   H43   S    
C2    C61   D    
C9    C29   S    
C13   O18   S    
C2    O20   S    
C7    H23   S    
C47   C60   T    
O26   Zn4   S    
C16   C24   S    
C13   C14   S    
C34   C60   S    
C14   C17   S    
C4    O11   A    
C52   H28   S    
C25   O12   A    
C51   H25   S    
C50   H22   S    
C39   C42   S    
C20   H45   S    
C3    C61   S    
C33   O8    A    
C56   H13   S    
C30   O2    A    
O17   Zn3   S    
C52   H27   S    
C58   H39   S    
O1    Zn1   S    
C51   H26   S    
O27   Zn5   S    
C52   O19   S    
C55   H35   S    
C44   H1    S    
O25   Zn3   S    
C8    C18   T    
C2    C31   S    
C48   H16   S    
C35   O19   S    
O21   Zn3   S    
C54   H31   S    
C37   C38   D    
C25   C38   S    
C6    C14   S    
C44   C56   S    
C61   H17   S    
C31   O5    A    
C23   C34   S    
C55   H36   S    
C50   C51   S    
C39   H8    S    
C58   H40   S    
C26   O21   A    
C21   H46   S    
C26   O22   A    
C24   H4    S    
C26   C47   S    
C38   H7    S    
C6    H34   S    
C13   C15   S    
C32   O6    A    
C22   C24   D    
C4    O10   A    
C42   C43   D    
C20   C22   S    
O10   Zn1   S    
O11   Zn2   S    
C52   C53   S    
C50   H21   S    
C15   C17   S    
C16   O14   A    
C33   O9    A    
C23   C48   S    
O12   Zn4   S    
C14   C19   S    
C55   O20   S    
C12   C45   S    
C3    C5    D    
C10   C13   S    
C7    C17   S    
C6    C10   S    
C6    C7    S    
C49   O18   S    
C40   H3    S    
C49   H19   S    
C30   C36   S    
O16   Zn2   S    
C45   H14   S    
O13   Zn1   S    
C55   C57   S    
C17   H42   S    
C12   C44   S    
O24   Zn4   S    
C1    O4    A    
C57   C58   S    
C8    C28   S    
C57   H37   S    
C37   H6    S    
C42   H10   S    
C31   O3    A    
C36   H5    S    
O14   Zn2   S    
C5    H12   S    
C25   O17   A    
O15   Zn1   S    
C54   H33   S    
C10   C11   S    
C1    O1    A    
C27   C43   S    
C40   C44   S    
C20   C21   D    
C49   C50   S    
C53   H29   S    
C27   O23   A    
C34   C40   S    
C10   H44   S    
C32   O7    A    
O8    Zn5   S    
O23   Zn3   S    
C41   H9    S    
O9    Zn6   S    
