data_mof_unit_44180.cif
_audit_creation_date              2013-03-05T15:50:14-0500
_audit_creation_method            fapswitch 2.2
_symmetry_space_group_name_H-M    P1
_symmetry_Int_Tables_number       1
_space_group_crystal_system       triclinic
_cell_length_a                    15.179531
_cell_length_b                    15.161399
_cell_length_c                    34.637175
_cell_angle_alpha                 91.47708
_cell_angle_beta                  90.019454
_cell_angle_gamma                 60.54996
_cell_volume                      6938.45814201

loop_
_atom_site_label
_atom_site_type_symbol
_atom_site_description
_atom_site_fract_x
_atom_site_fract_y
_atom_site_fract_z
_atom_type_partial_charge
O1    O     O_R   0.502070 0.323090 0.541280 -0.445626
O2    O     O_R   0.338340 0.520690 0.539540 -0.466373
C1    C     C_R   0.298380 0.611039 0.554779 0.562795
O3    O     O_R   0.324760 0.674070 0.543580 -0.455101
O4    O     O_R   0.522400 0.640310 0.540110 -0.457594
C2    C     C_R   0.611782 0.590798 0.554446 0.576862
O5    O     O_R   0.675940 0.500630 0.542210 -0.437385
O6    O     O_R   0.641790 0.337020 0.538150 -0.448773
C3    C     C_R   0.589253 0.301056 0.553832 0.582890
O7    O     O_R   0.500260 0.324550 0.456580 -0.534504
O8    O     O_R   0.336660 0.522040 0.461020 -0.521482
C4    C     C_R   0.297868 0.610026 0.446651 0.565980
O9    O     O_R   0.322940 0.675540 0.458880 -0.448440
O10   O     O_R   0.520720 0.641670 0.461580 -0.500777
C5    C     C_R   0.608037 0.589546 0.445493 0.552835
O11   O     O_R   0.674120 0.502090 0.457500 -0.460503
O12   O     O_R   0.640110 0.338380 0.459630 -0.434763
C6    C     C_R   0.589809 0.299958 0.444347 0.558737
Cr1   Cr    Cr6+3 0.421670 0.426920 0.499620 1.072335
Cr2   Cr    Cr6+3 0.427030 0.651190 0.500980 1.170956
Cr3   Cr    Cr6+3 0.651280 0.421870 0.499380 1.219426
O13   O     O_3   0.499990 0.499990 0.499990 -0.315865
N1    N     N_R   0.682685 0.583188 0.771347 -0.193937
N2    N     N_R   0.680964 0.578578 0.733000 -0.072505
C7    C     C_R   0.635190 0.631210 0.590326 -0.025864
C8    C     C_R   0.728626 0.571398 0.608941 0.167887
C9    C     C_R   0.733405 0.581082 0.649490 0.205768
C10   C     C_R   0.648833 0.657423 0.669969 -0.031805
C11   C     C_R   0.565506 0.729008 0.649969 -0.122760
C12   C     C_R   0.558372 0.718203 0.610119 0.160662
N3    N     N_R   0.612847 0.754120 0.731251 -0.181784
N4    N     N_R   0.614822 0.758640 0.769595 -0.172123
C13   C     C_R   0.649493 0.673439 0.790390 0.343421
C14   C     C_R   0.646819 0.663727 0.712303 0.394109
C15   C     C_R   0.739260 0.596871 0.850531 -0.167448
C16   C     C_R   0.761991 0.604467 0.889189 0.098271
C17   C     C_R   0.612260 0.772151 0.894099 0.146821
C18   C     C_R   0.590718 0.764579 0.854981 0.163784
C19   C     C_R   0.658120 0.678109 0.832663 -0.063120
C20   C     C_R   0.704077 0.696779 0.910192 -0.008176
H1    H     H_    0.504361 0.792159 0.665694 0.194713
H2    H     H_    0.788122 0.528237 0.833916 0.171743
C21   C     C_R   0.715949 0.097681 0.912003 -0.069177
C22   C     C_R   0.619304 0.147522 0.895398 0.167510
C23   C     C_R   0.610347 0.175648 0.856713 0.184167
C24   C     C_R   0.698298 0.147576 0.834318 -0.052491
C25   C     C_R   0.792784 0.110672 0.852461 0.103791
C26   C     C_R   0.797704 0.100183 0.892945 0.115035
C27   C     C_R   0.685719 0.246676 0.776057 0.099173
C28   C     C_R   0.680189 0.256885 0.735816 0.210792
C29   C     C_R   0.677842 0.181445 0.711777 -0.021835
C30   C     C_R   0.686354 0.092283 0.727605 0.199566
C31   C     C_R   0.693986 0.081101 0.768059 0.127390
C32   C     C_R   0.691188 0.159446 0.792102 -0.003281
C33   C     C_R   0.567552 0.220109 0.654583 0.154049
C34   C     C_R   0.548590 0.241008 0.615300 0.214343
C35   C     C_R   0.718234 0.218382 0.606242 0.149494
C36   C     C_R   0.738856 0.193888 0.645518 0.231408
C37   C     C_R   0.661745 0.198432 0.669843 0.033878
C38   C     C_R   0.621087 0.247751 0.591338 -0.062198
C39   C     C_R   0.108066 0.682831 0.913818 -0.057335
C40   C     C_R   0.146269 0.736058 0.892980 0.169635
C41   C     C_R   0.173846 0.710094 0.853640 0.059824
C42   C     C_R   0.155166 0.638025 0.834431 -0.040913
C43   C     C_R   0.128804 0.576704 0.856182 0.195923
C44   C     C_R   0.119890 0.590719 0.896904 0.102680
C45   C     C_R   0.252605 0.576792 0.771433 0.155684
C46   C     C_R   0.258344 0.587128 0.731452 0.184995
C47   C     C_R   0.169427 0.640842 0.710291 -0.056203
C48   C     C_R   0.074861 0.692714 0.729625 0.126038
C49   C     C_R   0.069263 0.688068 0.770255 0.165209
C50   C     C_R   0.159088 0.632670 0.791409 0.062023
C51   C     C_R   0.191076 0.726084 0.653073 0.137813
C52   C     C_R   0.212992 0.724031 0.613558 0.149225
C53   C     C_R   0.199498 0.571468 0.603057 0.160095
C54   C     C_R   0.177507 0.572728 0.642770 0.156527
C55   C     C_R   0.177964 0.647558 0.667998 0.014384
C56   C     C_R   0.231279 0.638826 0.589757 -0.014310
C57   C     C_R   0.685268 0.708434 0.086715 -0.047346
C58   C     C_R   0.592250 0.782474 0.103636 0.163199
C59   C     C_R   0.577072 0.779305 0.143918 0.202600
C60   C     C_R   0.648286 0.695976 0.165109 0.016463
C61   C     C_R   0.727227 0.611003 0.145331 0.248159
C62   C     C_R   0.743272 0.616146 0.105816 0.099388
C63   C     C_R   0.623209 0.620052 0.224244 0.235616
C64   C     C_R   0.629960 0.607765 0.264324 0.108848
C65   C     C_R   0.638516 0.679078 0.288565 0.010251
C66   C     C_R   0.641227 0.762392 0.272806 0.255799
C67   C     C_R   0.648732 0.767602 0.232202 0.237936
C68   C     C_R   0.638458 0.695930 0.207892 0.001148
C69   C     C_R   0.545727 0.727403 0.352005 0.195882
C70   C     C_R   0.541238 0.706036 0.390674 -0.095791
C71   C     C_R   0.716548 0.574580 0.388534 -0.082130
C72   C     C_R   0.725178 0.596163 0.349986 0.195089
C73   C     C_R   0.637349 0.669343 0.330916 0.013788
C74   C     C_R   0.624120 0.626110 0.408477 -0.059252
H3    H     H_    0.469465 0.747596 0.405977 0.200277
H4    H     H_    0.781531 0.515591 0.402786 0.217041
C75   C     C_R   0.695881 0.109357 0.087485 -0.074403
C76   C     C_R   0.764837 0.138587 0.102246 0.108448
C77   C     C_R   0.758236 0.169056 0.141646 0.196418
C78   C     C_R   0.680107 0.173188 0.165308 -0.068360
C79   C     C_R   0.601701 0.160851 0.148515 0.149312
C80   C     C_R   0.607289 0.134627 0.109104 0.156612
C81   C     C_R   0.609722 0.260172 0.229741 0.150239
C82   C     C_R   0.606093 0.253848 0.270031 0.193015
C83   C     C_R   0.677830 0.166487 0.288605 -0.075595
C84   C     C_R   0.757081 0.086038 0.267420 0.184044
C85   C     C_R   0.762526 0.094493 0.227010 0.137245
C86   C     C_R   0.685822 0.178252 0.208121 0.069398
C87   C     C_R   0.740982 0.195246 0.351224 0.159043
C88   C     C_R   0.720551 0.226832 0.390272 0.231377
C89   C     C_R   0.577191 0.196763 0.389959 -0.112552
C90   C     C_R   0.597677 0.162304 0.351234 0.198092
C91   C     C_R   0.675782 0.168622 0.331267 0.090838
C92   C     C_R   0.632433 0.236397 0.408620 -0.034135
H5    H     H_    0.514221 0.198535 0.405215 0.143091
C93   C     C_R   0.085246 0.711569 0.094732 0.007008
C94   C     C_R   0.109273 0.616273 0.109488 0.109938
C95   C     C_R   0.120397 0.602212 0.149789 0.142627
C96   C     C_R   0.123429 0.677237 0.174043 0.023977
C97   C     C_R   0.119404 0.764186 0.157878 0.167443
C98   C     C_R   0.100794 0.780834 0.118085 0.069349
C99   C     C_R   0.214987 0.656636 0.236249 0.106392
C100  C     C_R   0.214818 0.661172 0.276833 0.203648
C101  C     C_R   0.128462 0.677453 0.298063 -0.018917
C102  C     C_R   0.042008 0.687925 0.278809 0.199971
C103  C     C_R   0.044499 0.677059 0.238100 0.187374
C104  C     C_R   0.128887 0.666639 0.216707 0.003312
C105  C     C_R   0.173014 0.573186 0.356617 0.171014
C106  C     C_R   0.219792 0.554233 0.392786 0.111508
C107  C     C_R   0.171365 0.733281 0.400361 0.170555
C108  C     C_R   0.128006 0.750311 0.363525 0.242502
C109  C     C_R   0.138111 0.668488 0.340385 0.039380
C110  C     C_R   0.227823 0.632816 0.413419 -0.039486
O14   O     O_R   0.017640 0.822070 0.960410 -0.440978
O15   O     O_R   0.822000 0.989470 0.960340 -0.515624
C111  C     C_R   0.734177 0.031185 0.945312 0.549926
O16   O     O_R   0.666920 0.007430 0.955290 -0.422137
O17   O     O_R   0.694410 0.812480 0.959650 -0.450672
C112  C     C_R   0.744214 0.721351 0.945792 0.559145
O18   O     O_R   0.831550 0.656950 0.958960 -0.479305
O19   O     O_R   0.998590 0.685540 0.963930 -0.513764
C113  C     C_R   0.042075 0.730961 0.949078 0.549571
O20   O     O_R   0.008220 0.831200 0.045060 -0.476015
O21   O     O_R   0.813270 0.997930 0.038810 -0.486018
C114  C     C_R   0.722084 0.041302 0.052433 0.563455
O22   O     O_R   0.657500 0.016560 0.039940 -0.430266
O23   O     O_R   0.685680 0.820940 0.038120 -0.435097
C115  C     C_R   0.731142 0.731963 0.053155 0.568752
O24   O     O_R   0.822130 0.666070 0.043610 -0.527156
O25   O     O_R   0.989860 0.694000 0.042400 -0.476940
C116  C     C_R   0.028582 0.745141 0.057802 0.567192
Cr4   Cr    Cr6+3 0.910810 0.908010 0.001130 1.093587
Cr5   Cr    Cr6+3 0.682800 0.909890 0.998370 1.231946
Cr6   Cr    Cr6+3 0.908370 0.682300 0.002180 1.029352
O26   O     O_3   0.833990 0.833400 0.000560 -0.299946
N5    N     N_R   0.818946 0.509975 0.586042 0.106174
O27   O     O_R   0.890564 0.423806 0.597934 -0.208681
O28   O     O_R   0.832439 0.543809 0.553682 -0.317128
N6    N     N_2   0.880821 0.095976 0.914501 -0.449496
H6    H     H_    0.868263 0.105264 0.943887 0.271304
C117  C     C_3   0.922468 0.159139 0.902282 -0.223785
H7    H     H_    0.956488 0.178420 0.927277 0.139916
H8    H     H_    0.862724 0.231334 0.890394 0.129976
H9    H     H_    0.984201 0.117413 0.880734 0.230136
N7    N     N_R   0.837626 0.164693 0.660703 0.113495
O29   O     O_R   0.879193 0.092049 0.685110 -0.389108
O30   O     O_R   0.884363 0.214085 0.651958 -0.180938
N8    N     N_R   0.682426 0.341794 0.719348 0.109385
O31   O     O_R   0.615366 0.397600 0.694344 -0.284615
O32   O     O_R   0.753147 0.362530 0.729065 -0.205416
N9    N     N_2   0.692514 0.321581 0.799875 -0.472807
H10   H     H_    0.735731 0.295731 0.824235 0.255007
C118  C     C_3   0.598549 0.414336 0.807379 -0.249683
H11   H     H_    0.614496 0.470617 0.822268 0.154416
H12   H     H_    0.548627 0.399773 0.826411 0.161985
H13   H     H_    0.559543 0.447158 0.780034 0.237951
N10   N     N_R   0.511911 0.232172 0.840459 0.080415
O33   O     O_R   0.484687 0.193141 0.812205 -0.375722
O34   O     O_R   0.444195 0.314847 0.858064 -0.370841
N11   N     N_R   0.691985 0.011678 0.702483 0.068071
O35   O     O_R   0.656291 0.953907 0.713511 -0.324394
O36   O     O_R   0.736162 0.992838 0.668725 -0.341536
N12   N     N_2   0.718127 0.985741 0.783806 -0.510178
H14   H     H_    0.777498 0.957891 0.802712 0.239207
C119  C     C_3   0.634507 0.974998 0.798054 -0.152931
H15   H     H_    0.613482 0.006814 0.827914 0.184326
H16   H     H_    0.658428 0.893373 0.799063 0.168245
H17   H     H_    0.567866 0.012025 0.779022 0.241267
N13   N     N_2   0.488219 0.227985 0.679214 -0.467311
H18   H     H_    0.485676 0.253697 0.707243 0.250054
C120  C     C_3   0.459401 0.150293 0.674717 -0.178417
H19   H     H_    0.471523 0.109786 0.702150 0.169593
H20   H     H_    0.503691 0.094016 0.651327 0.212499
H21   H     H_    0.377813 0.186399 0.667797 0.200276
N14   N     N_R   0.452817 0.259744 0.600603 0.110911
O37   O     O_R   0.448792 0.196137 0.575694 -0.288749
O38   O     O_R   0.369518 0.331769 0.616011 -0.286628
N15   N     N_2   0.881848 0.087226 0.830590 -0.512916
H22   H     H_    0.872040 0.124799 0.805244 0.276555
C121  C     C_3   0.956524 0.980998 0.826971 -0.275729
H23   H     H_    0.029646 0.973887 0.817638 0.168670
H24   H     H_    0.933426 0.943029 0.804709 0.128764
H25   H     H_    0.967367 0.942678 0.854869 0.204188
N16   N     N_R   0.474536 0.796975 0.590198 0.112409
O39   O     O_R   0.489741 0.826240 0.557067 -0.270734
O40   O     O_R   0.388575 0.852664 0.608173 -0.284953
N17   N     N_R   0.797772 0.207805 0.580971 0.116363
O41   O     O_R   0.832796 0.136755 0.554148 -0.259848
O42   O     O_R   0.821874 0.279034 0.580141 -0.194409
N18   N     N_R   0.163806 0.810904 0.912330 0.108890
O43   O     O_R   0.212950 0.789873 0.944626 -0.294908
O44   O     O_R   0.129806 0.900434 0.898269 -0.335171
N19   N     N_2   0.131397 0.508911 0.920256 -0.468543
H26   H     H_    0.116486 0.524950 0.949249 0.265757
C122  C     C_3   0.227365 0.416020 0.915264 -0.202251
H27   H     H_    0.229000 0.357334 0.934271 0.180336
H28   H     H_    0.290721 0.429631 0.923256 0.167719
H29   H     H_    0.238876 0.385617 0.885138 0.243553
N20   N     N_2   0.165140 0.492539 0.657554 -0.496123
H30   H     H_    0.199953 0.465060 0.683498 0.286306
C123  C     C_3   0.062863 0.509733 0.656807 -0.240056
H31   H     H_    0.015539 0.570347 0.678192 0.190113
H32   H     H_    0.062775 0.439102 0.664431 0.228042
H33   H     H_    0.030124 0.531499 0.627631 0.178424
N21   N     N_R   0.356058 0.545964 0.712894 0.089276
O45   O     O_R   0.378974 0.486638 0.682353 -0.302620
O46   O     O_R   0.424121 0.564780 0.727654 -0.292059
N22   N     N_2   0.340473 0.503129 0.790366 -0.500174
H34   H     H_    0.342001 0.510501 0.819948 0.263615
C124  C     C_3   0.375199 0.399568 0.777086 -0.181846
H35   H     H_    0.341320 0.365040 0.795460 0.250446
H36   H     H_    0.458712 0.355728 0.778237 0.174902
H37   H     H_    0.353545 0.394096 0.746881 0.163318
N23   N     N_2   0.223628 0.753516 0.833190 -0.510008
H38   H     H_    0.185554 0.831281 0.832064 0.290382
C125  C     C_3   0.330654 0.709681 0.840756 -0.203913
H39   H     H_    0.372148 0.696356 0.812951 0.208088
H40   H     H_    0.361637 0.635880 0.855264 0.132751
H41   H     H_    0.343919 0.762025 0.859748 0.226930
N24   N     N_2   0.985481 0.755219 0.708749 -0.503847
H42   H     H_    0.985670 0.737874 0.679778 0.258566
C126  C     C_3   0.938685 0.862722 0.717589 -0.208344
H43   H     H_    0.925636 0.904594 0.690528 0.205682
H44   H     H_    0.986060 0.881819 0.736750 0.134776
H45   H     H_    0.865539 0.887348 0.732369 0.234282
N25   N     N_2   0.973007 0.741433 0.789550 -0.529071
H46   H     H_    0.973809 0.764287 0.817756 0.232711
C127  C     C_3   0.907610 0.697735 0.784304 -0.227510
H47   H     H_    0.834401 0.746127 0.799579 0.131849
H48   H     H_    0.942776 0.620955 0.796379 0.209243
H49   H     H_    0.891803 0.692825 0.753290 0.226910
N26   N     N_2   0.192070 0.802212 0.678108 -0.493435
H50   H     H_    0.209817 0.785141 0.706657 0.269190
C128  C     C_3   0.117305 0.906889 0.671803 -0.205123
H51   H     H_    0.076733 0.943707 0.699273 0.158407
H52   H     H_    0.060752 0.913367 0.650009 0.188246
H53   H     H_    0.155997 0.948237 0.661809 0.223697
N27   N     N_2   0.844108 0.519409 0.906370 -0.452901
H54   H     H_    0.898381 0.469865 0.886909 0.297405
C129  C     C_3   0.813257 0.466682 0.932695 -0.272577
H55   H     H_    0.881130 0.405259 0.946403 0.152109
H56   H     H_    0.773229 0.432501 0.916749 0.129486
H57   H     H_    0.762689 0.519214 0.955895 0.171364
N28   N     N_R   0.221032 0.807299 0.598799 -0.114303
O47   O     O_R   0.167392 0.856915 0.569530 -0.000003
O48   O     O_R   0.167390 0.856916 0.569530 -0.000003
N29   N     N_R   0.108014 0.502497 0.837696 0.079662
O49   O     O_R   0.045169 0.478945 0.853730 -0.325829
O50   O     O_R   0.149128 0.459456 0.804606 -0.351930
N30   N     N_2   0.193996 0.500038 0.576768 -0.454237
H58   H     H_    0.193753 0.438914 0.588941 0.325031
C130  C     C_3   0.117934 0.544432 0.547304 -0.274612
H59   H     H_    0.041222 0.585539 0.560797 0.169577
H60   H     H_    0.121924 0.483620 0.527580 0.164997
H61   H     H_    0.130596 0.597607 0.529793 0.157097
N31   N     N_R   0.510870 0.850618 0.079173 0.111656
O51   O     O_R   0.428024 0.925392 0.093746 -0.200182
O52   O     O_R   0.509695 0.824653 0.043135 -0.280684
N32   N     N_2   0.816268 0.526947 0.085240 -0.454583
H62   H     H_    0.799516 0.518249 0.057007 0.264992
C131  C     C_3   0.922012 0.493398 0.092510 -0.201971
H63   H     H_    0.962071 0.488281 0.065006 0.149084
H64   H     H_    0.958132 0.416966 0.104955 0.199042
H65   H     H_    0.930799 0.546604 0.112695 0.174713
N33   N     N_R   0.822236 0.540752 0.330511 0.086200
O53   O     O_R   0.843640 0.576910 0.300524 -0.230176
O54   O     O_R   0.892918 0.456574 0.344355 -0.311113
N34   N     N_2   0.621673 0.526549 0.280326 -0.446635
H66   H     H_    0.574915 0.545777 0.304294 0.307130
C132  C     C_3   0.716106 0.432429 0.283740 -0.158441
H67   H     H_    0.734398 0.415580 0.314655 0.176709
H68   H     H_    0.780240 0.434724 0.269175 0.222646
H69   H     H_    0.708129 0.369988 0.270060 0.199052
N35   N     N_R   0.602642 0.553966 0.199966 0.104240
O55   O     O_R   0.655366 0.456519 0.203381 -0.253969
O56   O     O_R   0.538801 0.589827 0.171829 -0.370631
N36   N     N_R   0.492659 0.861825 0.163815 0.126770
O57   O     O_R   0.485010 0.951138 0.165270 -0.148508
O58   O     O_R   0.432828 0.844865 0.185386 -0.308506
N37   N     N_R   0.631279 0.843391 0.298151 0.137574
O59   O     O_R   0.691695 0.824666 0.327207 -0.217924
O60   O     O_R   0.548127 0.930106 0.297614 -0.253228
N38   N     N_R   0.824216 0.516773 0.669832 0.103898
O61   O     O_R   0.854456 0.420519 0.671688 -0.169987
O62   O     O_R   0.861310 0.556946 0.693859 -0.374591
N39   N     N_R   0.672152 0.840941 0.215954 0.127844
O63   O     O_R   0.720658 0.821865 0.183176 -0.342948
O64   O     O_R   0.653223 0.923548 0.234971 -0.232054
N40   N     N_R   0.455465 0.805668 0.334637 0.130557
O65   O     O_R   0.433409 0.797106 0.298932 -0.288469
O66   O     O_R   0.389619 0.882123 0.355732 -0.246288
N41   N     N_R   0.792521 0.519458 0.165096 0.106588
O67   O     O_R   0.810087 0.431991 0.150812 -0.216031
O68   O     O_R   0.837234 0.522445 0.196697 -0.266372
N42   N     N_R   0.840169 0.136991 0.076627 -0.171999
O69   O     O_R   0.864225 0.208377 0.078087 -0.000002
O70   O     O_R   0.864224 0.208377 0.078087 -0.000002
N43   N     N_R   0.524527 0.129108 0.091603 0.137470
O71   O     O_R   0.475851 0.188214 0.063455 -0.281308
O72   O     O_R   0.500516 0.062265 0.102574 -0.178131
N44   N     N_2   0.538932 0.124441 0.331762 -0.431295
H70   H     H_    0.549506 0.110824 0.302372 0.314668
C133  C     C_3   0.437478 0.155182 0.345552 -0.213232
H71   H     H_    0.398419 0.130774 0.324259 0.205584
H72   H     H_    0.393015 0.238864 0.349513 0.156407
H73   H     H_    0.440624 0.118244 0.373164 0.177457
N45   N     N_R   0.529649 0.336629 0.292577 0.114331
O73   O     O_R   0.443048 0.340570 0.297529 -0.391129
O74   O     O_R   0.555738 0.385833 0.317060 -0.334982
N46   N     N_2   0.542818 0.352027 0.211351 -0.436280
H74   H     H_    0.566756 0.361927 0.184778 0.299894
C134  C     C_3   0.436564 0.382861 0.212525 -0.214152
H75   H     H_    0.405376 0.403285 0.183107 0.125166
H76   H     H_    0.396647 0.449965 0.231991 0.226168
H77   H     H_    0.422378 0.322384 0.223132 0.210066
N47   N     N_R   0.836086 0.185347 0.158490 0.126565
O75   O     O_R   0.813316 0.256473 0.184720 -0.250913
O76   O     O_R   0.930998 0.121587 0.151108 -0.276755
N48   N     N_R   0.828522 0.996090 0.286901 0.100682
O77   O     O_R   0.923554 0.947568 0.276833 -0.285646
O78   O     O_R   0.798991 0.963206 0.315740 -0.205940
N49   N     N_2   0.846520 0.022065 0.204702 -0.498789
H78   H     H_    0.915853 0.009193 0.214083 0.352652
C135  C     C_3   0.841041 0.934501 0.191169 -0.153711
H79   H     H_    0.906029 0.888087 0.171438 0.172253
H80   H     H_    0.770562 0.958327 0.174689 0.200186
H81   H     H_    0.843212 0.888987 0.216064 0.263889
N50   N     N_2   0.819257 0.202933 0.331090 -0.512043
H82   H     H_    0.811099 0.216731 0.302019 0.241404
C136  C     C_3   0.922865 0.137719 0.342375 -0.130371
H83   H     H_    0.963006 0.077879 0.319731 0.223578
H84   H     H_    0.927561 0.101475 0.370270 0.236231
H85   H     H_    0.961584 0.183355 0.345376 0.200282
N51   N     N_R   0.785712 0.256035 0.410100 0.090730
O79   O     O_R   0.836422 0.205988 0.439822 -0.259004
O80   O     O_R   0.799785 0.327872 0.397000 -0.315755
N52   N     N_R   0.519857 0.167415 0.171717 0.100271
O81   O     O_R   0.427028 0.217948 0.159939 -0.307240
O82   O     O_R   0.538429 0.114535 0.202633 -0.264050
N53   N     N_2   0.122581 0.535307 0.083633 -0.514142
H86   H     H_    0.120461 0.475200 0.095751 0.250118
C137  C     C_3   0.207656 0.500249 0.057058 -0.264518
H87   H     H_    0.209181 0.441019 0.037074 0.165627
H88   H     H_    0.279611 0.467172 0.073282 0.170001
H89   H     H_    0.201549 0.563036 0.039396 0.149306
N54   N     N_2   0.090399 0.871010 0.101931 -0.467782
H90   H     H_    0.056553 0.935548 0.119347 0.330539
C138  C     C_3   0.178087 0.857746 0.080427 -0.181655
H91   H     H_    0.243771 0.834359 0.099772 0.204247
H92   H     H_    0.160771 0.930287 0.067127 0.193640
H93   H     H_    0.198504 0.799273 0.056980 0.163951
N55   N     N_R   0.070860 0.851291 0.350091 0.131966
O83   O     O_R   0.985823 0.914229 0.367230 -0.266457
O84   O     O_R   0.103488 0.880748 0.321140 -0.238102
N56   N     N_R   0.305218 0.643144 0.296680 0.064736
O85   O     O_R   0.390206 0.561090 0.289152 -0.287842
O86   O     O_R   0.304969 0.712242 0.319754 -0.269098
N57   N     N_2   0.303619 0.638287 0.215155 -0.516135
H94   H     H_    0.313364 0.607590 0.187535 0.247814
C139  C     C_3   0.340257 0.709590 0.220953 -0.079245
H95   H     H_    0.350973 0.735300 0.192582 0.217741
H96   H     H_    0.414135 0.671759 0.235588 0.220826
H97   H     H_    0.286953 0.777063 0.238769 0.244125
N58   N     N_2   0.114062 0.520571 0.166678 -0.477523
H98   H     H_    0.064230 0.500970 0.154315 0.278904
C140  C     C_3   0.208041 0.435747 0.178153 -0.273045
H99   H     H_    0.262165 0.406104 0.153336 0.183768
H100  H     H_    0.194408 0.374494 0.188243 0.203958
H101  H     H_    0.238955 0.459574 0.202658 0.126390
N59   N     N_R   0.949743 0.714112 0.299776 0.163897
O87   O     O_R   0.862815 0.771088 0.283967 -0.185626
O88   O     O_R   0.950699 0.684741 0.334798 -0.248156
N60   N     N_R   0.965210 0.666847 0.219360 0.113154
O89   O     O_R   0.937437 0.605260 0.233173 -0.209399
O90   O     O_R   0.927317 0.710030 0.186935 -0.344315
N61   N     N_2   0.153188 0.499382 0.338131 -0.459107
H102  H     H_    0.137128 0.455762 0.356074 0.299569
C141  C     C_3   0.211166 0.445799 0.303839 -0.245434
H103  H     H_    0.255832 0.363459 0.309161 0.173506
H104  H     H_    0.263632 0.472794 0.295032 0.194610
H105  H     H_    0.158638 0.457178 0.279784 0.173844
N62   N     N_2   0.263566 0.453653 0.406278 -0.509836
H106  H     H_    0.341287 0.412481 0.407762 0.292268
C142  C     C_3   0.205704 0.433409 0.434434 -0.265430
H107  H     H_    0.243389 0.418352 0.462867 0.166756
H108  H     H_    0.201527 0.365252 0.424747 0.165892
H109  H     H_    0.127303 0.497988 0.437907 0.166797
N63   N     N_R   0.127900 0.838879 0.182000 0.063357
O91   O     O_R   0.083983 0.865869 0.215787 -0.312007
O92   O     O_R   0.181189 0.879523 0.170616 -0.302172
N64   N     N_R   0.159059 0.818029 0.423966 0.121090
O93   O     O_R   0.177526 0.886059 0.409808 -0.216881
O94   O     O_R   0.123913 0.830269 0.459126 -0.270569
N65   N     N_R   0.537322 0.852537 0.918116 0.117602
O95   O     O_R   0.493253 0.831266 0.945689 -0.260166
O96   O     O_R   0.525345 0.943404 0.916696 -0.212854
N66   N     N_R   0.499574 0.843294 0.838426 0.099832
O97   O     O_R   0.444283 0.820474 0.816164 -0.338360
O98   O     O_R   0.474372 0.938100 0.843573 -0.251005
N67   N     N_R   0.530371 0.170506 0.917830 0.131045
O99   O     O_R   0.518006 0.210669 0.952448 -0.304408
O100  O     O_R   0.460018 0.154649 0.903416 -0.202448

loop_
_geom_bond_atom_site_label_1
_geom_bond_atom_site_label_2
_geom_bond_distance
_ccdc_geom_bond_type
C81   C86   1.406996 A    
C61   N41   1.439868 S    
C101  C102  1.411426 A    
C64   N34   1.423648 S    
C33   C37   1.406455 A    
C123  H31   1.106974 S    
C65   C66   1.407795 A    
C27   N9    1.431030 S    
C90   C91   1.417301 A    
C123  H33   1.110256 S    
C118  H12   1.109011 S    
C22   C23   1.402884 A    
C77   C78   1.416724 A    
C53   N30   1.430760 S    
C18   N66   1.441642 S    
C117  H8    1.112195 S    
C30   N11   1.449301 S    
C89   C90   1.404699 A    
C59   N36   1.435913 S    
O4    C2    1.291571 A    
C2    C7    1.490196 S    
C82   C83   1.406843 A    
C127  H48   1.108555 S    
O19   C113  1.280656 A    
C128  H53   1.109571 S    
C126  H43   1.108004 S    
C93   C116  1.495835 S    
C130  H59   1.111097 S    
C44   N19   1.435856 S    
N14   O38   1.299528 A    
C15   H2    1.083794 S    
N11   O35   1.300273 A    
N26   C128  1.449482 S    
C125  H39   1.109196 S    
O25   Cr6   1.924625 S    
N30   H58   1.029626 S    
C4    C110  1.494400 S    
N15   H22   1.029428 S    
N24   C126  1.445968 S    
N33   O54   1.301781 A    
C94   N53   1.431543 S    
O9    Cr2   2.052277 S    
C85   N49   1.417261 S    
C127  H49   1.109200 S    
N9    C118  1.445224 S    
N64   O94   1.301398 A    
Cr3   O13   2.000329 S    
C105  C109  1.404812 A    
N54   H90   1.029930 S    
N6    C117  1.453358 S    
N25   C127  1.448369 S    
C35   N17   1.432730 S    
C121  H23   1.108563 S    
N44   H70   1.030233 S    
C66   N37   1.436579 S    
O17   C112  1.284454 A    
N59   O88   1.300589 A    
C5    C74   1.476749 S    
N16   O39   1.301618 A    
N41   O67   1.301164 A    
C63   N35   1.439624 S    
N2    C14   1.355993 A    
C33   N13   1.430492 S    
N58   C140  1.438361 S    
N19   H26   1.025807 S    
C17   C18   1.408758 A    
C39   C113  1.504525 S    
C118  H11   1.110413 S    
O21   Cr4   1.918044 S    
C94   C95   1.415035 A    
C136  H83   1.108871 S    
C124  H36   1.105978 S    
N62   H106  1.030348 S    
N22   C124  1.450463 S    
C72   N33   1.444213 S    
C95   N58   1.427606 S    
C141  H104  1.105432 S    
N35   O55   1.297524 A    
N29   O50   1.300149 A    
C21   C22   1.409170 A    
N5    O27   1.299669 A    
C142  H108  1.109509 S    
O21   C114  1.288567 A    
C75   C114  1.493012 S    
C87   C88   1.405571 A    
O2    Cr1   1.914315 S    
C63   C68   1.411865 A    
C2    O5    1.287713 A    
C62   N32   1.428963 S    
C126  H45   1.103276 S    
N65   O95   1.300790 A    
C132  H68   1.112667 S    
C105  C106  1.404845 A    
C7    C8    1.419328 A    
C42   C43   1.412180 A    
C134  H77   1.110692 S    
O7    C6    1.288470 A    
C8    N5    1.443328 S    
O23   Cr5   1.937526 S    
C47   C48   1.410992 A    
C51   N26   1.431737 S    
O3    Cr2   2.037930 S    
N18   O43   1.301339 A    
C101  C109  1.476284 S    
N15   C121  1.445344 S    
C120  H19   1.110280 S    
N52   O81   1.301206 A    
C40   N18   1.437173 S    
O18   Cr6   2.039218 S    
C85   C86   1.408806 A    
N57   H94   1.031074 S    
C84   N48   1.443552 S    
O11   Cr3   2.051742 S    
C47   C55   1.481188 S    
C114  O22   1.281412 A    
C108  N55   1.429503 S    
C103  C104  1.417928 A    
C138  H91   1.110399 S    
C106  N62   1.423182 S    
N7    O30   1.300034 A    
O4    Cr2   1.932697 S    
C22   N67   1.439356 S    
C63   C64   1.402467 A    
C84   C85   1.414971 A    
C82   N45   1.431638 S    
N20   H30   1.030967 S    
N8    O32   1.300269 A    
C17   C20   1.423121 A    
C57   C62   1.416554 A    
N12   C119  1.445373 S    
N8    O31   1.300927 A    
C136  H85   1.109555 S    
C70   C74   1.403694 A    
C137  H87   1.110696 S    
C45   C50   1.414014 A    
C133  H72   1.110439 S    
N55   O83   1.299732 A    
C41   N23   1.421177 S    
N3    N4    1.329238 A    
N23   C125  1.447989 S    
C140  H99   1.110571 S    
N38   O62   1.300544 A    
C65   C73   1.479104 S    
O15   Cr4   1.946871 S    
C83   C84   1.408896 A    
O22   Cr5   2.026284 S    
C76   N42   1.438065 S    
N9    H10   1.029438 S    
C20   C112  1.493134 S    
C131  H65   1.110844 S    
N45   O74   1.300043 A    
N22   H34   1.029340 S    
N39   O64   1.299536 A    
C70   H3    1.083069 S    
N17   O41   1.300700 A    
N48   O78   1.301159 A    
N37   O60   1.300565 A    
C78   C79   1.415137 A    
N46   H74   1.030889 S    
C99   N57   1.429495 S    
C98   N54   1.426334 S    
C67   N39   1.449337 S    
C69   C70   1.395618 A    
C134  H75   1.109088 S    
C122  H27   1.110938 S    
C121  H25   1.110481 S    
N44   C133  1.449217 S    
N43   O72   1.299030 A    
C11   C12   1.396229 A    
C135  H80   1.109541 S    
C61   C62   1.401120 A    
O16   Cr5   2.057826 S    
C120  H21   1.109441 S    
N51   O80   1.300808 A    
O12   C6    1.274274 A    
N3    C14   1.354169 A    
C66   C67   1.418416 A    
N63   O91   1.299648 A    
N28   O48   1.301199 A    
C89   H5    1.080736 S    
O20   Cr4   2.062629 S    
N21   O46   1.300833 A    
C103  N60   1.439255 S    
C60   C61   1.414908 A    
N47   O76   1.301368 A    
N40   O66   1.301589 A    
N67   O99   1.301518 A    
N61   C141  1.446809 S    
C90   N44   1.436180 S    
C1    O3    1.272618 A    
C139  H95   1.107404 S    
C88   C92   1.420976 A    
C30   C31   1.413615 A    
C135  H81   1.108644 S    
N13   H18   1.030393 S    
C51   C55   1.410369 A    
C11   H1    1.083720 S    
N27   H54   1.031079 S    
C123  H32   1.110169 S    
C129  H55   1.110493 S    
C54   N20   1.425532 S    
N32   C131  1.449859 S    
C137  H89   1.110074 S    
C49   C50   1.416477 A    
C97   N63   1.446334 S    
C35   C36   1.413502 A    
C140  H101  1.105313 S    
C76   C77   1.417024 A    
C126  H44   1.111750 S    
C130  H60   1.110460 S    
C16   N27   1.424560 S    
N14   O37   1.301203 A    
N11   O36   1.301327 A    
N56   O86   1.299712 A    
C69   C73   1.416462 A    
C41   C42   1.408576 A    
C4    O9    1.288719 A    
N30   C130  1.448468 S    
C27   C28   1.404281 A    
C131  H63   1.110664 S    
N31   O51   1.300195 A    
O25   C116  1.287585 A    
N5    O28   1.301756 A    
C33   C34   1.402486 A    
N64   O93   1.301313 A    
C77   N47   1.441157 S    
Cr5   O26   2.001234 S    
C130  H61   1.110151 S    
C51   C52   1.404585 A    
C15   C16   1.398578 A    
C129  H57   1.111551 S    
N54   C138  1.448003 S    
N6    H6    1.028849 S    
C23   C24   1.410722 A    
C95   C96   1.415603 A    
C122  H29   1.108157 S    
C125  H41   1.110499 S    
O8    Cr1   1.949567 S    
C8    C9    1.413959 A    
C121  H24   1.106510 S    
C10   C11   1.394993 A    
N66   O98   1.300125 A    
C79   N52   1.440198 S    
O10   C5    1.280459 A    
N16   O40   1.301238 A    
N41   O68   1.299245 A    
C21   C111  1.486415 S    
N34   H66   1.030749 S    
N42   O70   1.301172 A    
C119  H17   1.110518 S    
N66   O97   1.300024 A    
C46   C47   1.404068 A    
C87   N50   1.432682 S    
C136  H84   1.108786 S    
C48   C49   1.415558 A    
C107  N64   1.436757 S    
N35   O56   1.301190 A    
C75   C80   1.412508 A    
C10   C14   1.466313 S    
N29   O49   1.300579 A    
C58   N31   1.449417 S    
C49   N25   1.430564 S    
C141  H105  1.109697 S    
C118  H13   1.108830 S    
C125  H40   1.112235 S    
N50   H82   1.028746 S    
O1    Cr1   2.067972 S    
C45   C46   1.405218 A    
O10   Cr2   1.922273 S    
C117  H9    1.108415 S    
O1    C3    1.274513 A    
Cr4   O26   1.983852 S    
C6    C92   1.484773 S    
N7    O29   1.300029 A    
C64   C65   1.407859 A    
C141  H103  1.109792 S    
C35   C38   1.415988 A    
C26   N6    1.440853 S    
C139  H97   1.111681 S    
C36   C37   1.415310 A    
C31   C32   1.416217 A    
C29   C30   1.418123 A    
N65   O96   1.300240 A    
C15   C19   1.401478 A    
N36   O57   1.300591 A    
N13   C120  1.449230 S    
C40   C41   1.413384 A    
O14   Cr4   2.036126 S    
N33   O53   1.299887 A    
O7    Cr1   2.028733 S    
C24   C32   1.475335 S    
C28   C29   1.411996 A    
C28   N8    1.436881 S    
C13   C19   1.472993 S    
O24   Cr6   2.042000 S    
N50   C136  1.447154 S    
C96   C97   1.419130 A    
C57   C115  1.493187 S    
C17   N65   1.434040 S    
N18   O44   1.300430 A    
C108  C109  1.402370 A    
C78   C86   1.487640 S    
C102  C103  1.413785 A    
N25   H46   1.030220 S    
N57   C139  1.448535 S    
C34   N14   1.433239 S    
C7    C12   1.418064 A    
C24   C25   1.411887 A    
Cr6   O26   1.997310 S    
C96   C104  1.488464 S    
N59   O87   1.300093 A    
C138  H92   1.110268 S    
N60   O89   1.299534 A    
C81   C82   1.404224 A    
C60   C68   1.489466 S    
C3    C38   1.497980 S    
N4    C13   1.357806 A    
N58   H98   1.028656 S    
C127  H47   1.109877 S    
C119  H15   1.107850 S    
O14   C113  1.291541 A    
O5    Cr3   2.028463 S    
O23   C115  1.299164 A    
N12   H14   1.029086 S    
C18   C19   1.411530 A    
N53   C137  1.448481 S    
C124  H35   1.107099 S    
C137  H88   1.111636 S    
C99   C104  1.413884 A    
C93   C98   1.418656 A    
C133  H71   1.110766 S    
N55   O84   1.300498 A    
C138  H93   1.111058 S    
C111  O16   1.288288 A    
O17   Cr5   1.911284 S    
N10   O33   1.299632 A    
C34   C38   1.423367 A    
C140  H100  1.110489 S    
N38   O61   1.300239 A    
C52   C56   1.420603 A    
C79   C80   1.402754 A    
C142  H107  1.109964 S    
C67   C68   1.426030 A    
C1    C56   1.495096 S    
C5    O11   1.287472 A    
O12   Cr3   1.909907 S    
N40   O65   1.301011 A    
C71   C72   1.404226 A    
C131  H64   1.109095 S    
N60   O90   1.299228 A    
N45   O73   1.297477 A    
C117  H7    1.112094 S    
C53   C54   1.413017 A    
C100  N56   1.438943 S    
C59   C60   1.416944 A    
O19   Cr6   1.924568 S    
C46   N21   1.439585 S    
N48   O77   1.298973 A    
N23   H38   1.028574 S    
N26   H50   1.030448 S    
C132  H67   1.110480 S    
N62   C142  1.448403 S    
C106  C110  1.429674 A    
N19   C122  1.451095 S    
C134  H76   1.102527 S    
C27   C32   1.412348 A    
C12   N16   1.438500 S    
C31   N12   1.428858 S    
C93   C94   1.414746 A    
N49   H78   1.025860 S    
C39   C44   1.427305 A    
N21   O45   1.301003 A    
C45   N22   1.424341 S    
C107  C108  1.406072 A    
N1    C13   1.355378 A    
C142  H109  1.112500 S    
C88   N51   1.435456 S    
C43   N29   1.444748 S    
C21   C26   1.423179 A    
N63   O92   1.300941 A    
C89   C92   1.398990 A    
O20   C116  1.275062 A    
N67   O100  1.301310 A    
C39   C40   1.413841 A    
N24   H42   1.030449 S    
C105  N61   1.430641 S    
C80   N43   1.432811 S    
C25   C26   1.413142 A    
C16   C20   1.413853 A    
Cr1   O13   1.983745 S    
C54   C55   1.416829 A    
N27   C129  1.447675 S    
O6    C3    1.292872 A    
C129  H56   1.112407 S    
C120  H20   1.112222 S    
N32   H62   1.031750 S    
C124  H37   1.109791 S    
N53   H86   1.027734 S    
C9    N38   1.435408 S    
C128  H52   1.112142 S    
C133  H73   1.109927 S    
C75   C76   1.413338 A    
N1    N2    1.329169 A    
C128  H51   1.109578 S    
O6    Cr3   1.936609 S    
C72   C73   1.423849 A    
N52   O82   1.300288 A    
C102  N59   1.444154 S    
C36   N7    1.441990 S    
N36   O58   1.299703 A    
C83   C91   1.477221 S    
N56   O85   1.298194 A    
N49   C135  1.437223 S    
N47   O75   1.300380 A    
C71   C74   1.396750 A    
N31   O52   1.301912 A    
C25   N15   1.429066 S    
C29   C37   1.480852 S    
N39   O63   1.299628 A    
N37   O59   1.300989 A    
C81   N46   1.425181 S    
C139  H96   1.107091 S    
C115  O24   1.281179 A    
C132  H69   1.106793 S    
Cr2   O13   1.995572 S    
C58   C59   1.420104 A    
O8    C4    1.278894 A    
C69   N40   1.443862 S    
C122  H28   1.111811 S    
O15   C111  1.278899 A    
N43   O71   1.301144 A    
O2    C1    1.291847 A    
N20   C123  1.442674 S    
C112  O18   1.291757 A    
C48   N24   1.425488 S    
C52   N28   1.433485 S    
C135  H79   1.108359 S    
C100  C101  1.411763 A    
C107  C110  1.418022 A    
N51   O79   1.301359 A    
N17   O42   1.300389 A    
N34   C132  1.449914 S    
C42   C50   1.489863 S    
N42   O69   1.301173 A    
C53   C56   1.413076 A    
C119  H16   1.106769 S    
N28   O47   1.301197 A    
C23   N10   1.431498 S    
C57   C58   1.416103 A    
N46   C134  1.441953 S    
C43   C44   1.417540 A    
C9    C10   1.409980 A    
N61   H102  1.030954 S    
C87   C91   1.413611 A    
C97   C98   1.410962 A    
C71   H4    1.082356 S    
C99   C100  1.405566 A    
N10   O34   1.301411 A    
