data_mof_unit_11567.cif
_audit_creation_date              2013-03-05T15:52:28-0500
_audit_creation_method            fapswitch 2.2
_symmetry_space_group_name_H-M    P1
_symmetry_Int_Tables_number       1
_space_group_crystal_system       triclinic
_cell_length_a                    27.809989
_cell_length_b                    10.859912
_cell_length_c                    9.568378
_cell_angle_alpha                 90.356511
_cell_angle_beta                  89.847563
_cell_angle_gamma                 92.555652
_cell_volume                      2886.84610103

loop_
_atom_site_label
_atom_site_type_symbol
_atom_site_description
_atom_site_fract_x
_atom_site_fract_y
_atom_site_fract_z
_atom_type_partial_charge
O1    O     O_R   0.500000 0.319640 0.618810 -0.587427
O2    O     O_R   0.500000 0.319660 0.381240 -0.579796
C1    C     C_R   0.503849 0.263064 0.500338 0.810873
O3    O     O_R   0.430260 0.500010 0.618770 -0.580675
O4    O     O_R   0.430270 0.500030 0.381200 -0.577983
C2    C     C_R   0.407471 0.499759 0.500217 0.821057
Cu1   Cu    Cu3+1 0.500000 0.499990 0.640660 0.927472
Cu2   Cu    Cu3+1 0.500000 0.500010 0.359340 0.936704
O5    O     O_R   0.500000 0.680340 0.618760 -0.613178
O6    O     O_R   0.500000 0.680360 0.381190 -0.598154
O7    O     O_R   0.569730 0.499970 0.618800 -0.604871
O8    O     O_R   0.569740 0.499990 0.381230 -0.599867
C3    C     C_R   0.497330 0.737621 0.501555 0.786424
C4    C     C_R   0.592511 0.500796 0.499826 0.775702
C5    C     C_R   0.176032 0.394380 0.490182 0.584153
O9    O     O_2   0.199025 0.287572 0.485502 -0.527718
N1    N     N_R   0.202026 0.503976 0.498866 -0.449152
C6    C     C_R   0.180016 0.614036 0.501573 0.596838
C7    C     C_R   0.279049 0.513196 0.377565 -0.109939
C8    C     C_R   0.329023 0.511525 0.376061 -0.188228
C9    C     C_R   0.329003 0.490405 0.628007 -0.250620
C10   C     C_R   0.278467 0.491766 0.631520 0.012620
C11   C     C_R   0.253531 0.503531 0.503651 0.287852
C12   C     C_R   0.101937 0.504715 0.492375 -0.040282
C13   C     C_R   0.125542 0.392678 0.486832 -0.018516
C14   C     C_R   0.098402 0.281599 0.479665 -0.142889
C15   C     C_R   0.129592 0.616453 0.499288 -0.019755
C16   C     C_R   0.354470 0.500376 0.501231 -0.071397
H1    H     H_    0.348686 0.481784 0.724763 0.192672
H2    H     H_    0.115678 0.194124 0.477033 0.186709
C17   C     C_R   0.645483 0.502634 0.499096 -0.036698
C18   C     C_R   0.972449 0.392447 0.473801 0.043179
C19   C     C_R   0.976520 0.618306 0.508895 0.043903
C20   C     C_R   0.949233 0.505450 0.491860 0.068209
C21   C     C_R   0.943518 0.283843 0.449591 -0.204117
C22   C     C_R   0.893616 0.285459 0.448860 -0.143691
C23   C     C_R   0.870466 0.395225 0.471787 -0.021494
C24   C     C_R   0.898094 0.505563 0.493105 -0.044018
C25   C     C_R   0.874446 0.615981 0.515826 -0.019955
C26   C     C_R   0.823920 0.613908 0.517397 0.533895
N2    N     N_R   0.797910 0.505646 0.496129 -0.469721
C27   C     C_R   0.820027 0.397370 0.473325 0.535026
C28   C     C_R   0.721513 0.515673 0.623799 -0.103136
C29   C     C_R   0.671331 0.513947 0.624971 -0.224587
C30   C     C_R   0.670749 0.493497 0.372221 -0.217566
C31   C     C_R   0.720892 0.494609 0.371478 -0.105502
C32   C     C_R   0.746386 0.505607 0.497154 0.361865
O10   O     O_2   0.793255 0.292050 0.453117 -0.533197
C33   C     C_R   0.023510 0.391608 0.479906 0.043599
C34   C     C_R   0.050806 0.505006 0.491298 0.068164
C35   C     C_R   0.027603 0.618678 0.502052 0.043260
C36   C     C_R   0.048466 0.280773 0.476447 -0.201357
H3    H     H_    0.652856 0.521659 0.724210 0.162101
H4    H     H_    0.741116 0.524143 0.721263 0.139108
H5    H     H_    0.873196 0.199644 0.430191 0.188899
H6    H     H_    0.958222 0.195659 0.428132 0.138211
H7    H     H_    0.030537 0.190876 0.474295 0.135997
O11   O     O_2   0.206879 0.720530 0.507886 -0.525624
C37   C     C_R   0.106477 0.727876 0.503786 -0.140413
H8    H     H_    0.347697 0.519397 0.276814 0.172113
H9    H     H_    0.259857 0.521775 0.279986 0.157698
H10   H     H_    0.126930 0.815142 0.506879 0.189837
C38   C     C_R   0.951530 0.727123 0.533822 -0.204265
C39   C     C_R   0.901574 0.725719 0.537022 -0.146136
O12   O     O_2   0.800933 0.719248 0.539034 -0.535457
C40   C     C_R   0.056563 0.729262 0.504933 -0.200533
H11   H     H_    0.969450 0.815253 0.554376 0.137719
H12   H     H_    0.651832 0.484973 0.273599 0.164015
H13   H     H_    0.884268 0.811634 0.556463 0.186556
H14   H     H_    0.740012 0.487031 0.273284 0.138851
H15   H     H_    0.041870 0.819308 0.505647 0.136796
H16   H     H_    0.498187 0.109494 0.279125 0.161956
C41   C     C_R   0.531092 0.122397 0.755119 -0.151779
H17   H     H_    0.550636 0.210633 0.754169 0.163978
C42   C     C_R   0.525378 0.064437 0.883904 -0.154806
H18   H     H_    0.538167 0.110259 0.978415 0.137869
C43   C     C_R   0.501576 0.949623 0.891199 -0.134026
H19   H     H_    0.494529 0.907260 0.991768 0.140183
C44   C     C_R   0.487988 0.887546 0.768614 -0.151541
H20   H     H_    0.467744 0.801336 0.781340 0.172426
C45   C     C_R   0.498542 0.939526 0.635568 0.094157
C46   C     C_R   0.513022 0.065349 0.631025 0.097860
C47   C     C_R   0.508160 0.129263 0.503100 -0.118340
C48   C     C_R   0.500796 0.063047 0.378530 -0.201292
H21   H     H_    0.493600 0.887321 0.280947 0.164600
C49   C     C_R   0.496661 0.935845 0.380027 -0.203868
C50   C     C_R   0.495442 0.872304 0.507026 -0.110494
H22   H     H_    0.445819 0.359788 0.128874 0.144981
C51   C     C_R   0.564025 0.664102 0.144929 -0.162911
H23   H     H_    0.567296 0.671686 0.255037 0.203830
C52   C     C_R   0.595181 0.744453 0.072805 -0.217351
H24   H     H_    0.619550 0.807217 0.129361 0.163986
C53   C     C_R   0.595196 0.744355 0.928857 -0.194750
H25   H     H_    0.619482 0.807247 0.872695 0.165009
C54   C     C_R   0.563994 0.664058 0.856220 -0.155689
H26   H     H_    0.566932 0.672227 0.746153 0.204032
C55   C     C_R   0.531438 0.580764 0.925401 0.193971
C56   C     C_R   0.531439 0.580743 0.075177 0.206931
N3    N     N_R   0.500460 0.501210 0.147910 -0.200436
C57   C     C_R   0.470205 0.422918 0.073666 -0.063866
H27   H     H_    0.445859 0.359804 0.869767 0.151747
C58   C     C_R   0.470223 0.422944 0.925563 -0.060857
N4    N     N_R   0.500480 0.501290 0.852040 -0.205965
C59   C     C_2   0.253141 0.480842 0.769055 0.873854
O13   O     O_2   0.275687 0.456089 0.874133 -0.606017
O14   O     O_R   0.203852 0.499365 0.780282 -0.757186
H28   H     H_    0.191326 0.489188 0.879341 0.339641

loop_
_geom_bond_atom_site_label_1
_geom_bond_atom_site_label_2
_geom_bond_distance
_ccdc_geom_bond_type
C43   H19   1.082830 S    
C53   H25   1.083015 S    
C54   H26   1.060076 S    
N2    C27   1.367174 A    
C7    C8    1.390724 A    
C12   C15   1.408695 A    
C4    C17   1.472378 S    
C42   H18   1.082701 S    
C59   O14   1.398011 S    
C55   C56   1.433110 A    
Cu1   Cu2   2.691777 S    
H21   C49   1.083479 S    
Cu1   O7    1.949894 S    
C25   C39   1.395763 A    
N1    C11   1.433434 S    
C22   C23   1.395711 A    
Cu2   N3    2.023168 S    
C48   C49   1.381223 A    
C37   C40   1.388862 A    
O4    C2    1.301890 A    
O7    C4    1.301217 A    
C5    C13   1.403867 A    
C52   C53   1.377345 A    
O14   H28   1.013929 S    
C5    O9    1.349687 S    
C56   N3    1.382198 A    
C10   C59   1.493833 S    
N1    C6    1.367015 A    
C41   H17   1.080434 S    
C23   C27   1.403960 A    
O5    C3    1.289727 A    
O1    Cu1   1.968418 S    
C29   H3    1.083017 S    
C6    O11   1.349671 S    
C2    C16   1.474266 S    
C40   H15   1.076490 S    
C8    H8    1.083163 S    
C19   C38   1.416064 A    
C53   C54   1.387293 A    
Cu1   N4    2.022602 S    
C9    C10   1.406453 A    
C41   C42   1.392707 A    
O3    Cu1   1.951312 S    
C59   O13   1.223948 D    
H27   C58   1.081756 S    
C45   C46   1.408095 A    
C43   C44   1.393864 A    
C12   C34   1.422162 A    
C38   H11   1.076430 S    
H16   C48   1.083499 S    
C17   C29   1.406185 A    
C18   C21   1.415970 A    
C12   C13   1.408680 A    
O3    C2    1.300793 A    
C52   H24   1.083005 S    
C44   C45   1.420421 A    
C49   C50   1.400750 A    
C27   O10   1.349815 S    
C8    C16   1.401383 A    
C34   C35   1.421274 A    
C13   C14   1.395562 A    
C30   C31   1.393998 A    
C9    H1    1.083431 S    
C44   H20   1.078130 S    
O1    C1    1.292488 A    
C21   C22   1.388726 A    
C18   C20   1.421325 A    
C7    C11   1.400184 A    
C28   C29   1.394847 A    
C23   C24   1.408358 A    
C14   C36   1.388757 A    
C55   N4    1.381399 A    
C28   H4    1.082822 S    
C47   C48   1.399018 A    
Cu2   O8    1.951307 S    
C33   C36   1.416139 A    
C3    C50   1.466527 S    
C30   H12   1.083069 S    
C57   C58   1.417115 A    
C19   C20   1.421189 A    
N2    C32   1.432865 S    
C45   C50   1.427204 A    
C39   H13   1.083605 S    
C42   C43   1.387420 A    
H22   C57   1.081727 S    
C26   N2    1.367080 A    
C9    C16   1.405351 A    
O8    C4    1.300781 A    
C33   C34   1.421299 A    
C26   O12   1.349746 S    
C1    C47   1.463729 S    
C51   C52   1.387547 A    
C41   C46   1.418615 A    
C25   C26   1.404348 A    
Cu1   O5    1.971059 S    
C31   C32   1.399347 A    
C37   H10   1.083616 S    
C21   H6    1.076356 S    
C20   C24   1.422254 A    
O2    Cu2   1.971059 S    
C6    C15   1.403921 A    
O6    C3    1.308958 A    
O4    Cu2   1.949897 S    
C54   C55   1.416822 A    
C14   H2    1.083638 S    
C19   C35   1.421765 A    
N3    C57   1.366511 A    
C51   C56   1.417311 A    
O2    C1    1.305026 A    
C22   H5    1.083600 S    
C15   C37   1.395669 A    
C24   C25   1.408535 A    
C7    H9    1.083254 S    
C58   N4    1.366494 A    
C18   C33   1.421811 A    
C31   H14   1.082851 S    
C36   H7    1.076361 S    
C38   C39   1.388943 A    
Cu2   O6    1.968418 S    
C46   C47   1.420616 A    
C17   C30   1.406243 A    
C10   C11   1.417228 A    
C51   H23   1.060089 S    
C5    N1    1.366909 A    
C28   C32   1.399822 A    
C35   C40   1.416010 A    
