data_mof_unit_55682.cif
_audit_creation_date              2013-03-05T16:04:34-0500
_audit_creation_method            fapswitch 2.2
_symmetry_space_group_name_H-M    P1
_symmetry_Int_Tables_number       1
_space_group_crystal_system       triclinic
_cell_length_a                    8.229696
_cell_length_b                    14.495479
_cell_length_c                    18.973814
_cell_angle_alpha                 98.540649
_cell_angle_beta                  91.275485
_cell_angle_gamma                 92.562762
_cell_volume                      2235.15484102

loop_
_atom_site_label
_atom_site_type_symbol
_atom_site_description
_atom_site_fract_x
_atom_site_fract_y
_atom_site_fract_z
_atom_type_partial_charge
P1    P     P_3+3 0.061800 0.409390 0.339760 0.532450
O1    O     O_2   0.887710 0.436190 0.327560 -0.351787
O2    O     O_3   0.135370 0.443490 0.416520 -0.347148
O3    O     O_3   0.634420 0.609440 0.364670 -0.390887
O4    O     O_2   0.773058 0.543639 0.246100 -0.381145
O5    O     O_3   0.999147 0.289480 0.326535 -0.590356
O6    O     O_3   0.662406 0.709526 0.250538 -0.501634
H1    H     H_    0.662122 0.781573 0.353263 0.129216
C1    C     C_3   0.602723 0.870267 0.276519 -0.993023
H2    H     H_    0.731482 0.891464 0.268826 0.269448
H3    H     H_    0.533582 0.867113 0.225279 0.300842
P2    P     P_3+3 0.622760 0.718740 0.547830 0.493936
P3    P     P_3+3 0.064752 0.779741 0.396818 0.475576
O7    O     O_2   0.795290 0.730930 0.525800 -0.376021
O8    O     O_3   0.044470 0.660110 0.398750 -0.351606
O9    O     O_2   0.933433 0.825823 0.445009 -0.384752
O10   O     O_3   0.662227 0.763648 0.638121 -0.623179
O11   O     O_3   0.003184 0.799342 0.311723 -0.515516
C2    C     C_3   0.137158 0.792448 0.267256 0.163285
H4    H     H_    0.190661 0.722907 0.265320 0.091077
H5    H     H_    0.229899 0.849342 0.286282 0.060947
C3    C     C_3   0.079856 0.803746 0.192061 -0.051731
H6    H     H_    0.003046 0.741306 0.168355 0.129294
H7    H     H_    0.004660 0.865996 0.194687 0.151707
C4    C     C_3   0.023958 0.756993 0.662147 0.421081
H8    H     H_    0.919434 0.708437 0.643377 0.165629
C5    C     C_3   0.976604 0.818171 0.730457 -0.776491
H9    H     H_    0.082898 0.862025 0.754991 0.282901
H10   H     H_    0.879246 0.864659 0.719038 0.276939
H11   H     H_    0.931902 0.773290 0.769272 0.219603
Ba1   Ba    Ba6+2 0.843240 0.541620 0.463500 1.630755
C6    C     C_3   0.115893 0.228993 0.344461 0.702944
H12   H     H_    0.240077 0.257884 0.338432 -0.075933
C7    C     C_3   0.088041 0.132908 0.295078 -0.108944
H13   H     H_    0.182701 0.085614 0.309190 0.086999
C8    C     C_3   0.538682 0.740205 0.681906 0.589519
H14   H     H_    0.424979 0.723485 0.650613 0.059824
C9    C     C_3   0.512115 0.823072 0.741008 -0.178436
H15   H     H_    0.619399 0.835432 0.778397 0.153090
H16   H     H_    0.405220 0.805376 0.772172 0.122795
P4    P     P_3+3 0.127890 0.590690 0.660240 0.469868
O12   O     O_2   0.301980 0.563840 0.672490 -0.320931
O13   O     O_3   0.054330 0.556590 0.583490 -0.382330
O14   O     O_3   0.555270 0.390630 0.635330 -0.329030
O15   O     O_3   0.162784 0.711022 0.676684 -0.633974
P5    P     P_3+3 0.133891 0.223142 0.612216 0.631719
O16   O     O_3   0.637720 0.384870 0.467990 -0.361367
O17   O     O_3   0.145220 0.339960 0.601250 -0.359972
O18   O     O_2   0.277624 0.177513 0.571471 -0.280920
O19   O     O_3   0.177666 0.214728 0.701509 -0.461788
Ba2   Ba    Ba6+2 0.346570 0.458460 0.536510 1.655247
P6    P     P_3+3 0.623087 0.597656 0.272714 0.472348
C10   C     C_3   0.593196 0.775364 0.301620 0.561205
H17   H     H_    0.463614 0.755835 0.309405 -0.029238
H18   H     H_    0.550599 0.923441 0.316775 0.207054
O20   O     O_3   0.551980 0.615210 0.532020 -0.345804
C11   C     C_3   0.571401 0.273857 0.319780 0.253920
H19   H     H_    0.487091 0.330453 0.336461 0.055679
H20   H     H_    0.694231 0.305324 0.315719 0.153816
C12   C     C_3   0.514155 0.219330 0.246999 -0.344080
H21   H     H_    0.396398 0.183609 0.254271 0.211578
P7    P     P_3+3 0.579330 0.264843 0.456246 0.489891
O21   O     O_2   0.394410 0.269100 0.474240 -0.317973
O22   O     O_3   0.575938 0.209769 0.367806 -0.607193
C13   C     C_3   0.090444 0.281440 0.744501 0.463835
H22   H     H_    0.149709 0.351977 0.745281 0.110573
H23   H     H_    0.962029 0.281616 0.725264 -0.059461
C14   C     C_3   0.090903 0.258435 0.820149 -0.852394
H24   H     H_    0.217403 0.262425 0.842369 0.268890
H25   H     H_    0.018413 0.308684 0.854572 0.216572
H26   H     H_    0.036429 0.186952 0.820248 0.275746
P8    P     P_3+3 0.568795 0.402222 0.728079 0.518934
C15   C     C_3   0.615295 0.238043 0.763221 0.398507
H27   H     H_    0.727409 0.275548 0.788079 0.050679
O23   O     O_2   0.441080 0.472702 0.755010 -0.338070
O24   O     O_3   0.490475 0.299081 0.755235 -0.506413
H28   H     H_    0.653951 0.121178 0.820991 0.236412
C16   C     C_3   0.558468 0.171076 0.813857 -0.743768
H29   H     H_    0.444942 0.131386 0.792508 0.292414
H30   H     H_    0.534117 0.211308 0.866786 0.240772
C17   C     C_R   0.006024 0.453392 0.043777 -0.123054
C18   C     C_R   0.930351 0.393104 0.086466 0.251097
C19   C     C_R   0.774934 0.441646 0.955532 -0.142563
C20   C     C_R   0.939499 0.465319 0.975494 0.076401
C21   C     C_R   0.717596 0.440089 0.886073 -0.178026
C22   C     C_R   0.820436 0.466373 0.834029 -0.021831
C23   C     C_R   0.976486 0.507250 0.855361 0.011130
C24   C     C_R   0.036123 0.506926 0.926819 0.044504
C25   C     C_R   0.772193 0.452906 0.761420 0.192819
C26   C     C_R   0.877564 0.482694 0.711354 -0.375482
C27   C     C_R   0.019210 0.537478 0.732131 0.190253
C28   C     C_R   0.071586 0.548757 0.805565 -0.060884
C29   C     C_R   0.158398 0.496641 0.067713 0.029885
C30   C     C_R   0.217714 0.493715 0.139511 -0.043746
C31   C     C_R   0.119262 0.449986 0.188554 -0.007592
C32   C     C_R   0.977871 0.396875 0.158971 -0.002677
H31   H     H_    0.842876 0.468797 0.655332 0.184327
H32   H     H_    0.592172 0.416826 0.873823 0.168615
C33   C     C_R   0.215259 0.599160 0.831365 -0.036190
C34   C     C_R   0.275248 0.597512 0.900832 -0.155602
C35   C     C_R   0.191471 0.547379 0.948911 0.024482
C36   C     C_R   0.254210 0.539779 0.018929 0.099575
C37   C     C_R   0.414762 0.568318 0.039843 -0.185740
C38   C     C_R   0.376311 0.533388 0.161185 0.015275
C39   C     C_R   0.476578 0.565208 0.108414 0.108263
C40   C     C_R   0.427552 0.538751 0.234059 0.169866
C41   C     C_R   0.323867 0.503564 0.282754 -0.533512
C42   C     C_R   0.172795 0.457262 0.263027 0.239953
H33   H     H_    0.284861 0.639184 0.797891 0.178874
H34   H     H_    0.364577 0.510019 0.337965 0.175801
H35   H     H_    0.686771 0.424752 0.993298 0.170014
H36   H     H_    0.386946 0.638079 0.915788 0.156998
H37   H     H_    0.499140 0.591852 0.002858 0.119367
C43   C     C_R   0.704020 0.938917 0.538343 0.027573
C44   C     C_R   0.513482 0.800886 0.499009 0.197689
C45   C     C_R   0.367323 0.766577 0.463572 -0.492918
C46   C     C_R   0.266899 0.825188 0.432129 0.217919
C47   C     C_R   0.314864 0.918470 0.432761 -0.236092
C48   C     C_R   0.461039 0.955274 0.467334 0.080587
C49   C     C_R   0.561377 0.897532 0.501912 -0.016520
H38   H     H_    0.327579 0.694354 0.463353 0.174416
C50   C     C_R   0.642939 0.092097 0.507453 -0.056778
C51   C     C_R   0.747071 0.034877 0.540763 -0.113795
C52   C     C_R   0.681861 0.189476 0.512830 0.240416
C53   C     C_R   0.820428 0.227581 0.551999 -0.421786
C54   C     C_R   0.932923 0.170294 0.577905 0.166388
C55   C     C_R   0.894917 0.074522 0.574177 0.232387
C56   C     C_R   0.503498 0.050337 0.469520 -0.070829
H39   H     H_    0.235447 0.962823 0.408039 0.165814
H40   H     H_    0.847595 0.302024 0.556972 0.184960
H41   H     H_    0.781771 0.897475 0.566013 0.186611
H42   H     H_    0.424249 0.091568 0.442275 0.189044
N1    N     N_R   0.095255 0.216506 0.418472 0.200671
O25   O     O_R   0.131738 0.139222 0.440876 -0.488829
O26   O     O_R   0.058592 0.287450 0.464278 -0.354833
N2    N     N_R   0.103620 0.140693 0.219162 0.246183
O27   O     O_R   0.144200 0.219654 0.198158 -0.470000
O28   O     O_R   0.091202 0.065633 0.172014 -0.328240
N3    N     N_3   0.926861 0.090550 0.305983 -0.205758
H43   H     H_    0.923550 0.068926 0.356049 0.149790
H44   H     H_    0.908774 0.029053 0.269674 0.142478
N4    N     N_R   0.587556 0.658774 0.712237 0.214621
O29   O     O_R   0.610529 0.660498 0.780572 -0.482980
O30   O     O_R   0.627981 0.586467 0.668669 -0.364973
N5    N     N_R   0.485386 0.908915 0.711695 0.252959
O31   O     O_R   0.608146 0.954616 0.689029 -0.417588
O32   O     O_R   0.348877 0.949944 0.722113 -0.366922
N6    N     N_3   0.493763 0.282120 0.194476 -0.178559
H45   H     H_    0.407631 0.330072 0.212584 0.120475
H46   H     H_    0.443373 0.242768 0.147810 0.250065
N7    N     N_3   0.625051 0.146837 0.220379 -0.142642
H47   H     H_    0.610917 0.091714 0.249952 0.170386
H48   H     H_    0.744656 0.173244 0.228630 0.168484
N8    N     N_R   0.218651 0.815035 0.147150 0.240042
O33   O     O_R   0.239466 0.890234 0.117968 -0.310354
O34   O     O_R   0.320540 0.749066 0.134649 -0.433405
N9    N     N_3   0.651811 0.186336 0.693778 -0.215796
H49   H     H_    0.740874 0.139221 0.701258 0.121851
H50   H     H_    0.547385 0.147504 0.672272 0.213041
N10   N     N_3   0.885671 0.340515 0.200396 -0.141587
H51   H     H_    0.877779 0.272203 0.173750 0.199900
H52   H     H_    0.768679 0.365271 0.203380 0.157289
N11   N     N_3   0.644140 0.594141 0.122094 -0.151576
H53   H     H_    0.715106 0.550157 0.088347 0.087515
H54   H     H_    0.662447 0.661845 0.109936 0.171637
N12   N     N_R   0.825832 0.315794 0.053364 0.229350
O35   O     O_R   0.677598 0.304704 0.073950 -0.459033
O36   O     O_R   0.876982 0.258668 0.999864 -0.357402
N13   N     N_R   0.009167 0.018025 0.602841 0.232560
O37   O     O_R   0.135183 0.993232 0.565839 -0.379964
O38   O     O_R   0.012686 0.015519 0.671066 -0.382782
N14   N     N_3   0.062516 0.814367 0.607426 -0.145355
H55   H     H_    0.171642 0.852324 0.622801 0.208598
H56   H     H_    0.089298 0.769317 0.561326 0.132780

loop_
_geom_bond_atom_site_label_1
_geom_bond_atom_site_label_2
_geom_bond_distance
_ccdc_geom_bond_type
O5    C6    1.398900 S    
C23   C24   1.432358 A    
C29   C30   1.444064 A    
C5    H10   1.107654 S    
N13   O38   1.300088 A    
P4    O12   1.523175 D    
C31   C32   1.422736 A    
O7    Ba1   2.870095 S    
P8    O24   1.753170 S    
O16   P7    1.764355 S    
C38   C40   1.426503 A    
C17   C18   1.411255 A    
C26   C27   1.395946 A    
C10   H17   1.109800 S    
N11   H54   1.046255 S    
P5    O18   1.546978 D    
C35   C36   1.435852 A    
Ba1   O13   2.809210 S    
P3    O11   1.748440 S    
O3    P6    1.727673 S    
C3    H7    1.112481 S    
C8    H14   1.095047 S    
C37   H37   1.078271 S    
N6    H46   1.045868 S    
O6    P6    1.753040 S    
C7    H13   1.114246 S    
C14   H26   1.110718 S    
C18   N12   1.439048 S    
C6    N1    1.454979 S    
C16   H30   1.110978 S    
C11   H20   1.099313 S    
C40   C41   1.406431 A    
C44   C45   1.399076 A    
C33   H33   1.078898 S    
C15   N9    1.460337 S    
C7    N3    1.468474 S    
P1    Ba1   3.403096 S    
C45   C46   1.397207 A    
P1    O1    1.522784 D    
C15   H27   1.108573 S    
C8    N4    1.456079 S    
C47   C48   1.401997 A    
P7    O22   1.746979 S    
C21   H32   1.080779 S    
C53   H40   1.081919 S    
O17   Ba2   2.769119 S    
N11   H53   1.042247 S    
C14   H24   1.110276 S    
C13   H23   1.110603 S    
P2    O10   1.757634 S    
N7    H47   1.046236 S    
C39   N11   1.429984 S    
O4    P6    1.545353 D    
C1    H18   1.109419 S    
O10   C8    1.389231 S    
Ba1   O20   2.920464 S    
C1    H2    1.108904 S    
C26   H31   1.081516 S    
N8    O34   1.298826 A    
H28   C16   1.110923 S    
O12   Ba2   2.836617 S    
P2    C44   1.863072 S    
C48   C56   1.400701 A    
C53   C54   1.399287 A    
P6    C40   1.869509 S    
N9    H50   1.046331 S    
Ba1   O16   2.784053 S    
C23   C28   1.423688 A    
C5    H11   1.110816 S    
N12   O36   1.301483 A    
P4    O13   1.565769 S    
N12   O35   1.299588 A    
C36   C37   1.397657 A    
P8    O23   1.540932 D    
C56   H42   1.077683 S    
P7    C52   1.857045 S    
C38   C39   1.426921 A    
N5    O32   1.299848 A    
N14   H56   1.044943 S    
N5    O31   1.299449 A    
C3    H6    1.111909 S    
P5    O17   1.735157 S    
C18   C32   1.414318 A    
C45   H38   1.082151 S    
P1    O5    1.770457 S    
N13   O37   1.299381 A    
C20   C24   1.415711 A    
C2    C3    1.526816 S    
Ba2   O21   2.870420 S    
N6    H45   1.042886 S    
N2    O28   1.300539 A    
C27   C28   1.432895 A    
O2    Ba2   2.809751 S    
C16   H29   1.110780 S    
O11   C2    1.401322 S    
C11   C12   1.538568 S    
O16   Ba2   2.919699 S    
C4    H8    1.104512 S    
C21   C22   1.398819 A    
N9    H49   1.045336 S    
C12   H21   1.099367 S    
P1    O2    1.565965 S    
C12   N7    1.463167 S    
N10   H52   1.042244 S    
C29   C36   1.424718 A    
P4    C27   1.886965 S    
C9    N5    1.459691 S    
P7    O21   1.568961 D    
C17   C29   1.411224 A    
C51   C55   1.416875 A    
C19   C20   1.411526 A    
C7    N2    1.469409 S    
C15   C16   1.529862 S    
C13   C14   1.520999 S    
C37   C39   1.394121 A    
C43   H41   1.076575 S    
C48   C49   1.419054 A    
O2    Ba1   2.936396 S    
C1    H3    1.109468 S    
N8    O33   1.300348 A    
P2    O20   1.569004 S    
C43   C51   1.413749 A    
O14   Ba2   2.826215 S    
C19   C21   1.386561 A    
P2    O7    1.499296 D    
C34   H36   1.077871 S    
P3    O8    1.740574 S    
P2    Ba1   3.430737 S    
N1    O25   1.300657 A    
C15   O24   1.405402 S    
C19   H35   1.076676 S    
C1    C10   1.520533 S    
O6    C10   1.404648 S    
C41   C42   1.402261 A    
C50   C52   1.421566 A    
C4    O15   1.390707 S    
C17   C20   1.432337 A    
N14   H55   1.044436 S    
C4    N14   1.455300 S    
C11   O22   1.395647 S    
C3    N8    1.457967 S    
C32   N10   1.422247 S    
C22   C23   1.414844 A    
P5    C54   1.853829 S    
C24   C35   1.410714 A    
Ba2   O20   2.783536 S    
Ba1   Ba2   4.515167 S    
N2    O27   1.299092 A    
C22   C25   1.408036 A    
H1    C10   1.111082 S    
P3    C46   1.836224 S    
N3    H43   1.044129 S    
O8    Ba1   2.768557 S    
C4    C5    1.526496 S    
P5    O19   1.747331 S    
C33   C34   1.401069 A    
C6    H12   1.101862 S    
C2    H4    1.113888 S    
C8    C9    1.543540 S    
C50   C51   1.420206 A    
C13   H22   1.110917 S    
C47   H39   1.083527 S    
C46   C47   1.389795 A    
N10   H51   1.041376 S    
C9    H16   1.112372 S    
P8    C25   1.856542 S    
N3    H44   1.045271 S    
O13   Ba2   2.937164 S    
C11   H19   1.112735 S    
C9    H15   1.111369 S    
C54   C55   1.400400 A    
C55   N13   1.424407 S    
C34   C35   1.419767 A    
C41   H34   1.082058 S    
O14   P8    1.743355 S    
N4    O30   1.295628 A    
N7    H48   1.039973 S    
C50   C56   1.404645 A    
C30   C31   1.444641 A    
O19   C13   1.403443 S    
O3    Ba1   2.826882 S    
C31   C42   1.458001 A    
P1    C42   1.933450 S    
C30   C38   1.429034 A    
C14   H25   1.108112 S    
C44   C49   1.430980 A    
P3    O9    1.541859 D    
C5    H9    1.109162 S    
N1    O26   1.295330 A    
P4    O15   1.735476 S    
N4    O29   1.302509 A    
O1    Ba1   2.836111 S    
C12   N6    1.457850 S    
C25   C26   1.402089 A    
P4    Ba2   3.403540 S    
C43   C49   1.411901 A    
C28   C33   1.400787 A    
C6    C7    1.563526 S    
C52   C53   1.393512 A    
C2    H5    1.111755 S    
