data_mof_unit_30330.cif
_audit_creation_date              2012-12-10T22:11:08-0500
_audit_creation_method            fapswitch 2.2
_symmetry_space_group_name_H-M    P1
_symmetry_Int_Tables_number       1
_space_group_crystal_system       triclinic
_cell_length_a                    12.076326
_cell_length_b                    12.286307
_cell_length_c                    23.055385
_cell_angle_alpha                 90.889772
_cell_angle_beta                  90.027378
_cell_angle_gamma                 91.060956
_cell_volume                      3419.80711582

loop_
_atom_site_label
_atom_site_type_symbol
_atom_type_description
_atom_site_fract_x
_atom_site_fract_y
_atom_site_fract_z
_atom_type_partial_charge
C1    C     C_R   0.655729 0.998543 0.579796 0.883313
C2    C     C_R   0.344270 0.001456 0.420204 0.883313
C3    C     C_R   0.896743 0.773535 0.147051 -0.162432
C4    C     C_R   0.103257 0.226465 0.852948 -0.162432
C5    C     C_R   0.080906 0.911307 0.160563 -0.169800
C6    C     C_R   0.919095 0.088693 0.839437 -0.169799
C7    C     C_R   0.079503 0.835330 0.115414 -0.030794
C8    C     C_R   0.920498 0.164670 0.884586 -0.030795
C9    C     C_R   0.901105 0.136712 0.182314 -0.201997
C10   C     C_R   0.098895 0.863288 0.817686 -0.201997
C11   C     C_R   0.895148 0.228586 0.148565 -0.035772
C12   C     C_R   0.104852 0.771414 0.851435 -0.035771
C13   C     C_R   0.167600 0.905712 0.295439 0.003524
C14   C     C_R   0.832399 0.094287 0.704561 0.003525
C15   C     C_R   0.248339 0.909535 0.338650 -0.217249
C16   C     C_R   0.751661 0.090465 0.661350 -0.217249
C17   C     C_R   0.850391 0.101827 0.307910 -0.175067
C18   C     C_R   0.149609 0.898173 0.692090 -0.175067
C19   C     C_R   0.769584 0.100411 0.350151 -0.175730
C20   C     C_R   0.230416 0.899589 0.649849 -0.175730
C21   C     C_3   0.999054 0.006342 0.246932 -0.085433
C22   C     C_3   0.000946 0.993658 0.753068 -0.085432
C23   C     C_R   0.655340 0.001779 0.420829 0.871614
C24   C     C_R   0.344660 0.998221 0.579171 0.871614
C25   C     C_R   0.100527 0.999460 0.286970 0.030744
C26   C     C_R   0.899473 0.000539 0.713030 0.030744
C27   C     C_R   0.262554 0.001344 0.374367 -0.048126
C28   C     C_R   0.737446 0.998656 0.625633 -0.048126
C29   C     C_R   0.901790 0.004643 0.289677 0.119575
C30   C     C_R   0.098210 0.995357 0.710322 0.119575
C31   C     C_R   0.740441 0.002775 0.376703 -0.026525
C32   C     C_R   0.259559 0.997225 0.623297 -0.026524
C33   C     C_R   0.999235 0.109799 0.210720 0.061979
C34   C     C_R   0.000765 0.890201 0.789280 0.061979
C35   C     C_R   0.994508 0.286076 0.134647 -0.166223
C36   C     C_R   0.005492 0.713924 0.865353 -0.166223
C37   C     C_R   0.992653 0.917805 0.200242 0.107875
C38   C     C_R   0.007347 0.082195 0.799758 0.107874
C39   C     C_R   0.989349 0.760733 0.111335 -0.109899
C40   C     C_R   0.010651 0.239267 0.888665 -0.109898
C41   C     C_R   0.992564 0.666108 0.072853 0.915214
C42   C     C_R   0.007436 0.333891 0.927147 0.915215
C43   C     C_R   0.997791 0.359072 0.084540 0.926131
C44   C     C_R   0.002209 0.640928 0.915460 0.926130
C45   C     C_R   0.118584 0.091187 0.323967 -0.154765
C46   C     C_R   0.881416 0.908812 0.676033 -0.154765
C47   C     C_R   0.198684 0.092571 0.366398 -0.183752
C48   C     C_R   0.801316 0.907429 0.633602 -0.183751
C49   C     C_R   0.875598 0.908335 0.319373 -0.169694
C50   C     C_R   0.124401 0.091664 0.680627 -0.169693
C51   C     C_R   0.794214 0.906760 0.361522 -0.190732
C52   C     C_R   0.205785 0.093240 0.638478 -0.190732
C53   C     C_R   0.095410 0.172676 0.200841 -0.235519
C54   C     C_R   0.904590 0.827323 0.799159 -0.235520
C55   C     C_R   0.093353 0.262753 0.165022 -0.040558
C56   C     C_R   0.906647 0.737247 0.834978 -0.040558
C57   C     C_R   0.896816 0.853571 0.189874 -0.123017
C58   C     C_R   0.103183 0.146430 0.810126 -0.123017
H1    H     H_    0.821648 0.863514 0.214540 0.151191
H2    H     H_    0.178351 0.136487 0.785459 0.151191
H3    H     H_    0.874119 0.180553 0.291205 0.148354
H4    H     H_    0.125882 0.819447 0.708795 0.148354
H5    H     H_    0.774749 0.830752 0.382763 0.167305
H6    H     H_    0.225250 0.169248 0.617236 0.167305
H7    H     H_    0.824724 0.720117 0.142701 0.179351
H8    H     H_    0.175275 0.279884 0.857298 0.179351
H9    H     H_    0.730888 0.176235 0.362369 0.166067
H10   H     H_    0.269113 0.823765 0.637632 0.166067
H11   H     H_    0.068788 0.163099 0.320437 0.150700
H12   H     H_    0.931212 0.836901 0.679563 0.150700
O1    O     O_R   0.621380 0.090460 0.561410 -0.624046
O2    O     O_R   0.378620 0.909540 0.438590 -0.624046
O3    O     O_R   0.617150 0.909540 0.438590 -0.627287
O4    O     O_R   0.382850 0.090460 0.561410 -0.627288
O5    O     O_R   0.619720 0.093230 0.440890 -0.625576
O6    O     O_R   0.380280 0.906770 0.559110 -0.625576
O7    O     O_R   0.618800 0.906770 0.559110 -0.625447
O8    O     O_R   0.381200 0.093230 0.440890 -0.625446
O9    O     O_R   0.087590 0.627480 0.058790 -0.592987
O10   O     O_R   0.912410 0.372520 0.941210 -0.592986
O11   O     O_R   0.905660 0.383870 0.059980 -0.587240
O12   O     O_R   0.094340 0.616130 0.940020 -0.587240
O13   O     O_R   0.092570 0.390420 0.063230 -0.604298
O14   O     O_R   0.907430 0.609580 0.936770 -0.604299
O15   O     O_R   0.900680 0.620930 0.055550 -0.621292
O16   O     O_R   0.099320 0.379070 0.944450 -0.621292
Zn1   Zn    Zn3+2 0.501730 0.123520 0.501540 0.972827
Zn2   Zn    Zn3+2 0.498270 0.876480 0.498460 0.972827
Zn3   Zn    Zn3+2 0.125690 0.504390 0.002180 1.070418
Zn4   Zn    Zn3+2 0.874310 0.495610 0.997820 1.070418
H13   H     H_    0.208610 0.164365 0.393935 0.162352
H14   H     H_    0.791390 0.835635 0.606064 0.162352
H15   H     H_    0.917640 0.833774 0.309842 0.206406
H16   H     H_    0.082359 0.166225 0.690157 0.206406
H17   H     H_    0.173288 0.151730 0.220531 0.184005
H18   H     H_    0.826712 0.848269 0.779468 0.184005
H19   H     H_    0.151627 0.966318 0.165212 0.173398
H20   H     H_    0.848374 0.033682 0.834788 0.173400
H21   H     H_    0.826601 0.088089 0.189360 0.175851
H22   H     H_    0.173399 0.911911 0.810640 0.175851
C59   C     C_2   0.159500 0.800939 0.262975 0.886170
O17   O     O_2   0.237849 0.771683 0.233357 -0.588517
O18   O     O_R   0.066864 0.732391 0.268865 -0.828790
H23   H     H_    0.072447 0.663113 0.244651 0.364375
C60   C     C_2   0.840499 0.199061 0.737025 0.886170
O19   O     O_2   0.762151 0.228317 0.766643 -0.588519
O20   O     O_R   0.933135 0.267609 0.731134 -0.828790
H24   H     H_    0.927552 0.336887 0.755349 0.364375
C61   C     C_2   0.193805 0.334292 0.163734 0.946616
O21   O     O_2   0.285895 0.294458 0.163190 -0.601442
O22   O     O_R   0.183037 0.447481 0.165657 -0.792538
H25   H     H_    0.257187 0.487520 0.165157 0.359182
C62   C     C_2   0.806195 0.665707 0.836266 0.946616
O23   O     O_2   0.714106 0.705542 0.836809 -0.601442
O24   O     O_R   0.816963 0.552518 0.834343 -0.792538
H26   H     H_    0.742814 0.512479 0.834843 0.359181
C63   C     C_2   0.170177 0.840371 0.072105 0.957175
O25   O     O_2   0.264854 0.862955 0.087604 -0.571447
O26   O     O_R   0.146573 0.823975 0.013244 -0.799477
H27   H     H_    0.214926 0.831831 0.988135 0.373917
C64   C     C_2   0.829825 0.159627 0.927896 0.957175
O27   O     O_2   0.735148 0.137041 0.912397 -0.571447
O28   O     O_R   0.853429 0.176025 0.986756 -0.799478
H28   H     H_    0.785077 0.168167 0.011866 0.373917
C65   C     C_2   0.782430 0.265375 0.133384 0.949157
O29   O     O_2   0.711476 0.199155 0.117410 -0.613838
O30   O     O_R   0.755182 0.374751 0.141382 -0.781471
H29   H     H_    0.675501 0.389488 0.130621 0.352081
C66   C     C_2   0.217570 0.734626 0.866616 0.949158
O31   O     O_2   0.288523 0.800845 0.882590 -0.613839
O32   O     O_R   0.244818 0.625250 0.858618 -0.781471
H30   H     H_    0.324499 0.610513 0.869379 0.352082
H31   H     H_    0.299628 0.839127 0.345128 0.171909
H32   H     H_    0.700371 0.160872 0.654872 0.171909

loop_
_geom_bond_atom_site_label_1
_geom_bond_atom_site_label_2
_ccdc_geom_bond_type
O8    Zn1   S    
C16   C28   A    
C42   O10   A    
C59   O17   D    
C5    C37   A    
C53   H17   S    
C1    O7    A    
C7    C63   S    
O22   H25   S    
C16   H32   S    
O28   H28   S    
C39   C41   S    
C29   C49   A    
C60   O20   S    
C1    O1    A    
O12   Zn3   S    
C2    O8    A    
C6    H20   S    
C11   C65   S    
C62   O23   D    
C44   O12   A    
C63   O26   S    
C8    C64   S    
C57   H1    S    
C21   C33   S    
C58   H2    S    
O24   H26   S    
C22   C38   S    
C43   O13   A    
C18   C20   A    
C32   C52   A    
O13   Zn3   S    
C17   H3    S    
C38   C58   A    
C11   C35   A    
C14   C60   S    
C4    C40   A    
O7    Zn2   S    
C49   C51   A    
C1    C28   S    
C50   C52   A    
C56   C62   S    
C6    C38   A    
C19   H9    S    
C2    C27   S    
C42   O16   A    
O4    Zn1   S    
C12   C36   A    
C35   C43   S    
O6    Zn2   S    
C54   H18   S    
C45   C47   A    
C30   C50   A    
C19   C31   A    
C9    H21   S    
C55   C61   S    
C9    C33   A    
C13   C25   A    
C3    H7    S    
O14   Zn4   S    
C23   O3    A    
C2    O2    A    
O2    Zn2   S    
C46   C48   A    
C53   C55   A    
C33   C53   A    
C22   C34   S    
C54   C56   A    
C64   O28   S    
C12   C66   S    
C35   C55   A    
C51   H5    S    
C52   H6    S    
C23   O5    A    
C5    C7    A    
C24   O6    A    
C6    C8    A    
C45   H11   S    
C62   O24   S    
C23   C31   S    
C24   C32   S    
O3    Zn2   S    
C36   C56   A    
C15   C27   A    
O20   H24   S    
C10   C34   A    
C14   C26   A    
O26   H27   S    
C10   H22   S    
C9    C11   A    
C64   O27   D    
C10   C12   A    
C18   C30   A    
O11   Zn4   S    
C3    C57   A    
O5    Zn1   S    
C5    H19   S    
C34   C54   A    
C13   C15   A    
C48   H14   S    
C65   O29   D    
C43   O11   A    
O1    Zn1   S    
C36   C44   S    
C13   C59   S    
O30   H29   S    
C25   C45   A    
C66   O31   D    
C20   C32   A    
C27   C47   A    
C21   C25   S    
C28   C48   A    
C22   C30   S    
C47   H13   S    
C20   H10   S    
C18   H4    S    
C31   C51   A    
C44   O14   A    
O16   Zn3   S    
C41   O9    A    
O15   Zn4   S    
C15   H31   S    
C41   O15   A    
C60   O19   D    
C50   H16   S    
C61   O22   S    
C17   C29   A    
C4    H8    S    
C24   O4    A    
C21   C29   S    
C40   C42   S    
C17   C19   A    
C14   C16   A    
O10   Zn4   S    
C46   H12   S    
C26   C46   A    
C3    C39   A    
C61   O21   D    
C21   C37   S    
C59   O18   S    
C22   C26   S    
C4    C58   A    
O18   H23   S    
C65   O30   S    
C7    C39   A    
O9    Zn3   S    
C8    C40   A    
C49   H15   S    
C63   O25   D    
C37   C57   A    
O32   H30   S    
C66   O32   S    
