data_mof_unit_13492.cif
_audit_creation_date              2012-10-26T21:33:18-0400
_audit_creation_method            fapswitch 2.2
_symmetry_space_group_name_H-M    P1
_symmetry_Int_Tables_number       1
_space_group_crystal_system       triclinic
_cell_length_a                    28.222256
_cell_length_b                    18.409463
_cell_length_c                    17.08023
_cell_angle_alpha                 89.653452
_cell_angle_beta                  59.94254
_cell_angle_gamma                 89.27126
_cell_volume                      7680.16029714

loop_
_atom_site_label
_atom_site_type_symbol
_atom_type_description
_atom_site_fract_x
_atom_site_fract_y
_atom_site_fract_z
_atom_type_partial_charge
C1    C     C_R   0.703447 0.273748 0.674770 0.907064
C2    C     C_R   0.092167 0.497316 0.523857 0.064713
C3    C     C_R   0.198910 0.205689 0.893133 0.066812
C4    C     C_R   0.078810 0.092344 0.928805 0.943868
C5    C     C_R   0.931834 0.894352 0.060849 0.865263
C6    C     C_R   0.921732 0.094097 0.070561 0.942999
C7    C     C_R   0.068369 0.894187 0.939521 0.862791
C8    C     C_R   0.578810 0.592344 0.928805 0.943867
C9    C     C_R   0.431834 0.394352 0.060849 0.865262
C10   C     C_R   0.421732 0.594096 0.070562 0.942999
C11   C     C_R   0.568369 0.394187 0.939521 0.862790
C12   C     C_R   0.571315 0.117074 0.441595 0.113565
C13   C     C_R   0.405987 0.002524 0.481175 0.064358
C14   C     C_R   0.425450 0.883602 0.566569 0.113316
C15   C     C_R   0.476689 0.121983 0.425416 0.113299
C16   C     C_R   0.520799 0.878290 0.581557 0.112990
C17   C     C_R   0.071314 0.617075 0.441597 0.113565
C18   C     C_R   0.925450 0.383602 0.566569 0.113316
C19   C     C_R   0.976689 0.621983 0.425418 0.113299
C20   C     C_R   0.020799 0.378291 0.581557 0.112989
C21   C     C_R   0.560043 0.177602 0.403065 -0.217759
C22   C     C_R   0.435586 0.824251 0.608495 -0.212409
C23   C     C_R   0.513212 0.180139 0.394924 -0.217253
C24   C     C_R   0.592167 0.997316 0.523856 0.064713
C25   C     C_R   0.483135 0.821248 0.614997 -0.213184
C26   C     C_R   0.060041 0.677603 0.403068 -0.217759
C27   C     C_R   0.935587 0.324251 0.608495 -0.212409
C28   C     C_R   0.013211 0.680139 0.394926 -0.217253
C29   C     C_R   0.983135 0.321248 0.614997 -0.213184
C30   C     C_R   0.487636 0.060955 0.464445 0.024528
C31   C     C_R   0.509851 0.939147 0.542321 0.023816
C32   C     C_R   0.534706 0.058911 0.473499 0.028320
C33   C     C_R   0.462616 0.941265 0.533528 0.027623
C34   C     C_R   0.987635 0.560955 0.464446 0.024528
C35   C     C_R   0.068899 0.375724 0.587182 -0.225827
C36   C     C_R   0.009851 0.439147 0.542322 0.023816
C37   C     C_R   0.034705 0.558912 0.473501 0.028320
C38   C     C_R   0.962616 0.441265 0.533529 0.027624
C39   C     C_R   0.951932 0.501718 0.493457 -0.041614
C40   C     C_R   0.045762 0.498231 0.512712 -0.041966
C41   C     C_R   0.451932 0.001718 0.493456 -0.041613
C42   C     C_R   0.545762 0.998231 0.512711 -0.041965
C43   C     C_R   0.871806 0.441599 0.505308 0.004694
C44   C     C_R   0.126432 0.558290 0.499139 0.004957
C45   C     C_R   0.105429 0.434753 0.557314 0.026144
C46   C     C_R   0.929523 0.623985 0.417567 -0.228212
C47   C     C_R   0.893272 0.564878 0.446572 0.024935
C48   C     C_R   0.371806 0.941599 0.505308 0.004694
C49   C     C_R   0.626433 0.058289 0.499138 0.004959
C50   C     C_R   0.605429 0.934753 0.557313 0.026134
C51   C     C_R   0.393272 0.064878 0.446571 0.024933
C52   C     C_R   0.832876 0.438759 0.474764 -0.165418
C53   C     C_R   0.166265 0.561078 0.527702 -0.177668
C54   C     C_R   0.154642 0.434485 0.561350 -0.163177
C55   C     C_R   0.844746 0.565163 0.440791 -0.169922
C56   C     C_R   0.332876 0.938759 0.474763 -0.165420
C57   C     C_R   0.879348 0.385455 0.555682 -0.232556
C58   C     C_R   0.666266 0.061077 0.527701 -0.177671
C59   C     C_R   0.654641 0.934484 0.561350 -0.163158
C60   C     C_R   0.344747 0.065164 0.440791 -0.169918
C61   C     C_R   0.823338 0.499572 0.435204 0.118867
C62   C     C_R   0.176260 0.500163 0.566570 0.118915
C63   C     C_R   0.323338 0.999573 0.435204 0.118865
C64   C     C_R   0.676260 0.000163 0.566570 0.118906
C65   C     C_3   0.818109 0.520604 0.298162 -0.770588
C66   C     C_3   0.184294 0.477936 0.700926 -0.760513
C67   C     C_3   0.318108 0.020609 0.298164 -0.770582
C68   C     C_R   0.118068 0.614741 0.450221 -0.232953
C69   C     C_3   0.684291 0.977918 0.700927 -0.760516
C70   C     C_3   0.748630 0.116012 0.863135 -0.773200
C71   C     C_3   0.169714 0.788943 0.240808 -0.813536
C72   C     C_3   0.259624 0.104013 0.140311 -0.789036
C73   C     C_3   0.838765 0.713600 0.747192 -0.741144
C74   C     C_3   0.248628 0.616010 0.863135 -0.773193
C75   C     C_3   0.669714 0.288947 0.240807 -0.813540
C76   C     C_3   0.759623 0.604013 0.140312 -0.789034
C77   C     C_3   0.338766 0.213600 0.747192 -0.741146
C78   C     C_3   0.594024 0.219606 0.078777 -0.809318
C79   C     C_R   0.568898 0.875723 0.587181 -0.225827
C80   C     C_3   0.297802 0.544215 0.087826 -0.750289
C81   C     C_3   0.423203 0.209161 0.927056 -0.809681
C82   C     C_3   0.697615 0.524437 0.915794 -0.749142
C83   C     C_3   0.094020 0.719604 0.078774 -0.809299
C84   C     C_3   0.797802 0.044217 0.087823 -0.750288
C85   C     C_3   0.923202 0.709160 0.927058 -0.809677
C86   C     C_3   0.197615 0.024437 0.915793 -0.749145
C87   C     C_R   0.429524 0.123985 0.417566 -0.228212
C88   C     C_R   0.379348 0.885456 0.555682 -0.232555
C89   C     C_R   0.301278 0.737812 0.323250 0.913629
C90   C     C_R   0.618069 0.114740 0.450219 -0.232953
C91   C     C_R   0.722211 0.273710 0.951492 0.049104
C92   C     C_R   0.280010 0.748401 0.048445 0.067334
C93   C     C_R   0.288766 0.254464 0.036550 0.053302
C94   C     C_R   0.731461 0.723581 0.939873 0.073875
C95   C     C_R   0.222210 0.773707 0.951494 0.049110
C96   C     C_R   0.780011 0.248404 0.048444 0.067333
C97   C     C_R   0.788766 0.754464 0.036550 0.053302
C98   C     C_R   0.231462 0.223581 0.939873 0.073875
C99   C     C_R   0.768042 0.226009 0.917130 0.208514
C100  C     C_R   0.296726 0.273185 0.325006 0.898557
C101  C     C_R   0.234236 0.797106 0.082237 0.217459
C102  C     C_R   0.241796 0.209489 0.074346 0.211983
C103  C     C_R   0.781991 0.761221 0.897696 0.200067
C104  C     C_R   0.268040 0.726006 0.917131 0.208512
C105  C     C_R   0.734237 0.297109 0.082236 0.217460
C106  C     C_R   0.741795 0.709489 0.074346 0.211983
C107  C     C_R   0.281991 0.261220 0.897696 0.200067
C108  C     C_R   0.799172 0.221173 0.960271 -0.260973
C109  C     C_R   0.209091 0.812591 0.030579 -0.266565
C110  C     C_R   0.210997 0.202810 0.030757 -0.260765
C111  C     C_R   0.699849 0.735212 0.676594 0.888623
C112  C     C_R   0.805996 0.782533 0.949171 -0.270701
C113  C     C_R   0.299170 0.721170 0.960273 -0.260974
C114  C     C_R   0.709092 0.312594 0.030577 -0.266574
C115  C     C_R   0.710996 0.702811 0.030757 -0.260766
C116  C     C_R   0.305996 0.282533 0.949171 -0.270699
C117  C     C_R   0.632289 0.306311 0.955097 0.201891
C118  C     C_R   0.341761 0.659405 0.074602 0.167632
C119  C     C_R   0.373684 0.300295 0.042251 0.199910
C120  C     C_R   0.662453 0.646222 0.921192 0.170345
C121  C     C_R   0.132288 0.806310 0.955097 0.201893
C122  C     C_R   0.203447 0.773748 0.674770 0.907061
C123  C     C_R   0.841762 0.159406 0.074601 0.167633
C124  C     C_R   0.873684 0.800296 0.042251 0.199909
C125  C     C_R   0.162454 0.146222 0.921191 0.170346
C126  C     C_R   0.607831 0.334980 0.905895 -0.147315
C127  C     C_R   0.377908 0.646949 0.108916 -0.125959
C128  C     C_R   0.393338 0.334977 0.094696 -0.137444
C129  C     C_R   0.624695 0.640604 0.888954 -0.118726
C130  C     C_R   0.107830 0.834980 0.905895 -0.147310
C131  C     C_R   0.877909 0.146950 0.108916 -0.125959
C132  C     C_R   0.893338 0.834977 0.094696 -0.137445
C133  C     C_R   0.801278 0.237812 0.323250 0.913628
C134  C     C_R   0.124695 0.140604 0.888954 -0.118724
C135  C     C_R   0.628973 0.317476 0.816461 -0.280411
C136  C     C_R   0.370069 0.682630 0.184823 -0.287714
C137  C     C_R   0.370239 0.320149 0.185179 -0.286332
C138  C     C_R   0.632448 0.678996 0.814519 -0.295664
C139  C     C_R   0.128973 0.817476 0.816461 -0.280415
C140  C     C_R   0.870069 0.182631 0.184822 -0.287714
C141  C     C_R   0.870239 0.820149 0.185179 -0.286333
C142  C     C_R   0.132448 0.178996 0.814519 -0.295667
C143  C     C_R   0.680849 0.289254 0.769409 -0.072503
C144  C     C_R   0.796726 0.773185 0.325006 0.898560
C145  C     C_R   0.327396 0.730481 0.225868 -0.080874
C146  C     C_R   0.320506 0.287084 0.229148 -0.079711
C147  C     C_R   0.676232 0.723911 0.772983 -0.079561
C148  C     C_R   0.180848 0.789253 0.769409 -0.072503
C149  C     C_R   0.827397 0.230481 0.225868 -0.080875
C150  C     C_R   0.820506 0.787085 0.229148 -0.079712
C151  C     C_R   0.176232 0.223911 0.772983 -0.079563
C152  C     C_R   0.712586 0.280248 0.811491 -0.228687
C153  C     C_R   0.303147 0.759754 0.177429 -0.230763
C154  C     C_R   0.292189 0.271763 0.182623 -0.224381
C155  C     C_R   0.199849 0.235212 0.676594 0.888632
C156  C     C_R   0.703829 0.745949 0.818777 -0.219190
C157  C     C_R   0.212585 0.780246 0.811491 -0.228686
C158  C     C_R   0.803148 0.259755 0.177429 -0.230763
C159  C     C_R   0.792188 0.771763 0.182623 -0.224381
C160  C     C_R   0.203829 0.245949 0.818777 -0.219187
C161  C     C_R   0.695306 0.127422 0.521877 0.944324
C162  C     C_R   0.304371 0.872517 0.479064 0.913132
C163  C     C_R   0.309574 0.129897 0.462394 0.906239
C164  C     C_R   0.690270 0.869963 0.538152 0.880205
C165  C     C_R   0.195306 0.627422 0.521877 0.944321
C166  C     C_R   0.905987 0.502524 0.481175 0.064358
C167  C     C_R   0.804371 0.372517 0.479064 0.913133
C168  C     C_R   0.809574 0.629896 0.462395 0.906239
C169  C     C_R   0.190270 0.369963 0.538152 0.880197
C170  C     C_R   0.688466 0.285427 0.906025 0.078792
C171  C     C_R   0.308914 0.723776 0.099999 0.074950
C172  C     C_R   0.318836 0.274335 0.087059 0.074927
C173  C     C_R   0.698910 0.705690 0.893133 0.066815
C174  C     C_R   0.188466 0.785425 0.906025 0.078784
C175  C     C_R   0.808915 0.223778 0.099998 0.074950
C176  C     C_R   0.818836 0.774335 0.087059 0.074928
H1    H     H_    0.076272 0.329161 0.618856 0.158394
H2    H     H_    0.337758 0.692353 0.924832 0.144482
H3    H     H_    0.071748 0.689675 0.050964 0.238107
H4    H     H_    0.863518 0.084811 0.969393 0.240344
H5    H     H_    0.787324 0.006377 0.048527 0.231629
H6    H     H_    0.759105 0.066436 0.144773 0.246456
H7    H     H_    0.820616 0.013475 0.114917 0.235784
H8    H     H_    0.945261 0.816077 0.917758 0.239630
H9    H     H_    0.949843 0.702589 0.852784 0.242717
H10   H     H_    0.885565 0.677239 0.948490 0.259214
H11   H     H_    0.945249 0.687293 0.960938 0.238653
H12   H     H_    0.136341 0.075826 0.031798 0.240580
H13   H     H_    0.339774 0.319618 0.917848 0.176398
H14   H     H_    0.205410 0.984864 0.957495 0.228749
H15   H     H_    0.237604 0.040079 0.856951 0.243477
H16   H     H_    0.172218 0.997899 0.891482 0.237278
H17   H     H_    0.755950 0.269820 0.769597 0.181004
H18   H     H_    0.278047 0.807370 0.205300 0.201016
H19   H     H_    0.249429 0.258809 0.222386 0.194345
H20   H     H_    0.731145 0.791330 0.791937 0.188937
H21   H     H_    0.255949 0.769818 0.769598 0.181005
H22   H     H_    0.778047 0.307371 0.205300 0.201017
H23   H     H_    0.749429 0.758809 0.222386 0.194346
H24   H     H_    0.671319 0.678083 0.068616 0.144636
H25   H     H_    0.231145 0.291330 0.791937 0.188939
H26   H     H_    0.176972 0.853517 0.055731 0.170986
H27   H     H_    0.837760 0.192357 0.924830 0.144482
H28   H     H_    0.839774 0.819618 0.917848 0.176398
H29   H     H_    0.171320 0.178082 0.068616 0.144636
H30   H     H_    0.607044 0.331933 0.781409 0.186658
H31   H     H_    0.393070 0.667179 0.217737 0.186089
H32   H     H_    0.389052 0.339420 0.223014 0.188129
H33   H     H_    0.922704 0.670314 0.384904 0.161040
H34   H     H_    0.607589 0.668699 0.783767 0.181625
H35   H     H_    0.107044 0.831933 0.781409 0.186658
H36   H     H_    0.893070 0.167179 0.217737 0.186089
H37   H     H_    0.889053 0.839420 0.223014 0.188129
H38   H     H_    0.107589 0.168699 0.783767 0.181625
H39   H     H_    0.990417 0.274293 0.646237 0.136728
H40   H     H_    0.005435 0.727760 0.365270 0.137005
H41   H     H_    0.907280 0.279396 0.634639 0.135931
H42   H     H_    0.086633 0.723919 0.381732 0.146858
H43   H     H_    0.490417 0.774293 0.646237 0.136728
H44   H     H_    0.849763 0.342854 0.587759 0.169567
H45   H     H_    0.505437 0.227759 0.365267 0.137005
H46   H     H_    0.407279 0.779396 0.634640 0.135931
H47   H     H_    0.586634 0.223917 0.381728 0.146859
H48   H     H_    0.751099 0.506326 0.429283 0.256914
H49   H     H_    0.794499 0.502163 0.266161 0.230536
H50   H     H_    0.860447 0.498341 0.258391 0.243615
H51   H     H_    0.819176 0.580894 0.296678 0.235866
H52   H     H_    0.249719 0.493837 0.568645 0.256247
H53   H     H_    0.209907 0.493764 0.730402 0.229491
H54   H     H_    0.181768 0.417771 0.701872 0.223579
H55   H     H_    0.147635 0.657118 0.416871 0.177283
H56   H     H_    0.142672 0.501726 0.743329 0.243642
H57   H     H_    0.251098 0.006322 0.429283 0.256913
H58   H     H_    0.294503 0.002157 0.266158 0.230537
H59   H     H_    0.360451 0.998358 0.258392 0.243612
H60   H     H_    0.319164 0.080900 0.296684 0.235870
H61   H     H_    0.749715 0.993850 0.568655 0.256244
H62   H     H_    0.709876 0.993803 0.730438 0.229511
H63   H     H_    0.681821 0.917745 0.701842 0.223594
H64   H     H_    0.642642 0.001644 0.743320 0.243628
H65   H     H_    0.823530 0.167387 0.804025 0.212388
H66   H     H_    0.576272 0.829161 0.618856 0.158395
H67   H     H_    0.760646 0.085113 0.800150 0.233777
H68   H     H_    0.704733 0.131552 0.893856 0.253529
H69   H     H_    0.754285 0.080461 0.910748 0.240922
H70   H     H_    0.199763 0.884140 0.169018 0.220036
H71   H     H_    0.156941 0.816554 0.306145 0.232408
H72   H     H_    0.185397 0.733771 0.243273 0.257242
H73   H     H_    0.133601 0.784222 0.231481 0.246917
H74   H     H_    0.184585 0.156260 0.190505 0.218718
H75   H     H_    0.245608 0.076423 0.206144 0.234260
H76   H     H_    0.303116 0.119317 0.112317 0.253656
H77   H     H_    0.422704 0.170314 0.384903 0.161039
H78   H     H_    0.256303 0.065567 0.093382 0.242108
H79   H     H_    0.835261 0.821093 0.784853 0.216804
H80   H     H_    0.857270 0.728798 0.674778 0.242304
H81   H     H_    0.809808 0.668529 0.760963 0.251361
H82   H     H_    0.871815 0.694697 0.760074 0.237677
H83   H     H_    0.323529 0.667383 0.804026 0.212388
H84   H     H_    0.260644 0.585111 0.800150 0.233781
H85   H     H_    0.204731 0.631551 0.893855 0.253526
H86   H     H_    0.254282 0.580458 0.910749 0.240920
H87   H     H_    0.699765 0.384144 0.169017 0.220036
H88   H     H_    0.349763 0.842855 0.587759 0.169567
H89   H     H_    0.656941 0.316558 0.306144 0.232409
H90   H     H_    0.685396 0.233774 0.243272 0.257241
H91   H     H_    0.633601 0.284227 0.231478 0.246919
H92   H     H_    0.684584 0.656261 0.190506 0.218718
H93   H     H_    0.745607 0.576423 0.206144 0.234258
H94   H     H_    0.803115 0.619317 0.112318 0.253656
H95   H     H_    0.756302 0.565568 0.093382 0.242108
H96   H     H_    0.335261 0.321093 0.784854 0.216803
H97   H     H_    0.357270 0.228798 0.674778 0.242304
H98   H     H_    0.309808 0.168529 0.760963 0.251361
H99   H     H_    0.647636 0.157117 0.416870 0.177282
H100  H     H_    0.371815 0.194697 0.760074 0.237677
H101  H     H_    0.562948 0.321506 0.083093 0.240470
H102  H     H_    0.570184 0.216504 0.153794 0.237797
H103  H     H_    0.634297 0.192925 0.055964 0.262674
H104  H     H_    0.571761 0.189670 0.050957 0.238113
H105  H     H_    0.363517 0.584809 0.969395 0.240344
H106  H     H_    0.287324 0.506374 0.048530 0.231630
H107  H     H_    0.259104 0.566434 0.144775 0.246456
H108  H     H_    0.320616 0.513474 0.114920 0.235783
H109  H     H_    0.445261 0.316077 0.917758 0.239633
H110  H     H_    0.676973 0.353520 0.055729 0.170991
H111  H     H_    0.449842 0.202590 0.852782 0.242719
H112  H     H_    0.385566 0.177239 0.948492 0.259214
H113  H     H_    0.445251 0.187295 0.960933 0.238655
H114  H     H_    0.636341 0.575827 0.031798 0.240580
H115  H     H_    0.705410 0.484865 0.957497 0.228749
H116  H     H_    0.737603 0.540080 0.856952 0.243477
H117  H     H_    0.672217 0.497899 0.891484 0.237278
H118  H     H_    0.062951 0.821511 0.083097 0.240467
H119  H     H_    0.070187 0.716502 0.153791 0.237800
H120  H     H_    0.134292 0.692914 0.055951 0.262665
N1    N     N_2   0.792256 0.494276 0.390317 -0.274588
N2    N     N_2   0.711818 0.330841 0.168091 -0.330105
N3    N     N_2   0.725808 0.667717 0.153977 -0.323362
N4    N     N_2   0.310609 0.275997 0.803214 -0.331513
N5    N     N_2   0.600210 0.294989 0.050772 -0.321009
N6    N     N_2   0.330903 0.602420 0.029650 -0.320208
N7    N     N_2   0.410322 0.285425 0.948564 -0.327009
N8    N     N_2   0.669597 0.587756 0.969703 -0.320108
N9    N     N_2   0.100211 0.794988 0.050772 -0.321010
N10   N     N_2   0.830904 0.102422 0.029648 -0.320208
N11   N     N_2   0.910322 0.785425 0.948564 -0.327007
N12   N     N_2   0.208582 0.505248 0.609330 -0.271981
N13   N     N_2   0.169598 0.087755 0.969702 -0.320108
N14   N     N_2   0.292257 0.994276 0.390316 -0.274588
N15   N     N_2   0.708576 0.005249 0.609340 -0.271979
N16   N     N_2   0.782319 0.179837 0.841758 -0.323671
N17   N     N_2   0.211817 0.830838 0.168093 -0.330106
N18   N     N_2   0.225809 0.167716 0.153976 -0.323362
N19   N     N_2   0.810609 0.775997 0.803214 -0.331513
N20   N     N_2   0.282317 0.679834 0.841759 -0.323672
O1    O     O_R   0.746490 0.236330 0.638080 -0.635830
O2    O     O_R   0.325830 0.813840 0.483730 -0.647457
O3    O     O_R   0.325830 0.186160 0.483730 -0.626556
O4    O     O_R   0.674170 0.813840 0.516270 -0.631073
O5    O     O_R   0.174170 0.686160 0.516270 -0.639829
O6    O     O_R   0.825830 0.313840 0.483730 -0.647459
O7    O     O_R   0.825830 0.686160 0.483730 -0.626555
O8    O     O_R   0.174170 0.313840 0.516270 -0.631071
O9    O     O_R   0.739960 0.127620 0.525000 -0.610884
O10   O     O_R   0.260040 0.872380 0.475000 -0.621877
O11   O     O_R   0.260040 0.127620 0.475000 -0.620676
O12   O     O_R   0.253510 0.763670 0.361920 -0.636576
O13   O     O_R   0.739960 0.872380 0.525000 -0.628032
O14   O     O_R   0.239960 0.627620 0.525000 -0.610871
O15   O     O_R   0.760040 0.372380 0.475000 -0.621874
O16   O     O_R   0.760040 0.627620 0.475000 -0.620676
O17   O     O_R   0.239960 0.372380 0.525000 -0.628029
O18   O     O_R   0.680700 0.294870 0.629350 -0.631926
O19   O     O_R   0.319300 0.705130 0.370650 -0.629644
O20   O     O_R   0.319300 0.294870 0.370650 -0.636513
O21   O     O_R   0.680700 0.705130 0.629350 -0.628927
O22   O     O_R   0.180700 0.794870 0.629350 -0.631927
O23   O     O_R   0.253510 0.236330 0.361920 -0.628860
O24   O     O_R   0.819300 0.205130 0.370650 -0.629643
O25   O     O_R   0.819300 0.794870 0.370650 -0.636512
O26   O     O_R   0.180700 0.205130 0.629350 -0.628930
O27   O     O_R   0.062020 0.072840 0.007170 -0.628770
O28   O     O_R   0.937980 0.927160 0.992830 -0.632244
O29   O     O_R   0.937980 0.072840 0.992830 -0.628591
O30   O     O_R   0.062020 0.927160 0.007170 -0.634648
O31   O     O_R   0.562020 0.572840 0.007170 -0.628770
O32   O     O_R   0.437980 0.427160 0.992830 -0.632245
O33   O     O_R   0.437980 0.572840 0.992830 -0.628592
O34   O     O_R   0.746490 0.763670 0.638080 -0.623961
O35   O     O_R   0.562020 0.427160 0.007170 -0.634644
O36   O     O_R   0.947860 0.073950 0.109290 -0.614847
O37   O     O_R   0.052140 0.926050 0.890710 -0.621272
O38   O     O_R   0.052140 0.073950 0.890710 -0.616831
O39   O     O_R   0.947860 0.926050 0.109290 -0.623812
O40   O     O_R   0.447860 0.573950 0.109290 -0.614847
O41   O     O_R   0.552140 0.426050 0.890710 -0.621272
O42   O     O_R   0.552140 0.573950 0.890710 -0.616831
O43   O     O_R   0.447860 0.426050 0.109290 -0.623812
O44   O     O_R   0.246490 0.736330 0.638080 -0.635828
O45   O     O_R   0.753510 0.263670 0.361920 -0.636576
O46   O     O_R   0.753510 0.736330 0.361920 -0.628858
O47   O     O_R   0.246490 0.263670 0.638080 -0.623951
O48   O     O_R   0.674170 0.186160 0.516270 -0.639826
Zn1   Zn    Zn3+2 0.792340 0.208750 0.507670 0.941024
Zn2   Zn    Zn3+2 0.494040 0.500000 0.919480 0.913983
Zn3   Zn    Zn3+2 0.005960 0.000000 0.080520 0.913787
Zn4   Zn    Zn3+2 0.994040 1.000000 0.919480 0.913983
Zn5   Zn    Zn3+2 0.207660 0.791250 0.492330 0.934540
Zn6   Zn    Zn3+2 0.207660 0.208750 0.492330 0.936754
Zn7   Zn    Zn3+2 0.792340 0.791250 0.507670 0.930364
Zn8   Zn    Zn3+2 0.292340 0.708750 0.507670 0.941028
Zn9   Zn    Zn3+2 0.707660 0.291250 0.492330 0.934543
Zn10  Zn    Zn3+2 0.707660 0.708750 0.492330 0.936755
Zn11  Zn    Zn3+2 0.292340 0.291250 0.507670 0.930367
Zn12  Zn    Zn3+2 0.505960 0.500000 0.080520 0.913789

loop_
_geom_bond_atom_site_label_1
_geom_bond_atom_site_label_2
_ccdc_geom_bond_type
C28   H40   S    
C85   H11   S    
C31   C42   A    
C26   H42   S    
C100  O23   A    
O43   Zn12  S    
C71   H71   S    
C116  H13   S    
C50   C79   A    
C14   C33   A    
C19   C46   A    
C8    O31   A    
C75   H91   S    
C16   C31   A    
C10   O40   A    
C89   O19   A    
C50   C59   A    
C73   N19   S    
H92   N3    S    
C74   N20   S    
C107  N4    S    
C73   H81   S    
H65   N16   S    
C164  O13   A    
C83   N9    S    
C56   C162  S    
C60   C163  S    
C24   C42   A    
C118  N6    S    
H12   N13   S    
C163  O3    A    
C131  C140  A    
C13   C51   A    
C66   N12   S    
C117  C170  A    
C153  H18   S    
C65   N1    S    
C1    O1    A    
C111  O21   A    
C122  C148  S    
H57   N14   S    
C117  C126  A    
C68   H55   S    
C85   N11   S    
H83   N20   S    
C96   C108  A    
O19   Zn8   S    
C85   H9    S    
C54   C169  S    
C55   C168  S    
C77   H98   S    
C139  C148  A    
C156  C173  A    
C9    C128  S    
C150  C159  A    
C77   H97   S    
C137  C146  A    
O25   Zn7   S    
C11   C126  S    
C127  C136  A    
C78   H102  S    
C95   C109  A    
C160  H25   S    
C97   C112  A    
C120  C129  A    
C103  C112  A    
C165  O5    A    
C142  C151  A    
C122  O22   A    
O2    Zn8   S    
C152  C170  A    
C146  C154  A    
C161  O9    A    
O14   Zn8   S    
C76   H93   S    
C65   H49   S    
C81   H112  S    
C69   H63   S    
C71   N17   S    
C135  H30   S    
C104  N20   S    
O42   Zn2   S    
C112  H28   S    
C125  N13   S    
C35   C45   A    
C15   C30   A    
C75   H89   S    
C43   C166  A    
C16   C25   A    
C133  O24   A    
C121  N9    S    
C21   H47   S    
C168  O16   A    
C136  H31   S    
C94   C115  A    
C74   H84   S    
O35   Zn12  S    
C86   H16   S    
C106  C115  A    
C52   C61   A    
C75   N2    S    
C84   H6    S    
C18   C38   A    
C14   C88   A    
C3    C98   S    
C102  N18   S    
C118  C171  A    
O21   Zn10  S    
C158  H22   S    
C144  O25   A    
C69   H62   S    
C82   H115  S    
C70   H69   S    
C74   H85   S    
C2    C40   A    
C80   H107  S    
C8    C129  S    
O31   Zn12  S    
C71   H73   S    
C93   C172  S    
C96   C175  S    
C27   C29   A    
C121  C130  A    
O1    Zn1   S    
C89   C145  S    
C99   C108  A    
C12   C90   A    
C109  H26   S    
C37   C40   A    
C4    O38   A    
C38   C39   A    
C43   C52   A    
H74   N18   S    
C76   H95   S    
C103  N19   S    
C65   H51   S    
H87   N2    S    
C11   O35   A    
O7    Zn7   S    
C7    C130  S    
C144  C150  S    
C59   C164  S    
C20   C35   A    
O9    Zn1   S    
C5    C132  S    
C2    C44   A    
C22   C25   A    
C165  O14   A    
C30   C41   A    
O40   Zn12  S    
C149  C158  A    
C157  C174  A    
C135  C143  A    
C164  O4    A    
O46   Zn10  S    
O23   Zn6   S    
C99   N16   S    
C81   N7    S    
C167  O6    A    
C82   N8    S    
C141  C150  A    
C2    C45   A    
C58   C64   A    
H4    N10   S    
C67   H60   S    
C86   H14   S    
C61   N1    S    
C154  C172  A    
C34   C39   A    
O18   Zn9   S    
O37   Zn4   S    
C114  H110  S    
C8    O42   A    
O12   Zn5   S    
C138  H34   S    
C93   C116  A    
C167  O15   A    
C70   H67   S    
C73   H80   S    
C83   H120  S    
C44   C53   A    
C19   C28   A    
C24   C50   A    
C161  O48   A    
C154  H19   S    
C151  C155  S    
C159  C176  A    
C51   C87   A    
C105  N2    S    
C88   H88   S    
C4    C134  S    
C92   C113  A    
C132  C141  A    
O5    Zn5   S    
C72   H78   S    
O17   Zn11  S    
C76   N3    S    
C123  C175  A    
C124  C176  A    
C57   H44   S    
C91   C114  A    
C83   H3    S    
H48   N1    S    
C14   C22   A    
C119  C128  A    
C84   N10   S    
C72   N18   S    
C55   C61   A    
C5    O39   A    
C110  H29   S    
C148  C157  A    
C72   H75   S    
C107  C116  A    
C43   C57   A    
C94   C173  S    
C104  C113  A    
C158  C175  A    
C118  C127  A    
C51   C60   A    
C91   C99   A    
C64   N15   S    
C81   H113  S    
H105  N6    S    
O8    Zn6   S    
C137  H32   S    
C125  C134  A    
C35   H1    S    
C86   N13   S    
C96   C105  A    
C67   H58   S    
C80   H106  S    
C98   C110  A    
C34   C37   A    
C122  O44   A    
O15   Zn9   S    
C49   C90   A    
C9    O43   A    
C13   C41   A    
C80   N6    S    
C11   O41   A    
C22   H46   S    
C66   H53   S    
H109  N7    S    
C123  N10   S    
O30   Zn3   S    
C47   C55   A    
C156  H20   S    
C78   H103  S    
C108  H27   S    
C6    O36   A    
C52   C167  S    
C101  C109  A    
C24   C49   A    
C23   H45   S    
C111  O34   A    
C76   H94   S    
C48   C88   A    
C81   H111  S    
C6    O29   A    
C106  N3    S    
H96   N4    S    
O33   Zn2   S    
C159  H23   S    
C113  H2    S    
C100  O20   A    
O20   Zn11  S    
C71   H72   S    
C69   N15   S    
C130  C139  A    
C70   N16   S    
H101  N5    S    
C62   N12   S    
O36   Zn3   S    
O38   Zn4   S    
C162  O2    A    
C142  H38   S    
C47   C166  A    
C73   H82   S    
C54   C62   A    
O41   Zn2   S    
O16   Zn10  S    
C98   C107  A    
C13   C48   A    
C111  C147  S    
C134  C142  A    
O3    Zn11  S    
C162  O10   A    
C18   C57   A    
C121  C174  A    
O39   Zn3   S    
C59   C64   A    
C63   N14   S    
C147  C156  A    
C82   H116  S    
C92   C101  A    
C97   C106  A    
C74   H86   S    
C53   C165  S    
C143  C152  A    
C126  C135  A    
C80   H108  S    
C169  O8    A    
C21   C23   A    
C102  C110  A    
H114  N8    S    
H52   N12   S    
C140  H36   S    
C46   C47   A    
C17   C68   A    
C123  C131  A    
C5    O28   A    
O48   Zn9   S    
O22   Zn5   S    
C6    C131  S    
C82   H117  S    
C93   C102  A    
H79   N19   S    
O34   Zn7   S    
C67   N14   S    
C155  O47   A    
C46   H33   S    
O26   Zn6   S    
C16   C79   A    
C33   C41   A    
C39   C166  A    
C36   C38   A    
C9    O32   A    
C65   H50   S    
C157  H21   S    
C69   H64   S    
C29   H39   S    
C20   C36   A    
C87   H77   S    
C117  N5    S    
C32   C42   A    
C119  N7    S    
C58   C161  S    
C120  N8    S    
C75   H90   S    
C78   N5    S    
O4    Zn10  S    
H118  N9    S    
O29   Zn4   S    
C124  C132  A    
C86   H15   S    
C152  H17   S    
C60   C63   A    
C17   C26   A    
C67   H59   S    
C84   H5    S    
C95   C174  S    
O27   Zn3   S    
C92   C171  S    
C66   H56   S    
C79   H66   S    
C7    O37   A    
C70   H68   S    
C83   H119  S    
C129  C138  A    
C100  C146  S    
C31   C33   A    
C90   H99   S    
C136  C145  A    
C119  C172  A    
C145  C153  A    
H61   N15   S    
C15   C23   A    
C97   C176  S    
O44   Zn8   S    
C12   C32   A    
C77   H100  S    
O45   Zn9   S    
O47   Zn11  S    
H70   N17   S    
C20   C29   A    
O10   Zn5   S    
C169  O17   A    
C105  C114  A    
C36   C40   A    
C133  C149  S    
C141  H37   S    
C4    O27   A    
C139  H35   S    
C12   C21   A    
C49   C58   A    
O11   Zn6   S    
H8    N11   S    
C128  C137  A    
C1    C143  S    
C53   C62   A    
C144  O46   A    
C138  C147  A    
C153  C171  A    
C56   C63   A    
C163  O11   A    
C17   C37   A    
C72   H76   S    
C77   N4    S    
C101  N17   S    
C45   C54   A    
C3    C160  A    
C44   C68   A    
C10   C127  S    
C95   C104  A    
C15   C87   A    
C85   H10   S    
C48   C56   A    
C91   C170  S    
C84   H7    S    
C18   C27   A    
C19   C34   A    
C94   C103  A    
C155  O26   A    
C3    C125  A    
C27   H41   S    
C115  H24   S    
C66   H54   S    
C26   C28   A    
O24   Zn1   S    
O13   Zn7   S    
C151  C160  A    
C168  O7    A    
C78   H104  S    
C30   C32   A    
C1    O18   A    
O32   Zn2   S    
C140  C149  A    
O6    Zn1   S    
C25   H43   S    
O28   Zn4   S    
C120  C173  A    
C89   O12   A    
C124  N11   S    
C133  O45   A    
C10   O33   A    
C7    O30   A    
