data_mof_unit_61530.cif
_audit_creation_date              2012-12-10T19:52:16-0500
_audit_creation_method            fapswitch 2.2
_symmetry_space_group_name_H-M    P1
_symmetry_Int_Tables_number       1
_space_group_crystal_system       triclinic
_cell_length_a                    15.045857
_cell_length_b                    14.177053
_cell_length_c                    10.760386
_cell_angle_alpha                 88.328378
_cell_angle_beta                  90.496902
_cell_angle_gamma                 89.349825
_cell_volume                      2294.03636839

loop_
_atom_site_label
_atom_site_type_symbol
_atom_type_description
_atom_site_fract_x
_atom_site_fract_y
_atom_site_fract_z
_atom_type_partial_charge
C1    C     C_R   0.327187 0.500576 0.500111 1.059084
C2    C     C_3   0.599020 0.459187 0.932573 0.687717
C3    C     C_R   0.084625 0.539480 0.423037 0.375487
C4    C     C_R   0.098032 0.461691 0.627426 0.421656
C5    C     C_R   0.176719 0.541521 0.413833 0.343100
C6    C     C_R   0.190214 0.463043 0.617738 0.300749
C7    C     C_R   0.230306 0.501614 0.510117 -0.366906
C8    C     C_R   0.046183 0.499116 0.529443 -0.203019
C9    C     C_R   0.907129 0.415465 0.492125 0.445340
C10   C     C_R   0.902742 0.574797 0.572955 0.447428
C11   C     C_R   0.815444 0.416974 0.481920 -0.189708
C12   C     C_R   0.811156 0.575966 0.561199 -0.145472
C13   C     C_R   0.767678 0.497755 0.514060 -0.157963
C14   C     C_R   0.950614 0.495101 0.535989 -0.016161
C15   C     C_R   0.462361 0.098912 0.589004 0.289027
C16   C     C_R   0.444931 0.902893 0.433321 0.285845
C17   C     C_R   0.502617 0.500935 0.257423 0.968420
C18   C     C_R   0.455205 0.198484 0.586016 0.463940
C19   C     C_R   0.438406 0.803483 0.437520 0.461729
C20   C     C_R   0.552887 0.209141 0.415797 -0.082493
C21   C     C_R   0.568414 0.789388 0.561045 -0.121246
C22   C     C_R   0.561142 0.109837 0.414073 0.367105
C23   C     C_R   0.576918 0.888612 0.561063 0.362399
C24   C     C_R   0.515612 0.053123 0.501950 -0.058640
C25   C     C_R   0.514649 0.946923 0.495957 -0.049456
C26   C     C_R   0.672200 0.499423 0.502342 0.937807
C27   C     C_R   0.504377 0.499194 0.742305 0.987165
C28   C     C_3   0.490168 0.605128 0.063497 0.651278
C29   C     C_3   0.435043 0.428983 0.070053 0.648392
C30   C     C_3   0.496088 0.602508 0.921940 -0.463045
C31   C     C_3   0.428567 0.442589 0.929020 -0.406896
C32   C     C_3   0.598822 0.467465 0.076875 -0.500878
C33   C     C_3   0.505250 0.501559 0.120714 -0.305212
C34   C     C_3   0.508282 0.499355 0.878732 -0.263228
H1    H     H_    0.650707 0.517049 0.107466 0.246857
H2    H     H_    0.618242 0.399189 0.123319 0.246488
N1    N     N_R   0.499980 0.252470 0.500000 -0.181323
N2    N     N_R   0.499980 0.747530 0.500000 -0.182173
O1    O     O_R   0.369070 0.579480 0.500010 -0.569968
O2    O     O_R   0.369070 0.420520 0.500010 -0.553265
O3    O     O_R   0.499990 0.579480 0.314790 -0.542634
O4    O     O_R   0.499990 0.420520 0.314790 -0.601954
O5    O     O_R   0.630940 0.579480 0.499990 -0.628095
O6    O     O_R   0.630940 0.420520 0.499990 -0.627910
O7    O     O_R   0.500020 0.579480 0.685200 -0.638135
O8    O     O_R   0.500020 0.420520 0.685200 -0.556485
Zn1   Zn    Zn3+2 0.500010 0.606140 0.500000 1.080418
Zn2   Zn    Zn3+2 0.500010 0.393860 0.500000 1.095700
Cl1   Cl    Cl    0.571660 0.687989 0.116598 -0.440620
Cl2   Cl    Cl    0.464310 0.307020 0.105633 -0.401171
H3    H     H_    0.781842 0.356060 0.446251 0.208079
H4    H     H_    0.774143 0.637812 0.588856 0.209934
Cl3   Cl    Cl    0.403479 0.031437 0.701263 -0.340400
Cl4   Cl    Cl    0.364515 0.972563 0.350650 -0.320515
Cl5   Cl    Cl    0.387430 0.252266 0.694344 -0.356660
Cl6   Cl    Cl    0.348110 0.753348 0.363884 -0.305592
H5    H     H_    0.589319 0.252001 0.349311 0.205332
H6    H     H_    0.616956 0.745478 0.610714 0.202046
Cl7   Cl    Cl    0.627741 0.058762 0.299995 -0.363321
Cl8   Cl    Cl    0.665243 0.937564 0.644548 -0.381773
Cl9   Cl    Cl    0.384421 0.654964 0.100727 -0.340087
Cl10  Cl    Cl    0.326589 0.440091 0.134407 -0.367729
H7    H     H_    0.435155 0.634699 0.877996 0.241980
H8    H     H_    0.367266 0.483522 0.905163 0.251940
H9    H     H_    0.551632 0.646817 0.887024 0.262180
H10   H     H_    0.423062 0.373395 0.884462 0.298504
Cl11  Cl    Cl    0.691575 0.522985 0.869046 -0.512647
Cl12  Cl    Cl    0.617194 0.338477 0.891819 -0.402106
Cl13  Cl    Cl    0.016701 0.586324 0.300016 -0.341453
Cl14  Cl    Cl    0.046982 0.413463 0.762325 -0.301441
Cl15  Cl    Cl    0.221832 0.592874 0.279332 -0.269351
Cl16  Cl    Cl    0.253640 0.420352 0.744478 -0.434228
Cl17  Cl    Cl    0.965949 0.314776 0.444363 -0.384572
Cl18  Cl    Cl    0.955956 0.675051 0.629998 -0.377198

loop_
_geom_bond_atom_site_label_1
_geom_bond_atom_site_label_2
_ccdc_geom_bond_type
C19   Cl6   S    
C26   O5    A    
C15   C18   A    
C9    C14   A    
C32   H1    S    
C24   C25   S    
C6    C7    A    
C16   C25   A    
C19   N2    A    
C29   C33   S    
C31   H10   S    
C9    C11   A    
C28   Cl1   S    
C1    O1    A    
C4    C8    A    
C32   C33   S    
C27   O7    A    
C16   Cl4   S    
C4    Cl14  S    
O3    Zn1   S    
C31   C34   S    
C26   O6    A    
C21   H6    S    
C5    Cl15  S    
O4    Zn2   S    
C30   H7    S    
C28   Cl9   S    
N1    Zn2   S    
C6    Cl16  S    
C20   N1    A    
C10   Cl18  S    
C2    C34   S    
N2    Zn1   S    
C31   H8    S    
C10   C12   A    
C18   Cl5   S    
C16   C19   A    
C2    C32   S    
C32   H2    S    
C27   O8    A    
C28   C30   S    
C15   C24   A    
C3    Cl13  S    
C18   N1    A    
C20   C22   A    
C28   C33   S    
C3    C8    A    
C2    Cl12  S    
C29   Cl2   S    
O7    Zn1   S    
C27   C34   S    
C23   Cl8   S    
C22   C24   A    
C13   C26   S    
C17   O3    A    
C11   H3    S    
C30   C34   S    
C4    C6    A    
C30   H9    S    
O8    Zn2   S    
C15   Cl3   S    
C11   C13   A    
C23   C25   A    
C12   C13   A    
C29   C31   S    
C2    Cl11  S    
C10   C14   A    
C22   Cl7   S    
C5    C7    A    
O2    Zn2   S    
C29   Cl10  S    
C1    C7    S    
C8    C14   S    
C3    C5    A    
C1    O2    A    
C12   H4    S    
C20   H5    S    
C17   O4    A    
O1    Zn1   S    
O5    Zn1   S    
C21   C23   A    
C9    Cl17  S    
C21   N2    A    
O6    Zn2   S    
C17   C33   S    
