data_mof_unit_23817.cif
_audit_creation_date              2012-12-10T17:43:37-0500
_audit_creation_method            fapswitch 2.2
_symmetry_space_group_name_H-M    P1
_symmetry_Int_Tables_number       1
_space_group_crystal_system       triclinic
_cell_length_a                    14.964545
_cell_length_b                    10.708086
_cell_length_c                    9.931025
_cell_angle_alpha                 89.270964
_cell_angle_beta                  90.475586
_cell_angle_gamma                 92.431538
_cell_volume                      1589.75418847

loop_
_atom_site_label
_atom_site_type_symbol
_atom_type_description
_atom_site_fract_x
_atom_site_fract_y
_atom_site_fract_z
_atom_type_partial_charge
C1    C     C_R   0.505671 0.260145 0.501628 0.864371
C2    C     C_R   0.907587 0.537047 0.384007 0.112714
C3    C     C_R   0.951742 0.389104 0.719156 -0.221559
C4    C     C_R   0.044736 0.391796 0.720180 -0.186888
C5    C     C_R   0.092062 0.441686 0.609496 0.116287
C6    C     C_R   0.046222 0.488446 0.496131 0.057856
C7    C     C_R   0.093406 0.537340 0.383373 0.118214
C8    C     C_R   0.047531 0.584337 0.271620 -0.204971
C9    C     C_R   0.954724 0.584620 0.272136 -0.209205
C10   C     C_R   0.184625 0.446330 0.610191 -0.231337
C11   C     C_R   0.230954 0.495068 0.498391 -0.066725
C12   C     C_R   0.326846 0.498781 0.499560 0.868999
C13   C     C_R   0.185875 0.539339 0.384968 -0.252371
C14   C     C_R   0.534331 0.109890 0.755921 -0.163583
C15   C     C_R   0.513001 0.047736 0.876407 -0.124491
C16   C     C_R   0.464929 0.933975 0.873707 -0.071549
C17   C     C_R   0.445963 0.877170 0.750679 -0.079338
C18   C     C_R   0.475379 0.934150 0.628143 0.099734
C19   C     C_R   0.506899 0.058718 0.630175 0.104495
C20   C     C_R   0.508495 0.126050 0.505959 -0.113838
C21   C     C_R   0.496742 0.064150 0.383419 -0.205454
C22   C     C_R   0.483891 0.937040 0.382238 -0.182505
C23   C     C_R   0.490163 0.738515 0.500206 0.902134
C24   C     C_R   0.477286 0.870870 0.503582 -0.143340
C25   C     C_R   0.383998 0.332651 0.140522 -0.169319
C26   C     C_R   0.327799 0.248817 0.070694 -0.230271
C27   C     C_R   0.328185 0.248381 0.931155 0.164988
C28   C     C_R   0.384568 0.332296 0.860900 -0.158090
C29   C     C_R   0.443235 0.417209 0.928268 0.015855
C30   C     C_R   0.443426 0.416912 0.072612 0.105570
C31   C     C_R   0.553249 0.582051 0.070304 0.076217
C32   C     C_R   0.556115 0.578052 0.926910 0.445672
C33   C     C_R   0.673090 0.497886 0.500150 0.902482
C34   C     C_R   0.815399 0.539626 0.386641 -0.237716
C35   C     C_R   0.768782 0.492384 0.498812 -0.080166
C36   C     C_R   0.813328 0.438194 0.607383 -0.274032
C37   C     C_R   0.905870 0.437545 0.608091 0.122623
C38   C     C_R   0.953232 0.487430 0.495987 0.064368
H1    H     H_    0.780086 0.579691 0.301963 0.180948
H2    H     H_    0.574234 0.195974 0.763423 0.159836
H3    H     H_    0.531976 0.089339 0.971816 0.141695
H4    H     H_    0.444432 0.888111 0.966901 0.141664
H5    H     H_    0.407323 0.789504 0.752682 0.153984
H6    H     H_    0.480578 0.890668 0.285969 0.189130
H7    H     H_    0.378334 0.329643 0.247341 0.215763
H8    H     H_    0.283334 0.184495 0.125604 0.177198
H9    H     H_    0.380583 0.328204 0.754034 0.218897
H10   H     H_    0.776129 0.396208 0.690635 0.140139
H11   H     H_    0.915785 0.350737 0.805565 0.150663
H12   H     H_    0.079602 0.355351 0.807330 0.172442
H13   H     H_    0.220529 0.411122 0.697010 0.171611
H14   H     H_    0.222771 0.577318 0.299094 0.164245
H15   H     H_    0.083408 0.621784 0.184699 0.154142
H16   H     H_    0.919867 0.622401 0.185650 0.153746
H17   H     H_    0.498063 0.113535 0.287469 0.174302
N1    N     N_R   0.499150 0.498800 0.142780 -0.150215
N2    N     N_R   0.499120 0.498720 0.857170 -0.171209
O1    O     O_R   0.500000 0.316780 0.614690 -0.654575
O2    O     O_R   0.499990 0.316750 0.385360 -0.640620
O3    O     O_R   0.367850 0.499980 0.614680 -0.647285
O4    O     O_R   0.367840 0.499960 0.385350 -0.641719
O5    O     O_R   0.500010 0.683250 0.614640 -0.584363
O6    O     O_R   0.500000 0.683220 0.385310 -0.587202
O7    O     O_R   0.632160 0.500040 0.614650 -0.614248
O8    O     O_R   0.632150 0.500020 0.385320 -0.594210
Zn1   Zn    Zn3+2 0.500010 0.500020 0.653130 0.957251
Zn2   Zn    Zn3+2 0.499990 0.499980 0.346870 0.961122
I1    I     I_    0.629476 0.728987 0.166374 -0.394419
I2    I     I_    0.243114 0.121039 0.825172 -0.449229
O9    O     O_3   0.611193 0.661908 0.855981 -0.561943
C39   C     C_3   0.700303 0.622469 0.862160 0.141793
H18   H     H_    0.704759 0.524638 0.828936 0.131428
H19   H     H_    0.728612 0.625648 0.965388 0.134244
C40   C     C_3   0.759050 0.708855 0.774086 -0.745960
H20   H     H_    0.760675 0.805057 0.814789 0.253114
H21   H     H_    0.828268 0.675398 0.772757 0.202056
H22   H     H_    0.732385 0.711485 0.669549 0.259951

loop_
_geom_bond_atom_site_label_1
_geom_bond_atom_site_label_2
_ccdc_geom_bond_type
C28   H9    S    
C25   H7    S    
C35   C36   A    
N2    Zn1   S    
C3    H11   S    
C33   O8    A    
C7    C8    A    
C26   C27   A    
C29   C30   A    
C40   H21   S    
C18   C24   A    
C36   C37   A    
C34   C35   A    
C1    O2    A    
C5    C6    A    
C15   C16   A    
C18   C19   A    
C2    C38   A    
O2    Zn2   S    
O1    Zn1   S    
C23   O5    A    
C22   H6    S    
C19   C20   A    
C8    C9    A    
O8    Zn2   S    
C40   H22   S    
C23   C24   S    
C6    C38   A    
O9    C39   S    
C31   N1    A    
C27   I2    S    
C2    C34   A    
C23   O6    A    
O3    Zn1   S    
C21   C22   A    
C32   N2    A    
C10   H13   S    
C31   I1    S    
O6    Zn2   S    
C40   H20   S    
O5    Zn1   S    
C34   H1    S    
C15   H3    S    
C21   H17   S    
C16   C17   A    
C32   O9    S    
C25   C26   A    
C30   N1    A    
C4    H12   S    
O7    Zn1   S    
C17   H5    S    
C37   C38   A    
C13   H14   S    
O4    Zn2   S    
C31   C32   A    
C17   C18   A    
C29   N2    A    
C22   C24   A    
C3    C4    A    
C16   H4    S    
C39   H19   S    
C25   C30   A    
C28   C29   A    
C1    C20   S    
C14   C19   A    
C4    C5    A    
C8    H15   S    
C39   C40   S    
C11   C12   S    
C6    C7    A    
N1    Zn2   S    
C5    C10   A    
C1    O1    A    
C12   O4    A    
C11   C13   A    
C33   O7    A    
C33   C35   S    
C36   H10   S    
C10   C11   A    
C26   H8    S    
C14   H2    S    
C12   O3    A    
C7    C13   A    
C39   H18   S    
C20   C21   A    
C3    C37   A    
C27   C28   A    
C14   C15   A    
C9    H16   S    
C2    C9    A    
