data_mof_unit_15161.cif
_audit_creation_date              2012-12-11T15:38:13-0500
_audit_creation_method            fapswitch 2.2
_symmetry_space_group_name_H-M    P1
_symmetry_Int_Tables_number       1
_space_group_crystal_system       triclinic
_cell_length_a                    20.590655
_cell_length_b                    7.408932
_cell_length_c                    18.786727
_cell_angle_alpha                 89.99279
_cell_angle_beta                  107.421231
_cell_angle_gamma                 90.007494
_cell_volume                      2734.53944345

loop_
_atom_site_label
_atom_site_type_symbol
_atom_type_description
_atom_site_fract_x
_atom_site_fract_y
_atom_site_fract_z
_atom_type_partial_charge
O1    O     O_R   0.422200 0.494350 0.423850 -0.527714
O2    O     O_R   0.577800 0.994350 0.576150 -0.527249
O3    O     O_R   0.555980 0.819730 0.435060 -0.531384
O4    O     O_R   0.444020 0.319730 0.564940 -0.541486
C1    C     C_R   0.575459 0.655886 0.421113 0.708179
C2    C     C_R   0.424542 0.155861 0.578886 0.712618
O5    O     O_R   0.421370 0.823790 0.415230 -0.530055
O6    O     O_R   0.578630 0.323790 0.584770 -0.533618
O7    O     O_R   0.442220 0.998380 0.556180 -0.521131
O8    O     O_R   0.557780 0.498380 0.443820 -0.530439
C3    C     C_R   0.396645 0.655524 0.394571 0.709439
C4    C     C_R   0.603357 0.155528 0.605425 0.702088
O9    O     O_3   0.507000 0.662200 0.546270 -0.380538
O10   O     O_3   0.493000 0.162200 0.453730 -0.377564
V1    V     V_3+5 0.498700 0.935390 0.491420 1.533819
V2    V     V_3+5 0.501300 0.435390 0.508580 1.505978
C5    C     C_1   0.666247 0.145656 0.667844 -0.132768
C6    C     C_1   0.333758 0.645647 0.332148 -0.126901
C7    C     C_1   0.718971 0.134635 0.719560 0.058400
C8    C     C_1   0.281034 0.634626 0.280432 0.061405
C9    C     C_1   0.781132 0.120553 0.780322 0.058140
C10   C     C_1   0.218873 0.620551 0.219672 0.059696
C11   C     C_1   0.833830 0.109523 0.832071 -0.129617
C12   C     C_1   0.166172 0.609525 0.167925 -0.128687
C13   C     C_3   0.238438 0.312387 0.793269 0.294534
C14   C     C_3   0.761664 0.812125 0.206861 0.280208
C15   C     C_3   0.266873 0.974833 0.820168 0.453399
C16   C     C_3   0.733284 0.474518 0.180126 0.452761
C17   C     C_3   0.319188 0.007984 0.774138 -0.000597
C18   C     C_3   0.681013 0.507668 0.226194 -0.005063
H1    H     H_    0.332456 0.375472 0.762177 0.168956
H2    H     H_    0.667732 0.875264 0.238078 0.170504
H3    H     H_    0.360718 0.093322 0.809630 0.211377
H4    H     H_    0.639458 0.592912 0.190693 0.211849
C19   C     C_1   0.377800 0.148864 0.623041 -0.067191
C20   C     C_1   0.622258 0.648929 0.377025 -0.088196
C21   C     C_3   0.206212 0.117088 0.790804 -0.101379
C22   C     C_3   0.793922 0.616902 0.209371 -0.100204
C23   C     C_3   0.280822 0.318707 0.735502 -0.492235
C24   C     C_3   0.719367 0.818463 0.264708 -0.461024
C25   C     C_3   0.287928 0.128277 0.702520 -0.139248
C26   C     C_3   0.712289 0.628056 0.297750 -0.137128
C27   C     C_3   0.214039 0.061797 0.652709 0.551239
C28   C     C_3   0.786237 0.561794 0.347567 0.515647
C29   C     C_3   0.165427 0.076775 0.704853 0.161173
C30   C     C_3   0.834783 0.576852 0.295333 0.171956
C31   C     C_1   0.337568 0.141656 0.658813 0.211996
C32   C     C_1   0.662590 0.641544 0.341377 0.200417
C33   C     C_1   0.158605 0.112103 0.837364 0.130002
C34   C     C_1   0.841466 0.611927 0.162731 0.130193
C35   C     C_1   0.120070 0.109300 0.875226 -0.076346
C36   C     C_1   0.879959 0.609191 0.124817 -0.076161
H5    H     H_    0.136931 0.200535 0.685470 0.086309
H6    H     H_    0.863242 0.700692 0.314635 0.086317
H7    H     H_    0.259287 0.413767 0.689999 0.266806
H8    H     H_    0.740988 0.913456 0.310219 0.281935
O11   O     O_R   0.942270 0.764870 0.056240 -0.537629
O12   O     O_R   0.057730 0.264870 0.943760 -0.537714
O13   O     O_R   0.078640 0.431230 0.084780 -0.529204
O14   O     O_R   0.921360 0.931230 0.915220 -0.529362
C37   C     C_R   0.103329 0.599642 0.105447 0.707267
C38   C     C_R   0.896672 0.099640 0.894552 0.706937
O15   O     O_R   0.944030 0.435400 0.064960 -0.529344
O16   O     O_R   0.055970 0.935400 0.935040 -0.529347
O17   O     O_R   0.922190 0.260960 0.923840 -0.528710
O18   O     O_R   0.077810 0.760960 0.076160 -0.528544
C39   C     C_R   0.925221 0.603236 0.078955 0.715315
C40   C     C_R   0.074781 0.103263 0.921050 0.715072
O19   O     O_3   0.993030 0.592980 0.953770 -0.379405
O20   O     O_3   0.006970 0.092980 0.046230 -0.379097
V3    V     V_3+5 0.001290 0.319740 0.008580 1.500162
V4    V     V_3+5 0.998710 0.819740 0.991420 1.499919
N1    N     N_3   0.185923 0.454280 0.775796 -0.604596
H9    H     H_    0.154009 0.445868 0.809662 0.232478
H10   H     H_    0.156101 0.457943 0.720469 0.309279
N2    N     N_3   0.814152 0.954096 0.224208 -0.606279
H11   H     H_    0.846042 0.945662 0.190317 0.233528
H12   H     H_    0.843982 0.957989 0.279524 0.308775
S1    S     S_3+6 0.218466 0.835699 0.615138 0.141936
O21   O     O_2   0.206065 0.700278 0.668012 -0.321945
O22   O     O_2   0.165761 0.806213 0.541051 -0.182090
O23   O     O_3   0.294409 0.794955 0.601912 -0.512178
H13   H     H_    0.294323 0.664013 0.591171 0.365325
S2    S     S_3+6 0.782054 0.335673 0.385243 0.147205
O24   O     O_2   0.794022 0.199988 0.332291 -0.297590
O25   O     O_2   0.835426 0.305036 0.458817 -0.193105
O26   O     O_3   0.706358 0.293273 0.398904 -0.504397
H14   H     H_    0.710378 0.340338 0.449398 0.356125
N3    N     N_3   0.283739 0.348835 0.868770 -0.526926
H15   H     H_    0.318542 0.451564 0.869626 0.257299
H16   H     H_    0.255528 0.386807 0.904315 0.256299
N4    N     N_3   0.716280 0.848422 0.131388 -0.526783
H17   H     H_    0.681604 0.951441 0.130553 0.257287
H18   H     H_    0.744450 0.886044 0.095750 0.257304
N5    N     N_3   0.236923 0.795969 0.806462 -0.550206
H19   H     H_    0.207896 0.774691 0.842857 0.264829
H20   H     H_    0.275351 0.700577 0.821691 0.248791
N6    N     N_3   0.763265 0.295737 0.193902 -0.551322
H21   H     H_    0.792268 0.274396 0.157489 0.264902
H22   H     H_    0.724843 0.200274 0.178804 0.248399
S3    S     S_3+6 0.313118 0.980902 0.921358 0.015522
O27   O     O_2   0.374584 0.101761 0.939221 -0.263813
O28   O     O_2   0.267890 0.043421 0.966145 -0.346480
O29   O     O_3   0.341399 0.772612 0.950948 -0.482199
H23   H     H_    0.304118 0.715293 0.966105 0.341120
S4    S     S_3+6 0.686975 0.480322 0.078948 0.015409
O30   O     O_2   0.625482 0.601053 0.061078 -0.263678
O31   O     O_2   0.732141 0.542821 0.034077 -0.346644
O32   O     O_3   0.658729 0.271934 0.049476 -0.482368
H24   H     H_    0.695994 0.214671 0.034284 0.341064
N7    N     N_3   0.356080 0.847147 0.761210 -0.627601
H25   H     H_    0.386631 0.799134 0.812733 0.270382
H26   H     H_    0.323990 0.742035 0.736606 0.295081
N8    N     N_3   0.644150 0.346836 0.239222 -0.616768
H27   H     H_    0.613722 0.298391 0.187720 0.268993
H28   H     H_    0.676254 0.241992 0.264091 0.310640
S5    S     S_3+6 0.089439 0.935168 0.685768 0.134893
O33   O     O_2   0.032735 0.049604 0.696458 -0.317091
O34   O     O_2   0.067709 0.868392 0.606728 -0.191986
O35   O     O_3   0.098918 0.758120 0.743429 -0.494300
H29   H     H_    0.053509 0.700217 0.730418 0.370548
S6    S     S_3+6 0.910846 0.435638 0.314380 0.134579
O36   O     O_2   0.967265 0.549830 0.302827 -0.317879
O37   O     O_2   0.933093 0.370584 0.393663 -0.191570
O38   O     O_3   0.901182 0.257388 0.257333 -0.494567
H30   H     H_    0.946631 0.199761 0.270233 0.370993
S7    S     S_3+6 0.179025 0.202810 0.568894 0.115099
O39   O     O_2   0.228094 0.210409 0.523725 -0.295039
O40   O     O_2   0.113454 0.123382 0.520410 -0.216024
O41   O     O_3   0.160959 0.414663 0.587762 -0.466703
H31   H     H_    0.111303 0.417402 0.580594 0.401230
S8    S     S_3+6 0.821211 0.703078 0.431304 0.111914
O42   O     O_2   0.771879 0.712285 0.476115 -0.306980
O43   O     O_2   0.886486 0.623188 0.480237 -0.218860
O44   O     O_3   0.839831 0.914320 0.412207 -0.449352
H32   H     H_    0.889531 0.916231 0.419616 0.400360

loop_
_geom_bond_atom_site_label_1
_geom_bond_atom_site_label_2
_ccdc_geom_bond_type
S2    O25   D    
O26   H14   S    
C3    C6    S    
C12   C37   S    
C15   C17   S    
C25   C27   S    
N1    H9    S    
C15   N5    S    
N5    H19   S    
O1    C3    A    
S2    O26   S    
O16   V4    S    
O2    C4    A    
C2    O7    A    
N8    H27   S    
O44   H32   S    
C23   C25   S    
O5    C3    A    
S3    O27   D    
O16   C40   A    
C7    C9    S    
N2    H12   S    
S5    O34   D    
O12   V3    S    
S4    O30   D    
O14   V4    S    
C27   S1    S    
C1    C20   S    
C17   H3    S    
C2    C19   S    
O14   C38   A    
C13   C21   S    
C37   O18   A    
C11   C38   S    
O18   V4    S    
N7    H25   S    
C16   S4    S    
S8    O42   D    
C33   C35   T    
C4    C5    S    
C34   C36   T    
O20   V3    S    
N3    H16   S    
C13   N1    S    
C23   H7    S    
C14   N4    S    
C24   C26   S    
C29   H5    S    
O6    V2    S    
N1    H10   S    
C26   C28   S    
O11   C39   A    
O29   H23   S    
C28   C30   S    
O15   C39   A    
O13   C37   A    
C18   H4    S    
S2    O24   D    
O4    C2    A    
S5    O35   S    
C27   S7    S    
S1    O22   D    
C14   C22   S    
C24   H8    S    
O17   V3    S    
C15   S3    S    
O4    V2    S    
O19   V4    S    
S7    O40   D    
C16   N6    S    
C21   C33   S    
C14   N2    S    
C16   C22   S    
O6    C4    A    
C30   H6    S    
N4    H18   S    
C25   C31   S    
N7    H26   S    
O1    V2    S    
C26   C32   S    
N2    H11   S    
O2    V1    S    
C27   C29   S    
C36   C39   S    
S8    O43   D    
O12   C40   A    
C8    C10   S    
O23   H13   S    
S3    O29   S    
N6    H22   S    
C9    C11   T    
O38   H30   S    
C10   C12   T    
C21   C29   S    
S7    O39   D    
O3    V1    S    
O35   H29   S    
C18   N8    S    
C29   S5    S    
C38   O17   A    
C17   C25   S    
C17   N7    S    
C30   S6    S    
O15   V3    S    
O3    C1    A    
S1    O23   S    
N8    H28   S    
N5    H20   S    
C22   C34   S    
C28   S8    S    
C13   N3    S    
C28   S2    S    
S6    O38   S    
C16   C18   S    
O41   H31   S    
N3    H15   S    
S7    O41   S    
C1    O8    A    
O8    V2    S    
O32   H24   S    
C13   C23   S    
C14   C24   S    
S4    O31   D    
C15   C21   S    
S8    O44   S    
O5    V1    S    
N4    H17   S    
C5    C7    T    
H1    C23   S    
C20   C32   T    
C6    C8    T    
C35   C40   S    
H2    C24   S    
O11   V4    S    
O7    V1    S    
C22   C30   S    
S1    O21   D    
S3    O28   D    
N6    H21   S    
O9    V2    S    
S6    O36   D    
O10   V1    S    
C18   C26   S    
C19   C31   T    
S5    O33   D    
S6    O37   D    
O13   V3    S    
S4    O32   S    
