data_mof_unit_66536.cif
_audit_creation_date              2012-12-11T14:39:22-0500
_audit_creation_method            fapswitch 2.2
_symmetry_space_group_name_H-M    P1
_symmetry_Int_Tables_number       1
_space_group_crystal_system       triclinic
_cell_length_a                    7.182077
_cell_length_b                    13.983472
_cell_length_c                    16.71663
_cell_angle_alpha                 89.999987
_cell_angle_beta                  95.855515
_cell_angle_gamma                 90.000249
_cell_volume                      1670.09765024

loop_
_atom_site_label
_atom_site_type_symbol
_atom_type_description
_atom_site_fract_x
_atom_site_fract_y
_atom_site_fract_z
_atom_type_partial_charge
O1    O     O_R   0.525340 0.338340 0.164530 -0.548054
O2    O     O_R   0.474660 0.661660 0.835470 -0.547009
O3    O     O_R   0.974660 0.838340 0.835470 -0.548054
O4    O     O_R   0.025340 0.161660 0.164530 -0.547011
O5    O     O_R   0.253520 0.352000 0.336710 -0.537073
O6    O     O_R   0.746480 0.648000 0.663290 -0.543741
O7    O     O_R   0.246480 0.852000 0.663290 -0.537071
O8    O     O_R   0.753520 0.148000 0.336710 -0.543743
O9    O     O_R   0.083330 0.168380 0.337300 -0.530344
O10   O     O_R   0.916670 0.831620 0.662700 -0.524248
O11   O     O_R   0.416670 0.668380 0.662700 -0.530351
O12   O     O_R   0.583330 0.331620 0.337300 -0.524247
C1    C     C_R   0.431143 0.369786 0.363236 0.693920
C2    C     C_R   0.568988 0.627536 0.638319 0.674254
C3    C     C_R   0.068857 0.869785 0.636763 0.693918
C4    C     C_R   0.931011 0.127538 0.361682 0.674263
O13   O     O_R   0.195840 0.349670 0.165140 -0.545259
O14   O     O_R   0.804160 0.650330 0.834860 -0.550968
O15   O     O_R   0.304160 0.849670 0.834860 -0.545259
O16   O     O_R   0.695840 0.150330 0.165140 -0.550971
C5    C     C_R   0.360092 0.370414 0.137212 0.729858
C6    C     C_R   0.639554 0.627720 0.861315 0.714115
C7    C     C_R   0.139908 0.870416 0.862786 0.729858
C8    C     C_R   0.860445 0.127721 0.138683 0.714127
O17   O     O_3   0.387830 0.193120 0.250910 -0.383139
O18   O     O_3   0.612170 0.806880 0.749090 -0.368538
O19   O     O_3   0.112170 0.693120 0.749090 -0.383130
O20   O     O_3   0.887830 0.306880 0.250910 -0.368539
V1    V     V_3+5 0.113010 0.264540 0.250910 1.422226
V2    V     V_3+5 0.886990 0.735460 0.749090 1.399328
V3    V     V_3+5 0.386990 0.764540 0.749090 1.422223
V4    V     V_3+5 0.613010 0.235460 0.250910 1.399330
C9    C     C_R   0.057634 0.196296 0.520067 -0.191006
C10   C     C_R   0.945253 0.798409 0.480318 -0.196861
C11   C     C_R   0.442364 0.696296 0.479937 -0.191000
C12   C     C_R   0.554741 0.298408 0.519681 -0.196860
C13   C     C_R   0.122928 0.233490 0.595120 -0.050202
C14   C     C_R   0.884772 0.759166 0.406079 -0.045846
C15   C     C_R   0.377057 0.733491 0.404887 -0.050207
C16   C     C_R   0.615210 0.259164 0.593920 -0.045843
C17   C     C_R   0.164255 0.171345 0.660538 -0.035181
C18   C     C_R   0.840319 0.819237 0.339982 -0.028970
C19   C     C_R   0.335719 0.671346 0.339470 -0.035178
C20   C     C_R   0.659654 0.319233 0.660020 -0.028973
C21   C     C_R   0.135867 0.073380 0.650299 -0.142833
C22   C     C_R   0.862662 0.918798 0.347983 -0.187306
C23   C     C_R   0.364116 0.573381 0.349706 -0.142835
C24   C     C_R   0.637318 0.418795 0.652019 -0.187310
C25   C     C_R   0.068931 0.034619 0.575037 0.078651
C26   C     C_R   0.928627 0.960038 0.422951 0.100259
C27   C     C_R   0.431064 0.534619 0.424965 0.078648
C28   C     C_R   0.571366 0.460036 0.577050 0.100258
C29   C     C_R   0.030982 0.097012 0.508133 0.063740
C30   C     C_R   0.967645 0.898141 0.490516 0.073086
C31   C     C_R   0.469017 0.597011 0.491869 0.063741
C32   C     C_R   0.532351 0.398140 0.509484 0.073084
C33   C     C_R   0.035966 0.935388 0.566469 -0.134855
C34   C     C_R   0.962540 0.060255 0.431515 -0.132913
C35   C     C_R   0.464034 0.435389 0.433531 -0.134858
C36   C     C_R   0.537458 0.560253 0.568487 -0.132917
H1    H     H_    0.024862 0.246607 0.471421 0.134185
H2    H     H_    0.980189 0.749135 0.529540 0.127146
H3    H     H_    0.475145 0.746606 0.528582 0.134189
H4    H     H_    0.519810 0.249135 0.470457 0.127149
H5    H     H_    0.166009 0.027735 0.702378 0.109712
H6    H     H_    0.830882 0.963191 0.295269 0.090550
H7    H     H_    0.333966 0.527737 0.297626 0.109717
H8    H     H_    0.669093 0.463187 0.704734 0.090542
C37   C     C_2   0.133828 0.938856 0.930286 -0.347802
C38   C     C_2   0.863197 0.061274 0.069981 -0.358427
C39   C     C_2   0.366172 0.438849 0.069708 -0.347805
C40   C     C_2   0.636803 0.561269 0.930015 -0.358438
C41   C     C_2   0.994974 0.941123 0.981663 0.091831
C42   C     C_2   0.015140 0.009438 0.051346 0.106527
C43   C     C_2   0.505029 0.441116 0.018331 0.091838
C44   C     C_2   0.484863 0.509427 0.948647 0.106533
H9    H     H_    0.735422 0.059122 0.029688 0.116000
H10   H     H_    0.248185 0.989898 0.937463 0.120563
H11   H     H_    0.764577 0.559117 0.970309 0.115999
H12   H     H_    0.251811 0.489888 0.062526 0.120559
C45   C     C_1   0.772061 0.777373 0.264107 0.278265
N1    N     N_1   0.716871 0.740265 0.204702 -0.358598
C46   C     C_1   0.236202 0.203901 0.739407 0.304980
N2    N     N_1   0.294252 0.226798 0.803589 -0.379796
C47   C     C_1   0.727887 0.277367 0.735897 0.278244
N3    N     N_1   0.783055 0.240256 0.795304 -0.358594
C48   C     C_1   0.263739 0.703902 0.260605 0.304996
N4    N     N_1   0.205660 0.726797 0.196428 -0.379794
C49   C     C_1   0.142909 0.335811 0.601993 0.293130
N5    N     N_1   0.157080 0.418145 0.605581 -0.360853
C50   C     C_1   0.875758 0.656092 0.398686 0.316149
N6    N     N_1   0.869726 0.573665 0.392761 -0.337672
C51   C     C_1   0.357077 0.835812 0.398016 0.293101
N7    N     N_1   0.342910 0.918146 0.394429 -0.360821
C52   C     C_1   0.624223 0.156089 0.601312 0.316151
N8    N     N_1   0.630254 0.073662 0.607236 -0.337667
C53   C     C_3   0.209239 0.015461 0.098495 -0.317413
C54   C     C_3   0.217775 0.968602 0.181534 -0.279721
C55   C     C_3   0.421140 0.956044 0.218219 -0.646651
H13   H     H_    0.522586 0.955233 0.172493 0.195771
H14   H     H_    0.461508 0.014409 0.261375 0.245124
H15   H     H_    0.436528 0.886979 0.250194 0.219724
H16   H     H_    0.139692 0.010219 0.223578 0.197138
H17   H     H_    0.148836 0.898043 0.174505 0.211399
H18   H     H_    0.310977 0.975662 0.066037 0.152447
H19   H     H_    0.263956 0.089680 0.101463 0.191919
C56   C     C_3   0.832291 0.868561 0.973051 -0.289305
C57   C     C_3   0.702343 0.863464 0.040387 -0.369866
C58   C     C_3   0.576778 0.775210 0.031479 -0.689848
H20   H     H_    0.499111 0.772931 0.970660 0.219992
H21   H     H_    0.661976 0.709393 0.041783 0.242039
H22   H     H_    0.472528 0.778003 0.076118 0.251782
H23   H     H_    0.786298 0.863032 0.099813 0.232012
H24   H     H_    0.605880 0.925021 0.036484 0.182296
H25   H     H_    0.741156 0.884685 0.916886 0.197130
H26   H     H_    0.894480 0.796070 0.968826 0.183022
C59   C     C_3   0.290764 0.515450 0.901498 -0.317428
C60   C     C_3   0.282223 0.468615 0.818447 -0.279684
C61   C     C_3   0.078853 0.456069 0.781761 -0.646548
H27   H     H_    0.977379 0.455354 0.827480 0.195747
H28   H     H_    0.038555 0.514391 0.738551 0.245115
H29   H     H_    0.063411 0.386966 0.749845 0.219698
H30   H     H_    0.360306 0.510246 0.776411 0.197128
H31   H     H_    0.351166 0.398055 0.825459 0.211371
H32   H     H_    0.189034 0.475635 0.933948 0.152458
H33   H     H_    0.236041 0.589669 0.898543 0.191909
C62   C     C_3   0.667716 0.368557 0.026947 -0.289315
C63   C     C_3   0.797671 0.363465 0.959612 -0.369870
C64   C     C_3   0.923236 0.275211 0.968516 -0.689844
H34   H     H_    0.000909 0.272931 0.029333 0.219988
H35   H     H_    0.838036 0.209394 0.958213 0.242044
H36   H     H_    0.027480 0.278005 0.923874 0.251791
H37   H     H_    0.713724 0.363037 0.900187 0.232024
H38   H     H_    0.894133 0.425021 0.963520 0.182299
H39   H     H_    0.758847 0.384682 0.083113 0.197130
H40   H     H_    0.605533 0.296066 0.031171 0.183022

loop_
_geom_bond_atom_site_label_1
_geom_bond_atom_site_label_2
_ccdc_geom_bond_type
C48   N4    T    
O1    C5    A    
C51   N7    T    
O13   V1    S    
C41   C42   S    
C7    C37   S    
O3    C7    A    
C52   N8    T    
C40   C44   D    
O15   V3    S    
C63   C64   S    
C53   C54   S    
C4    C34   S    
C8    C38   S    
C47   N3    T    
C26   C30   A    
C5    C39   S    
O20   V1    S    
O9    C4    A    
C62   H39   S    
C22   H6    S    
C40   H11   S    
O10   C3    A    
C58   H21   S    
O4    C8    A    
O11   C2    A    
C25   C29   A    
C41   C56   S    
C57   H24   S    
C54   H16   S    
C17   C46   S    
C10   H2    S    
C25   C33   A    
C57   C58   S    
C18   C22   A    
C23   H7    S    
C60   C61   S    
C15   C51   S    
C28   C36   A    
O16   C8    A    
C38   C42   D    
C56   C57   S    
C37   C41   D    
O14   V2    S    
C59   H33   S    
C16   C20   A    
O5    C1    A    
O4    V1    S    
O9    V1    S    
C64   H36   S    
C53   H18   S    
O17   V4    S    
O7    C3    A    
O11   V3    S    
O18   V3    S    
O8    C4    A    
C10   C14   A    
C31   C36   A    
O12   V4    S    
C38   H9    S    
C3    C33   S    
C37   H10   S    
C18   C45   S    
C63   H37   S    
C6    C40   S    
C39   H12   S    
C45   N1    T    
C42   C53   S    
O5    V1    S    
C61   H28   S    
C9    C29   A    
O7    V3    S    
C11   C31   A    
C26   C34   A    
C12   C16   A    
C62   H40   S    
C58   H22   S    
C50   N6    T    
O15   C7    A    
C15   C19   A    
C27   C31   A    
C20   C47   S    
C14   C50   S    
O1    V4    S    
O13   C5    A    
O2    V3    S    
O8    V4    S    
C57   H23   S    
O3    V2    S    
C11   C15   A    
C43   C44   S    
O2    C6    A    
C12   C32   A    
C63   H38   S    
O6    C2    A    
O10   V2    S    
C46   N2    T    
C21   C25   A    
C61   H27   S    
C60   H31   S    
C24   H8    S    
C56   H25   S    
C53   H19   S    
O6    V2    S    
C10   C30   A    
C21   H5    S    
C27   C35   A    
C16   C52   S    
C62   C63   S    
C64   H34   S    
O16   V4    S    
C61   H29   S    
C55   H14   S    
O14   C6    A    
C23   C27   A    
C29   C34   A    
C32   C35   A    
C14   C18   A    
C1    C35   S    
C2    C36   S    
C22   C26   A    
C44   C59   S    
C55   H13   S    
C13   C49   S    
C19   C48   S    
C59   C60   S    
C39   C43   D    
C59   H32   S    
C54   H17   S    
C43   C62   S    
C60   H30   S    
C13   C17   A    
C9    C13   A    
C56   H26   S    
C28   C32   A    
C24   C28   A    
C55   H15   S    
O12   C1    A    
C9    H1    S    
C54   C55   S    
C58   H20   S    
C17   C21   A    
C11   H3    S    
C64   H35   S    
C49   N5    T    
C12   H4    S    
C19   C23   A    
C20   C24   A    
O19   V2    S    
C30   C33   A    
