data_mof_unit_9293.cif
_audit_creation_date              2012-12-10T19:11:30-0500
_audit_creation_method            fapswitch 2.2
_symmetry_space_group_name_H-M    P1
_symmetry_Int_Tables_number       1
_space_group_crystal_system       triclinic
_cell_length_a                    10.650606
_cell_length_b                    9.930241
_cell_length_c                    10.511516
_cell_angle_alpha                 89.950194
_cell_angle_beta                  92.612863
_cell_angle_gamma                 89.722662
_cell_volume                      1110.56088345

loop_
_atom_site_label
_atom_site_type_symbol
_atom_type_description
_atom_site_fract_x
_atom_site_fract_y
_atom_site_fract_z
_atom_type_partial_charge
C1    C     C_R   0.258136 0.500346 0.503819 0.816101
C2    C     C_3   0.919694 0.492580 0.370565 -0.390002
C3    C     C_3   0.399749 0.080252 0.405654 0.295899
C4    C     C_3   0.411463 0.919146 0.394033 0.353518
C5    C     C_3   0.616900 0.079645 0.445958 -0.431871
C6    C     C_3   0.623877 0.921370 0.463693 -0.443624
C7    C     C_3   0.481014 0.081515 0.630502 0.429058
C8    C     C_3   0.464770 0.919786 0.625845 0.410739
C9    C     C_R   0.500166 0.500373 0.257901 0.858613
C10   C     C_R   0.741633 0.499937 0.506057 0.793559
C11   C     C_R   0.501943 0.499650 0.741780 0.844641
C12   C     C_3   0.501556 0.501821 0.122609 -0.078328
C13   C     C_3   0.534736 0.622036 0.039729 0.065217
C14   C     C_3   0.388099 0.470511 0.034032 -0.000663
C15   C     C_3   0.419418 0.592371 0.951005 -0.215992
C16   C     C_3   0.503287 0.498520 0.876490 0.013530
C17   C     C_3   0.619132 0.530010 0.962469 -0.236449
C18   C     C_3   0.470246 0.376168 0.957068 -0.133326
C19   C     C_3   0.585595 0.408373 0.046621 -0.185057
C20   C     C_3   0.199804 0.150506 0.332180 -0.243983
C21   C     C_3   0.249820 0.809376 0.273137 -0.288189
C22   C     C_3   0.691126 0.166468 0.715364 -0.237557
C23   C     C_3   0.073060 0.632255 0.568864 -0.353690
C24   C     C_3   0.653386 0.828613 0.746553 -0.142526
C25   C     C_1   0.368053 0.147314 0.680949 0.321051
C26   C     C_1   0.332209 0.884837 0.647335 0.303316
C27   C     C_1   0.572734 0.757583 0.080823 0.169626
C28   C     C_1   0.259478 0.438176 0.066629 0.090859
C29   C     C_3   0.075380 0.381447 0.588625 -0.362983
C30   C     C_3   0.929796 0.631362 0.572086 -0.429402
C31   C     C_3   0.931735 0.378377 0.585977 -0.440021
C32   C     C_3   0.063371 0.491660 0.370246 -0.397103
C33   C     C_3   0.120716 0.501056 0.507716 0.138641
C34   C     C_3   0.877857 0.500428 0.508968 0.213231
H1    H     H_    0.351831 0.667312 0.908742 0.158342
H2    H     H_    0.713923 0.553402 0.928829 0.115002
H3    H     H_    0.444156 0.274533 0.921561 0.181680
H4    H     H_    0.653223 0.333570 0.088886 0.148128
H5    H     H_    0.100975 0.720670 0.511913 0.236083
H6    H     H_    0.109635 0.284065 0.552007 0.230497
H7    H     H_    0.113894 0.641169 0.667767 0.176462
H8    H     H_    0.112438 0.392144 0.688802 0.179299
H9    H     H_    0.900997 0.637828 0.672430 0.148511
H10   H     H_    0.899274 0.381229 0.685134 0.150441
H11   H     H_    0.892251 0.722279 0.520905 0.180701
H12   H     H_    0.882148 0.580458 0.314661 0.166459
H13   H     H_    0.899043 0.282080 0.541896 0.175349
H14   H     H_    0.095485 0.576718 0.311671 0.165780
H15   H     H_    0.093938 0.398214 0.324816 0.176894
H16   H     H_    0.195672 0.069240 0.260583 0.158263
H17   H     H_    0.234967 0.242932 0.286699 0.170010
H18   H     H_    0.102303 0.167106 0.361389 0.163694
H19   H     H_    0.285818 0.706148 0.258085 0.191875
H20   H     H_    0.276885 0.874764 0.192931 0.120972
H21   H     H_    0.145715 0.805178 0.269367 0.163385
H22   H     H_    0.755936 0.100610 0.665216 0.112340
H23   H     H_    0.882208 0.399739 0.323399 0.163219
H24   H     H_    0.686770 0.268247 0.679662 0.219064
H25   H     H_    0.737064 0.177488 0.811584 0.157593
H26   H     H_    0.714349 0.916025 0.747698 0.150771
H27   H     H_    0.681244 0.753813 0.676976 0.172786
H28   H     H_    0.673908 0.780628 0.840122 0.149474
H29   H     H_    0.417946 0.122107 0.309146 0.076931
H30   H     H_    0.454815 0.899476 0.300962 0.076724
H31   H     H_    0.620835 0.101514 0.342171 0.163099
H32   H     H_    0.655366 0.874594 0.374406 0.197830
H33   H     H_    0.702763 0.131661 0.478921 0.200310
H34   H     H_    0.701962 0.898142 0.531332 0.177950
N1    N     N_3   0.499750 0.138610 0.497240 -0.156213
N2    N     N_3   0.499750 0.861390 0.497240 -0.147556
N3    N     N_1   0.280686 0.196621 0.723317 -0.251503
N4    N     N_1   0.228943 0.862581 0.668700 -0.243843
N5    N     N_1   0.603531 0.864718 0.111572 -0.252847
N6    N     N_1   0.157165 0.412665 0.089611 -0.261685
O1    O     O_R   0.314910 0.616040 0.499970 -0.577851
O2    O     O_3   0.291079 0.857713 0.394767 -0.563752
O3    O     O_3   0.571698 0.111124 0.732536 -0.602661
O4    O     O_3   0.523627 0.859155 0.738009 -0.580374
O5    O     O_R   0.314910 0.383960 0.499970 -0.586121
O6    O     O_R   0.500080 0.616020 0.313900 -0.624892
O7    O     O_R   0.500080 0.383980 0.313900 -0.621417
O8    O     O_R   0.685320 0.616040 0.499930 -0.649388
O9    O     O_R   0.685320 0.383960 0.499930 -0.658541
O10   O     O_R   0.500150 0.616060 0.686000 -0.585927
O11   O     O_R   0.500150 0.383940 0.686000 -0.624068
O12   O     O_3   0.276951 0.116936 0.440632 -0.589769
Zn1   Zn    Zn3+2 0.500150 0.654960 0.499940 0.956276
Zn2   Zn    Zn3+2 0.500150 0.345040 0.499940 0.939379

loop_
_geom_bond_atom_site_label_1
_geom_bond_atom_site_label_2
_ccdc_geom_bond_type
C24   H27   S    
C29   H8    S    
C8    C26   S    
C14   C18   S    
C30   H11   S    
O10   Zn1   S    
C5    H33   S    
C28   N6    T    
C4    N2    S    
C2    H23   S    
C1    C33   S    
C7    C8    S    
C2    H12   S    
C21   O2    S    
C3    N1    S    
C18   H3    S    
O6    Zn1   S    
C5    C6    S    
O8    Zn1   S    
C29   C33   S    
C10   O9    A    
C26   N4    T    
C12   C19   S    
C2    C32   S    
C18   C19   S    
C20   H16   S    
C16   C17   S    
C23   C33   S    
C20   O12   S    
C5    N1    S    
C25   N3    T    
C17   H2    S    
C7    O3    S    
C2    C34   S    
C6    H34   S    
O9    Zn2   S    
C31   H13   S    
C3    O12   S    
C8    O4    S    
C32   H14   S    
N2    Zn1   S    
C15   H1    S    
O5    Zn2   S    
C31   H10   S    
C30   C34   S    
C1    O1    A    
C23   C30   S    
C5    H31   S    
C22   H25   S    
C21   H21   S    
C22   H22   S    
C10   O8    A    
C9    O6    A    
C7    N1    S    
C19   H4    S    
C11   C16   S    
C24   H26   S    
C31   C34   S    
C10   C34   S    
N1    Zn2   S    
O1    Zn1   S    
C12   C14   S    
C13   C15   S    
C1    O5    A    
C30   H9    S    
C3    C4    S    
O11   Zn2   S    
C24   O4    S    
C6    N2    S    
C24   H28   S    
C29   C31   S    
C22   O3    S    
C7    C25   S    
C22   H24   S    
C3    H29   S    
C11   O10   A    
C20   H17   S    
C4    H30   S    
C8    N2    S    
C23   H7    S    
C13   C17   S    
C32   C33   S    
C20   H18   S    
C21   H19   S    
C21   H20   S    
C11   O11   A    
C23   H5    S    
C29   H6    S    
C17   C19   S    
C9    C12   S    
C32   H15   S    
C4    O2    S    
O7    Zn2   S    
C6    H32   S    
C12   C13   S    
C16   C18   S    
C14   C15   S    
C13   C27   S    
C14   C28   S    
C27   N5    T    
C15   C16   S    
C9    O7    A    
