data_mof_unit_31748.cif
_audit_creation_date              2012-12-11T15:39:22-0500
_audit_creation_method            fapswitch 2.2
_symmetry_space_group_name_H-M    P1
_symmetry_Int_Tables_number       1
_space_group_crystal_system       triclinic
_cell_length_a                    17.309259
_cell_length_b                    24.337506
_cell_length_c                    14.928792
_cell_angle_alpha                 89.852303
_cell_angle_beta                  125.066231
_cell_angle_gamma                 90.281677
_cell_volume                      5147.38335837

loop_
_atom_site_label
_atom_site_type_symbol
_atom_type_description
_atom_site_fract_x
_atom_site_fract_y
_atom_site_fract_z
_atom_type_partial_charge
C1    C     C_R   0.352908 0.347749 0.909356 -0.132621
C2    C     C_R   0.637354 0.345743 0.088680 0.001558
C3    C     C_R   0.861561 0.845823 0.910479 0.003119
C4    C     C_R   0.146119 0.847690 0.089828 -0.131328
C5    C     C_R   0.315983 0.643555 0.997781 0.037395
C6    C     C_R   0.681622 0.644541 0.997400 0.035167
C7    C     C_R   0.829011 0.155797 0.000088 0.038719
C8    C     C_R   0.188250 0.137041 0.999571 0.034577
C9    C     C_R   0.459471 0.498608 0.286362 0.043166
C10   C     C_R   0.433488 0.499243 0.632728 0.040359
C11   C     C_R   0.955820 0.998603 0.282280 0.032577
C12   C     C_R   0.935225 0.999187 0.633340 0.045621
C13   C     C_R   0.199284 0.502257 0.632887 -0.079977
C14   C     C_R   0.828048 0.502766 0.290769 -0.079568
C15   C     C_R   0.672229 0.002580 0.711927 -0.078966
C16   C     C_R   0.301498 0.002151 0.366568 -0.082370
C17   C     C_R   0.073458 0.556513 0.476275 0.166942
C18   C     C_R   0.978608 0.556123 0.392419 0.167361
C19   C     C_R   0.522498 0.055837 0.608541 0.167983
C20   C     C_R   0.428075 0.056124 0.523413 0.166920
C21   C     C_R   0.122476 0.506894 0.517536 0.071256
C22   C     C_R   0.930894 0.506085 0.348541 0.069159
C23   C     C_R   0.569383 0.005840 0.653529 0.068832
C24   C     C_R   0.378541 0.006528 0.481863 0.071724
C25   C     C_R   0.083100 0.460096 0.452112 -0.223600
C26   C     C_R   0.986407 0.458650 0.372205 -0.247578
C27   C     C_R   0.513133 0.958376 0.628954 -0.247146
C28   C     C_R   0.416796 0.959704 0.547392 -0.224497
C29   C     C_3   0.959619 0.603323 0.441515 -0.528364
C30   C     C_3   0.063189 0.603815 0.532562 -0.522313
C31   C     C_3   0.439827 0.103087 0.467266 -0.521210
C32   C     C_3   0.543011 0.102765 0.559631 -0.528250
C33   C     C_R   0.162194 0.691151 0.897485 -0.172316
C34   C     C_R   0.839707 0.688460 0.096404 -0.174679
C35   C     C_R   0.670584 0.197964 0.899761 -0.175018
C36   C     C_R   0.342298 0.185619 0.098430 -0.170559
C37   C     C_R   0.609633 0.234566 0.899082 -0.162479
C38   C     C_R   0.390163 0.231445 0.098675 -0.167302
C39   C     C_R   0.110974 0.734396 0.897682 -0.165478
C40   C     C_R   0.894577 0.730370 0.097468 -0.163648
C41   C     C_R   0.634579 0.258004 0.997861 0.142127
C42   C     C_R   0.358141 0.258115 0.999802 0.144802
C43   C     C_R   0.140323 0.759209 0.997159 0.145726
C44   C     C_R   0.865486 0.756540 0.999206 0.142566
C45   C     C_R   0.405896 0.631882 0.089509 -0.125782
C46   C     C_R   0.595099 0.627254 0.906620 -0.132246
C47   C     C_R   0.913763 0.137622 0.091292 -0.135214
C48   C     C_R   0.098456 0.124119 0.908028 -0.124266
C49   C     C_R   0.707071 0.234667 0.097320 -0.164486
C50   C     C_R   0.291025 0.232050 0.900523 -0.176591
C51   C     C_R   0.206748 0.732740 0.095925 -0.175695
C52   C     C_R   0.794269 0.732583 0.899326 -0.166713
C53   C     C_R   0.257635 0.689244 0.095660 -0.167239
C54   C     C_R   0.738876 0.691176 0.898297 -0.168577
C55   C     C_R   0.768268 0.198244 0.098140 -0.170743
C56   C     C_R   0.243220 0.186256 0.900374 -0.165073
C57   C     C_R   0.242374 0.672788 0.996816 0.145377
C58   C     C_R   0.755671 0.673226 0.997166 0.143802
C59   C     C_R   0.755269 0.184343 0.999371 0.146774
C60   C     C_R   0.261762 0.166848 0.999392 0.142765
C61   C     C_R   0.390167 0.547969 0.464463 -0.172116
C62   C     C_R   0.397154 0.547698 0.376779 -0.170106
C63   C     C_R   0.890826 0.047793 0.464307 -0.174407
C64   C     C_R   0.895019 0.047511 0.374580 -0.168432
C65   C     C_R   0.414759 0.498063 0.344301 0.145451
C66   C     C_R   0.399867 0.498513 0.518217 0.145208
C67   C     C_R   0.911747 0.997931 0.341022 0.145507
C68   C     C_R   0.901953 0.998379 0.518861 0.141449
C69   C     C_R   0.402355 0.448235 0.381695 -0.172659
C70   C     C_R   0.394643 0.448465 0.468720 -0.167668
C71   C     C_R   0.901269 0.948087 0.380076 -0.170383
C72   C     C_R   0.896433 0.948308 0.469212 -0.170772
C73   C     C_R   0.484452 0.453112 0.253072 -0.134244
C74   C     C_R   0.451608 0.453809 0.697442 -0.122975
C75   C     C_R   0.982584 0.953122 0.250891 -0.126148
C76   C     C_R   0.952631 0.953768 0.697886 -0.131698
C77   C     C_R   0.249181 0.546610 0.696984 -0.269863
C78   C     C_R   0.768976 0.546701 0.266470 -0.250044
C79   C     C_R   0.731419 0.046716 0.737034 -0.247590
C80   C     C_R   0.251504 0.046571 0.302961 -0.270779
C81   C     C_R   0.492440 0.544742 0.263179 -0.124462
C82   C     C_R   0.449848 0.545236 0.695741 -0.137842
C83   C     C_R   0.988705 0.044828 0.259160 -0.119986
C84   C     C_R   0.950595 0.045209 0.695989 -0.137365
C85   C     C_R   0.242362 0.455640 0.697556 0.616734
C86   C     C_R   0.770166 0.456331 0.247883 0.589061
C87   C     C_R   0.729714 0.956153 0.753005 0.588970
C88   C     C_R   0.257839 0.955596 0.301820 0.618603
C89   C     C_R   0.311952 0.626626 0.906829 -0.124586
C90   C     C_R   0.682990 0.632581 0.089157 -0.115159
C91   C     C_R   0.823541 0.138044 0.909015 -0.119609
C92   C     C_R   0.190015 0.124085 0.091515 -0.122056
C93   C     C_R   0.442705 0.347904 0.091090 -0.143341
C94   C     C_R   0.552781 0.347562 0.907645 -0.138950
C95   C     C_R   0.946839 0.846892 0.091212 -0.154529
C96   C     C_R   0.057290 0.848732 0.907681 -0.127468
C97   C     C_R   0.382238 0.315833 0.000197 0.028428
C98   C     C_R   0.606490 0.314107 0.997626 -0.015505
C99   C     C_R   0.891784 0.813709 0.000741 -0.013454
C100  C     C_R   0.116422 0.816364 0.998183 0.023747
H1    H     H_    0.318557 0.333349 0.826518 0.145034
H2    H     H_    0.671093 0.331574 0.171818 0.106406
H3    H     H_    0.828207 0.831960 0.827244 0.104886
H4    H     H_    0.180465 0.832945 0.172471 0.145782
H5    H     H_    0.936706 0.640805 0.389608 0.186408
H6    H     H_    0.077076 0.592890 0.612984 0.203474
H7    H     H_    0.426790 0.091728 0.387508 0.202882
H8    H     H_    0.565708 0.140477 0.610885 0.186426
H9    H     H_    0.915761 0.591832 0.471315 0.202128
H10   H     H_    0.100058 0.641365 0.532629 0.189481
H11   H     H_    0.403037 0.140726 0.465917 0.189265
H12   H     H_    0.587856 0.091026 0.531499 0.202376
H13   H     H_    0.724135 0.249022 0.175197 0.110053
H14   H     H_    0.268150 0.249560 0.822404 0.107617
H15   H     H_    0.226846 0.748561 0.174149 0.107606
H16   H     H_    0.773429 0.749522 0.821522 0.111278
H17   H     H_    0.314292 0.672521 0.173472 0.103572
H18   H     H_    0.678233 0.677538 0.819971 0.109248
H19   H     H_    0.828694 0.184502 0.176407 0.105432
H20   H     H_    0.185602 0.170285 0.822268 0.107936
H21   H     H_    0.387259 0.587243 0.495977 0.106627
H22   H     H_    0.398161 0.586712 0.342630 0.104072
H23   H     H_    0.888369 0.087067 0.496150 0.106432
H24   H     H_    0.894756 0.086533 0.339623 0.105529
H25   H     H_    0.408459 0.408996 0.352632 0.108751
H26   H     H_    0.395325 0.409335 0.503462 0.109728
H27   H     H_    0.906931 0.908862 0.350596 0.107505
H28   H     H_    0.898534 0.909175 0.504816 0.106602
H29   H     H_    0.436579 0.646249 0.171376 0.084049
H30   H     H_    0.568236 0.631159 0.821439 0.095658
H31   H     H_    0.947033 0.151100 0.174289 0.085777
H32   H     H_    0.071557 0.129044 0.823018 0.093919
H33   H     H_    0.472980 0.410344 0.261043 0.095396
H34   H     H_    0.435215 0.411384 0.672026 0.098938
H35   H     H_    0.971028 0.910320 0.258584 0.096136
H36   H     H_    0.936575 0.911322 0.672531 0.085065
H37   H     H_    0.496472 0.585860 0.291477 0.083714
H38   H     H_    0.431074 0.587148 0.667665 0.086835
H39   H     H_    0.989625 0.086163 0.284448 0.085480
H40   H     H_    0.932049 0.087127 0.667834 0.085616
H41   H     H_    0.254329 0.630461 0.821691 0.096373
H42   H     H_    0.733388 0.647427 0.170631 0.083057
H43   H     H_    0.775708 0.152499 0.826588 0.080711
H44   H     H_    0.247757 0.128965 0.176396 0.096744
H45   H     H_    0.122042 0.422245 0.472463 0.197349
H46   H     H_    0.956795 0.418626 0.340527 0.200942
H47   H     H_    0.542133 0.918415 0.661220 0.200301
H48   H     H_    0.377339 0.921815 0.526453 0.198534
N1    N     N_R   0.394180 0.396910 0.943210 -0.038619
N2    N     N_R   0.605820 0.396910 0.056790 -0.044324
N3    N     N_R   0.894180 0.896910 0.943210 -0.044632
N4    N     N_R   0.105820 0.896910 0.056790 -0.039583
N5    N     N_R   0.450950 0.603070 0.056740 -0.037951
N6    N     N_R   0.549050 0.603070 0.943260 -0.039946
N7    N     N_R   0.950950 0.103070 0.056740 -0.037625
N8    N     N_R   0.049050 0.103070 0.943260 -0.040201
N9    N     N_R   0.525650 0.471570 0.206150 -0.045266
N10   N     N_R   0.474350 0.471570 0.793850 -0.044882
N11   N     N_R   0.025650 0.971570 0.206150 -0.042124
N12   N     N_R   0.974350 0.971570 0.793850 -0.042058
N13   N     N_R   0.319480 0.528420 0.793810 -0.064639
N14   N     N_R   0.680520 0.528420 0.206190 -0.064577
N15   N     N_R   0.819480 0.028420 0.793810 -0.063887
N16   N     N_R   0.180520 0.028420 0.206190 -0.066590
N17   N     N_R   0.525640 0.528390 0.206120 -0.037818
N18   N     N_R   0.474360 0.528390 0.793880 -0.039790
N19   N     N_R   0.025640 0.028390 0.206120 -0.040165
N20   N     N_R   0.974360 0.028390 0.793880 -0.037125
N21   N     N_R   0.319490 0.471590 0.793840 -0.092528
N22   N     N_R   0.680510 0.471590 0.206160 -0.101638
N23   N     N_R   0.819490 0.971590 0.793840 -0.101029
N24   N     N_R   0.180510 0.971590 0.206160 -0.093873
N25   N     N_R   0.394130 0.603080 0.943110 -0.036537
N26   N     N_R   0.605870 0.603080 0.056890 -0.037179
N27   N     N_R   0.894130 0.103080 0.943110 -0.035519
N28   N     N_R   0.105870 0.103080 0.056890 -0.037442
N29   N     N_R   0.450990 0.396900 0.056840 -0.041726
N30   N     N_R   0.549010 0.396900 0.943160 -0.049914
N31   N     N_R   0.950990 0.896900 0.056840 -0.048828
N32   N     N_R   0.049010 0.896900 0.943160 -0.043495
Ni1   Ni    Ni4+2 0.434860 0.434850 0.869700 0.227656
Ni2   Ni    Ni4+2 0.565140 0.434850 0.130300 0.205399
Ni3   Ni    Ni4+2 0.934860 0.934850 0.869700 0.203746
Ni4   Ni    Ni4+2 0.065140 0.934850 0.130300 0.232705
Ni5   Ni    Ni4+2 0.565130 0.565140 0.130240 0.204649
Ni6   Ni    Ni4+2 0.434870 0.565140 0.869760 0.200342
Ni7   Ni    Ni4+2 0.065130 0.065140 0.130240 0.203591
Ni8   Ni    Ni4+2 0.934870 0.065140 0.869760 0.201161
H49   H     H_    0.144058 0.676490 0.819336 0.108466
H50   H     H_    0.859004 0.671922 0.173969 0.106663
H51   H     H_    0.653962 0.183874 0.821920 0.105176
H52   H     H_    0.362845 0.169073 0.176438 0.107862
H53   H     H_    0.549807 0.248880 0.820894 0.107548
H54   H     H_    0.445660 0.248488 0.176853 0.105786
H55   H     H_    0.055649 0.751519 0.819671 0.106103
H56   H     H_    0.953158 0.745621 0.175757 0.107949
H57   H     H_    0.246060 0.588170 0.669478 0.142753
H58   H     H_    0.788318 0.588444 0.291277 0.138245
H59   H     H_    0.712166 0.088671 0.715813 0.139098
H60   H     H_    0.255539 0.088113 0.330791 0.144729
O1    O     O_3   0.224161 0.401781 0.663308 -0.647639
C101  C     C_3   0.149814 0.383070 0.669091 -0.372246
H61   H     H_    0.083350 0.405966 0.612188 0.167833
H62   H     H_    0.168493 0.386066 0.753812 0.154934
H63   H     H_    0.136065 0.339153 0.644848 0.184202
O2    O     O_3   0.793883 0.408065 0.221103 -0.655383
C102  C     C_3   0.802863 0.418296 0.133578 -0.279454
H64   H     H_    0.867943 0.441527 0.160218 0.145359
H65   H     H_    0.741811 0.441304 0.064928 0.149359
H66   H     H_    0.806743 0.378307 0.100871 0.180308
O3    O     O_3   0.705707 0.907514 0.779067 -0.655064
C103  C     C_3   0.697002 0.917020 0.866931 -0.280558
H67   H     H_    0.632386 0.940205 0.841021 0.144902
H68   H     H_    0.758476 0.939758 0.936070 0.150106
H69   H     H_    0.692474 0.876767 0.898726 0.179509
O4    O     O_3   0.275902 0.901662 0.335498 -0.644487
C104  C     C_3   0.350157 0.883577 0.329470 -0.370253
H70   H     H_    0.416632 0.906756 0.386331 0.167303
H71   H     H_    0.331278 0.886775 0.244679 0.154814
H72   H     H_    0.363975 0.839673 0.353602 0.184174
H73   H     H_    0.488971 0.334061 0.174756 0.083277
H74   H     H_    0.508542 0.335280 0.822736 0.098917
H75   H     H_    0.992296 0.833671 0.175420 0.102112
H76   H     H_    0.012089 0.835883 0.823211 0.083286

loop_
_geom_bond_atom_site_label_1
_geom_bond_atom_site_label_2
_ccdc_geom_bond_type
C37   H53   S    
C2    N2    A    
C49   H13   S    
C45   H29   S    
C88   N24   A    
C55   C59   A    
C95   H75   S    
O1    C101  S    
C6    C58   S    
C19   C20   A    
C89   N25   A    
N16   Ni7   S    
C71   H27   S    
C86   O2    S    
C83   H39   S    
C76   H36   S    
N2    Ni2   S    
C34   C58   A    
C55   H19   S    
C92   N28   A    
C104  H72   S    
C81   H37   S    
C12   C68   S    
C33   C39   A    
C10   C66   S    
C101  H62   S    
C72   H28   S    
N20   Ni8   S    
N23   Ni3   S    
C35   C37   A    
C38   C42   A    
C52   H16   S    
C69   C70   A    
N26   Ni5   S    
C40   H56   S    
C44   C99   S    
C53   H17   S    
C94   C98   A    
C95   C99   A    
C75   N11   A    
N29   Ni2   S    
C80   H60   S    
N5    N25   A    
C14   C78   A    
C12   C84   A    
C33   H49   S    
C94   N30   A    
C41   C49   A    
C26   H46   S    
C80   N16   A    
N27   Ni8   S    
C16   C80   A    
C61   C66   A    
C15   C79   A    
C20   C24   A    
N11   N19   A    
C96   H76   S    
C101  H63   S    
C102  H66   S    
C35   H51   S    
C103  H69   S    
C1    N1    A    
C8    C92   A    
C23   C27   A    
N11   Ni4   S    
N4    Ni4   S    
N15   N23   A    
N12   Ni3   S    
N32   Ni3   S    
C85   O1    S    
C6    C46   A    
N2    N30   A    
N13   N21   A    
C44   C52   A    
C15   C23   S    
C48   N8    A    
C69   H25   S    
C16   C24   S    
N18   Ni6   S    
N22   Ni2   S    
C84   H40   S    
N1    Ni1   S    
C17   C30   S    
C56   H20   S    
C29   H5    S    
C29   H9    S    
C31   H7    S    
C11   C75   A    
C4    N4    A    
C19   C32   S    
C7    C59   S    
N5    Ni5   S    
C11   C67   S    
C91   H43   S    
N8    Ni8   S    
C36   H52   S    
C77   N13   A    
C46   N6    A    
C35   C59   A    
C13   C77   A    
N25   Ni6   S    
C28   H48   S    
C79   H59   S    
C101  H61   S    
C74   N10   A    
C13   C21   S    
C102  H64   S    
C64   C67   A    
C34   H50   S    
C38   H54   S    
O4    C104  S    
C14   C86   A    
C16   C88   A    
C42   C97   S    
C1    C97   A    
C74   H34   S    
N19   Ni7   S    
C93   N29   A    
O2    C102  S    
C39   C43   A    
C11   C83   A    
C25   C26   A    
C6    C90   A    
C5    C45   A    
C10   C82   A    
C32   H12   S    
C56   C60   A    
C47   H31   S    
N15   Ni8   S    
C50   H14   S    
C7    C47   A    
N4    N32   A    
C19   C23   A    
C8    C48   A    
C29   C30   S    
C84   N20   A    
C81   N17   A    
N6    Ni6   S    
N24   Ni4   S    
N3    N31   A    
O3    C103  S    
N14   N22   A    
C85   N21   A    
C68   C72   A    
C87   N23   A    
N1    N29   A    
C17   C18   A    
C91   N27   A    
C18   C29   S    
C43   C100  S    
C79   N15   A    
N21   Ni1   S    
C90   H42   S    
C42   C50   A    
C95   N31   A    
C73   H33   S    
C78   N14   A    
C1    H1    S    
C54   H18   S    
C32   H8    S    
C14   C22   S    
C34   C40   A    
N16   N24   A    
N7    N27   A    
C45   N5    A    
N9    Ni2   S    
N9    N17   A    
C93   C97   A    
C7    C91   A    
C62   H22   S    
N10   N18   A    
N28   Ni7   S    
C94   H74   S    
N31   Ni4   S    
C54   C58   A    
C3    H3    S    
C65   C69   A    
C21   C25   A    
C63   C68   A    
C76   N12   A    
C33   C57   A    
C88   O4    S    
C62   C65   A    
N17   Ni5   S    
C18   C22   A    
C30   H10   S    
C87   O3    S    
C9    C73   A    
C31   C32   S    
C24   C28   A    
C61   H21   S    
C103  H68   S    
C36   C60   A    
C49   C55   A    
N8    N28   A    
C46   H30   S    
N14   Ni5   S    
C63   H23   S    
N3    Ni3   S    
C73   N9    A    
C104  H71   S    
C64   H24   S    
C90   N26   A    
C3    N3    A    
C4    C100  A    
C5    C57   S    
C82   N18   A    
C96   N32   A    
C12   C76   A    
C104  H70   S    
C71   C72   A    
C82   H38   S    
N7    Ni7   S    
C50   C56   A    
C8    C60   S    
C10   C74   A    
C70   H26   S    
C83   N19   A    
C66   C70   A    
C75   H35   S    
C39   H55   S    
C86   N22   A    
C43   C51   A    
C89   H41   S    
C96   C100  A    
C36   C38   A    
C53   C57   A    
C52   C54   A    
C4    H4    S    
C31   H11   S    
C67   C71   A    
N12   N20   A    
C37   C41   A    
C61   C62   A    
C92   H44   S    
N10   Ni1   S    
C9    C65   S    
N30   Ni1   S    
C51   H15   S    
C63   C64   A    
C3    C99   A    
C40   C44   A    
N6    N26   A    
C103  H67   S    
C2    C98   A    
C27   H47   S    
C22   C26   A    
C15   C87   A    
C13   C85   A    
C27   C28   A    
C102  H65   S    
C2    H2    S    
C41   C98   S    
C48   H32   S    
C25   H45   S    
C78   H58   S    
C51   C53   A    
C77   H57   S    
C20   C31   S    
C5    C89   A    
C30   H6    S    
C93   H73   S    
C9    C81   A    
C47   N7    A    
N13   Ni6   S    
C17   C21   A    
