data_mof_unit_17538.cif
_audit_creation_date              2012-12-11T17:05:34-0500
_audit_creation_method            fapswitch 2.2
_symmetry_space_group_name_H-M    P1
_symmetry_Int_Tables_number       1
_space_group_crystal_system       triclinic
_cell_length_a                    6.941559
_cell_length_b                    14.531338
_cell_length_c                    16.030201
_cell_angle_alpha                 90.295978
_cell_angle_beta                  89.97643
_cell_angle_gamma                 89.967175
_cell_volume                      1616.94664149

loop_
_atom_site_label
_atom_site_type_symbol
_atom_type_description
_atom_site_fract_x
_atom_site_fract_y
_atom_site_fract_z
_atom_type_partial_charge
O1    O     O_R   0.494380 0.415640 0.412830 -0.535519
O2    O     O_R   0.823960 0.405540 0.586560 -0.545825
O3    O     O_R   0.994270 0.584360 0.587170 -0.541090
C1    C     C_R   0.655194 0.383423 0.614937 0.703796
O4    O     O_R   0.824090 0.404620 0.413450 -0.544236
O5    O     O_R   0.994400 0.583430 0.412820 -0.539051
C2    C     C_R   0.655160 0.382008 0.384743 0.694238
O6    O     O_R   0.494250 0.416570 0.587180 -0.534675
O7    O     O_3   0.660800 0.558670 0.500000 -0.370240
V1    V     V_3+5 0.935650 0.489120 0.500000 1.382629
O8    O     O_R   0.324110 0.594460 0.413440 -0.539195
C3    C     C_R   0.155071 0.616143 0.384270 0.695998
O9    O     O_R   0.323980 0.595380 0.586550 -0.543334
C4    C     C_R   0.154738 0.617471 0.615724 0.654039
V2    V     V_3+5 0.435660 0.510880 0.500000 1.390210
O10   O     O_3   0.160640 0.441330 0.500000 -0.367045
C5    C     C_3   0.929369 0.705935 0.712189 -0.306664
H1    H     H_    0.847081 0.732476 0.657776 0.137266
H2    H     H_    0.859455 0.640624 0.731924 0.133774
C6    C     C_3   0.917062 0.776523 0.784369 -0.316868
H3    H     H_    0.842073 0.744514 0.838328 0.136213
H4    H     H_    0.828646 0.836350 0.764180 0.133426
H5    H     H_    0.157950 0.807841 0.604975 0.121407
H6    H     H_    0.138027 0.913164 0.712117 0.118900
C7    C     C_3   0.233422 0.780517 0.660851 -0.322752
C8    C     C_3   0.250583 0.652022 0.765070 -0.323193
C9    C     C_3   0.142573 0.687324 0.686650 0.116592
H7    H     H_    0.404441 0.638547 0.749686 0.136924
H8    H     H_    0.186617 0.585722 0.785671 0.118762
C10   C     C_3   0.121201 0.809457 0.811032 0.118904
C11   C     C_3   0.220371 0.851829 0.733247 -0.320528
C12   C     C_3   0.238749 0.723391 0.837510 -0.317801
H9    H     H_    0.170393 0.690990 0.892864 0.121537
H10   H     H_    0.387102 0.744099 0.856024 0.140418
H11   H     H_    0.387193 0.770273 0.643424 0.138379
H12   H     H_    0.367993 0.875639 0.749681 0.135976
C13   C     C_R   0.272734 0.815782 0.239919 0.101647
C14   C     C_R   0.118489 0.815548 0.183514 -0.114258
C15   C     C_R   0.967133 0.753342 0.198906 -0.179187
H13   H     H_    0.844952 0.750550 0.157263 0.131787
C16   C     C_R   0.978217 0.689578 0.264756 -0.175612
H14   H     H_    0.863655 0.639873 0.271997 0.126449
C17   C     C_R   0.141321 0.685801 0.317071 -0.113452
C18   C     C_R   0.284154 0.752418 0.304835 0.098196
C19   C     C_3   0.495493 0.740129 0.293084 -0.408550
C20   C     C_3   0.483194 0.809530 0.222736 -0.397029
H15   H     H_    0.531913 0.669493 0.271334 0.165602
H16   H     H_    0.579494 0.765381 0.347594 0.173920
H17   H     H_    0.513334 0.779416 0.160194 0.169478
H18   H     H_    0.559295 0.875109 0.236718 0.168433
C21   C     C_R   0.488032 0.306833 0.734690 0.044395
C22   C     C_R   0.646144 0.314255 0.681750 -0.094692
C23   C     C_R   0.797052 0.250442 0.695377 -0.205911
H19   H     H_    0.922410 0.250149 0.655257 0.126487
C24   C     C_R   0.785137 0.184502 0.760198 -0.191662
H20   H     H_    0.901710 0.135751 0.767636 0.120733
C25   C     C_R   0.622269 0.180467 0.813362 -0.134181
C26   C     C_R   0.476338 0.243619 0.796827 0.083216
C27   C     C_3   0.280295 0.274190 0.822877 0.301367
C28   C     C_3   0.295733 0.347081 0.753373 -0.464837
H21   H     H_    0.172541 0.219015 0.811213 0.042193
H22   H     H_    0.306753 0.419063 0.776681 0.174927
H23   H     H_    0.192539 0.336507 0.701402 0.145516
C29   C     C_R   0.469642 0.291675 0.277512 0.120364
C30   C     C_R   0.643456 0.309879 0.318966 -0.113287
C31   C     C_R   0.803572 0.254651 0.297591 -0.193090
H24   H     H_    0.938952 0.262667 0.330329 0.135207
C32   C     C_R   0.792419 0.190201 0.231598 -0.191411
H25   H     H_    0.919720 0.150645 0.215891 0.133357
C33   C     C_R   0.620954 0.179245 0.185039 -0.113061
C34   C     C_R   0.458664 0.228110 0.212392 0.112045
C35   C     C_3   0.324728 0.287646 0.163805 -0.427646
C36   C     C_3   0.335934 0.356845 0.235010 -0.418106
H26   H     H_    0.179844 0.256128 0.156751 0.170670
H27   H     H_    0.390860 0.312924 0.105016 0.184576
H28   H     H_    0.197708 0.365002 0.269246 0.173373
H29   H     H_    0.407267 0.422443 0.217348 0.164867
O11   O     O_R   0.771490 0.080820 0.910070 -0.544428
O12   O     O_R   0.441590 0.092730 0.083780 -0.536062
O13   O     O_R   0.271350 0.913900 0.084390 -0.535960
C37   C     C_R   0.610550 0.114704 0.113012 0.703488
O14   O     O_R   0.441780 0.091820 0.910670 -0.538843
O15   O     O_R   0.271540 0.912980 0.910040 -0.541320
C38   C     C_R   0.610604 0.113402 0.881859 0.702746
O16   O     O_R   0.771300 0.081740 0.084420 -0.541614
O17   O     O_3   0.604960 0.938700 0.997240 -0.371183
V3    V     V_3+5 0.330090 0.008230 0.997220 1.392289
O18   O     O_R   0.941820 0.901930 0.910640 -0.544829
C39   C     C_R   0.110683 0.879548 0.881746 0.649421
O19   O     O_R   0.941630 0.902840 0.083750 -0.542437
C40   C     C_R   0.110464 0.880813 0.112626 0.696918
V4    V     V_3+5 0.830090 0.986410 0.997190 1.369810
O20   O     O_3   0.105080 0.055990 0.997200 -0.372563
O21   O     O_3   0.282871 0.314138 0.903547 -0.567888
C41   C     C_3   0.098449 0.308601 0.940972 0.106185
H30   H     H_    0.116395 0.323379 0.008459 0.135248
H31   H     H_    0.036717 0.237964 0.936692 0.125980
C42   C     C_3   0.958715 0.380069 0.904942 -0.361687
H32   H     H_    0.024995 0.449587 0.908635 0.196942
H33   H     H_    0.928728 0.364062 0.838423 0.204882
C43   C     C_3   0.768257 0.380754 0.952631 -0.779788
H34   H     H_    0.701788 0.311277 0.951696 0.239717
H35   H     H_    0.667153 0.430012 0.923037 0.241852
H36   H     H_    0.792079 0.402222 0.018428 0.218917

loop_
_geom_bond_atom_site_label_1
_geom_bond_atom_site_label_2
_ccdc_geom_bond_type
C7    C11   S    
C31   C32   A    
C24   H20   S    
C8    C12   S    
C43   H34   S    
C16   H14   S    
O15   V3    S    
C41   H30   S    
C1    O6    A    
O12   V3    S    
O19   C40   A    
C41   C42   S    
C15   C16   A    
C6    C10   S    
C19   C20   S    
C18   C19   S    
C20   H17   S    
C8    C9    S    
C1    C22   S    
C28   H23   S    
C3    C17   S    
C10   C39   S    
O5    C3    A    
C14   C15   A    
O14   V3    S    
C5    C6    S    
C28   H22   S    
C29   C34   A    
C33   C37   S    
O8    V2    S    
O18   V4    S    
C32   H25   S    
C29   C36   S    
C33   C34   A    
O1    V2    S    
C27   O21   S    
C4    C9    S    
O7    V1    S    
C19   H15   S    
C31   H24   S    
C27   C28   S    
C43   H35   S    
O9    C4    A    
C16   C17   A    
C35   H27   S    
O16   V4    S    
C23   C24   A    
O15   C39   A    
C27   H21   S    
C21   C22   A    
C5    C9    S    
C35   H26   S    
C15   H13   S    
O4    C2    A    
O17   V3    S    
O11   V4    S    
C26   C27   S    
C23   H19   S    
C14   C40   S    
C12   H10   S    
O2    C1    A    
C17   C18   A    
C13   C14   A    
C2    C30   S    
O19   V4    S    
C5    H1    S    
C25   C38   S    
C21   C26   A    
C6    H3    S    
O3    C4    A    
O13   V3    S    
C7    H11   S    
C6    H4    S    
C42   H32   S    
C43   H36   S    
O14   C38   A    
C24   C25   A    
C36   H28   S    
C7    C9    S    
O2    V1    S    
C22   C23   A    
O12   C37   A    
C19   H16   S    
O1    C2    A    
C8    H7    S    
C35   C36   S    
O5    V1    S    
O8    C3    A    
C41   H31   S    
O6    V2    S    
C42   C43   S    
C20   H18   S    
C42   H33   S    
C29   C30   A    
C13   C18   A    
O9    V2    S    
O7    V2    S    
H6    C11   S    
O4    V1    S    
O3    V1    S    
V1    O10   S    
C12   H9    S    
C10   C12   S    
C25   C26   A    
C10   C11   S    
O13   C40   A    
V3    O20   S    
V4    O20   S    
C5    H2    S    
H5    C7    S    
O21   C41   S    
O11   C38   A    
C34   C35   S    
O18   C39   A    
C8    H8    S    
C32   C33   A    
C30   C31   A    
C36   H29   S    
C11   H12   S    
O17   V4    S    
C21   C28   S    
C13   C20   S    
C37   O16   A    
V2    O10   S    
