data_mof_unit_45103.cif
_audit_creation_date              2013-03-05T16:07:58-0500
_audit_creation_method            fapswitch 2.2
_symmetry_space_group_name_H-M    P1
_symmetry_Int_Tables_number       1
_space_group_crystal_system       triclinic
_cell_length_a                    6.951475
_cell_length_b                    14.614425
_cell_length_c                    16.023253
_cell_angle_alpha                 90.070167
_cell_angle_beta                  89.819116
_cell_angle_gamma                 90.163073
_cell_volume                      1627.81536664

loop_
_atom_site_label
_atom_site_type_symbol
_atom_site_description
_atom_site_fract_x
_atom_site_fract_y
_atom_site_fract_z
_atom_type_partial_charge
O1    O     O_R   0.494380 0.415640 0.412830 -0.575056
O2    O     O_R   0.823960 0.405540 0.586560 -0.603448
O3    O     O_R   0.994270 0.584360 0.587170 -0.584029
C1    C     C_R   0.654901 0.383374 0.615134 0.961534
O4    O     O_R   0.824090 0.404620 0.413450 -0.553405
O5    O     O_R   0.994400 0.583430 0.412820 -0.544718
C2    C     C_R   0.654831 0.382483 0.384542 1.026040
O6    O     O_R   0.494250 0.416570 0.587180 -0.609578
O7    O     O_3   0.660800 0.558670 0.500000 -0.256365
V1    V     V_3+5 0.935650 0.489120 0.500000 1.264355
O8    O     O_R   0.324110 0.594460 0.413440 -0.565056
C3    C     C_R   0.155520 0.616074 0.384431 1.036986
O9    O     O_R   0.323980 0.595380 0.586550 -0.613497
C4    C     C_R   0.154694 0.618104 0.614842 0.933925
V2    V     V_3+5 0.435660 0.510880 0.500000 1.247449
O10   O     O_3   0.160640 0.441330 0.500000 -0.267580
C5    C     C_3   0.072988 0.642153 0.768321 0.411913
H1    H     H_    0.183275 0.591456 0.787480 0.153780
C6    C     C_3   0.052814 0.714492 0.839669 -0.413986
H2    H     H_    0.129622 0.691552 0.896302 0.234534
H3    H     H_    0.900246 0.719920 0.859629 0.249201
H4    H     H_    0.863357 0.743782 0.645361 0.166515
H5    H     H_    0.840881 0.836721 0.758796 0.224096
C7    C     C_3   0.008926 0.768962 0.662683 -0.371586
C8    C     C_3   0.345343 0.730204 0.701003 -0.581520
C9    C     C_3   0.143655 0.687952 0.685217 -0.104859
H6    H     H_    0.396898 0.763600 0.642689 0.216253
H7    H     H_    0.451740 0.674752 0.711193 0.187385
C10   C     C_3   0.127397 0.809638 0.810190 -0.239845
C11   C     C_3   0.992279 0.837180 0.736811 -0.311806
C12   C     C_3   0.342976 0.798948 0.776083 0.572514
H8    H     H_    0.066087 0.805460 0.606937 0.197433
H9    H     H_    0.019772 0.908298 0.715777 0.202346
C13   C     C_R   0.231452 0.740164 0.178585 -0.101083
C14   C     C_R   0.114125 0.817264 0.184576 -0.390265
C15   C     C_R   0.993340 0.823029 0.257145 0.645808
C16   C     C_R   0.011252 0.757367 0.321730 -0.085186
H10   H     H_    0.925656 0.765344 0.377861 0.168531
C17   C     C_R   0.142463 0.684329 0.316420 -0.216456
C18   C     C_R   0.242589 0.675060 0.241197 0.035648
C19   C     C_3   0.444509 0.650137 0.218458 0.029832
C20   C     C_3   0.435731 0.724244 0.150790 0.613715
H11   H     H_    0.454538 0.580245 0.192476 0.109220
C21   C     C_R   0.492897 0.315999 0.741639 0.143535
C22   C     C_R   0.646893 0.317180 0.685082 -0.215982
C23   C     C_R   0.797852 0.254951 0.698957 -0.119901
H12   H     H_    0.919851 0.253265 0.657041 0.128421
C24   C     C_R   0.786548 0.189758 0.763484 -0.040968
H13   H     H_    0.900321 0.139924 0.769417 0.121388
C25   C     C_R   0.624290 0.184958 0.816226 -0.304113
C26   C     C_R   0.481722 0.251565 0.805701 0.219749
C27   C     C_3   0.270323 0.239614 0.793521 0.302697
C28   C     C_3   0.282845 0.310371 0.724292 -0.491542
H14   H     H_    0.228909 0.169812 0.772055 0.049799
H15   H     H_    0.207856 0.375702 0.738600 0.240304
H16   H     H_    0.253245 0.281640 0.661356 0.153425
C29   C     C_R   0.482827 0.304134 0.265757 0.080803
C30   C     C_R   0.642050 0.310696 0.318880 -0.267267
C31   C     C_R   0.787647 0.245139 0.309117 -0.160126
H17   H     H_    0.909909 0.246241 0.350865 0.186208
C32   C     C_R   0.783482 0.180032 0.243678 0.384731
C33   C     C_R   0.625401 0.177788 0.186469 -0.310545
C34   C     C_R   0.475586 0.239706 0.201145 0.023973
C35   C     C_3   0.388345 0.306829 0.141744 0.084983
C36   C     C_3   0.399787 0.377365 0.211411 0.043090
H18   H     H_    0.239694 0.287712 0.122765 0.173249
H19   H     H_    0.502399 0.434163 0.200291 0.129061
O11   O     O_R   0.771490 0.080820 0.910070 -0.607758
O12   O     O_R   0.441590 0.092730 0.083780 -0.573419
O13   O     O_R   0.271350 0.913900 0.084390 -0.583100
C37   C     C_R   0.611535 0.113055 0.114330 0.986685
O14   O     O_R   0.441780 0.091820 0.910670 -0.619288
O15   O     O_R   0.271540 0.912980 0.910040 -0.553312
C38   C     C_R   0.611068 0.114397 0.882401 1.061367
O16   O     O_R   0.771300 0.081740 0.084420 -0.575775
O17   O     O_3   0.604960 0.938700 0.997240 -0.198175
V3    V     V_3+5 0.330090 0.008230 0.997220 1.290214
O18   O     O_R   0.941820 0.901930 0.910640 -0.550082
C39   C     C_R   0.111849 0.879706 0.881394 0.939871
O19   O     O_R   0.941630 0.902840 0.083750 -0.573617
C40   C     C_R   0.109183 0.883807 0.114737 1.016197
V4    V     V_3+5 0.830090 0.986410 0.997190 1.315400
O20   O     O_3   0.105080 0.055990 0.997200 -0.285103
O21   O     O_3   0.900526 0.592800 0.757551 -0.708656
H20   H     H_    0.796556 0.637107 0.745591 0.337164
N1    N     N_R   0.416000 0.889053 0.745329 0.206268
O22   O     O_R   0.546311 0.935975 0.784802 -0.413231
O23   O     O_R   0.351246 0.923382 0.675962 -0.443145
O24   O     O_3   0.863381 0.892710 0.270805 -0.698823
H21   H     H_    0.868302 0.936828 0.224417 0.333031
N2    N     N_R   0.582693 0.667385 0.285020 0.256723
O25   O     O_R   0.566619 0.738212 0.333916 -0.400105
O26   O     O_R   0.705983 0.603860 0.302977 -0.375930
N3    N     N_R   0.451977 0.685840 0.066730 0.255228
O27   O     O_R   0.621421 0.677652 0.032889 -0.261124
O28   O     O_R   0.306485 0.643985 0.032651 -0.358239
O29   O     O_3   0.562490 0.798693 0.162584 -0.696768
H22   H     H_    0.510177 0.839252 0.206813 0.343564
O30   O     O_3   0.164920 0.272030 0.862072 -0.645548
H23   H     H_    0.152070 0.219625 0.900964 0.344231
N4    N     N_R   0.945488 0.120171 0.235854 0.210163
O31   O     O_R   0.007920 0.078401 0.302083 -0.400178
O32   O     O_R   0.063640 0.131235 0.173617 -0.401717
N5    N     N_R   0.514019 0.329026 0.070936 0.243546
O33   O     O_R   0.443907 0.329246 0.995810 -0.334587
O34   O     O_R   0.693989 0.350757 0.082064 -0.336332
N6    N     N_R   0.209755 0.408223 0.238410 0.230178
O35   O     O_R   0.107361 0.459043 0.189057 -0.333436
O36   O     O_R   0.148095 0.391870 0.313592 -0.386288
N7    N     N_R   0.468746 0.760195 0.842547 0.202185
O37   O     O_R   0.465424 0.673002 0.859207 -0.385129
O38   O     O_R   0.590768 0.809864 0.883721 -0.327814

loop_
_geom_bond_atom_site_label_1
_geom_bond_atom_site_label_2
_geom_bond_distance
_ccdc_geom_bond_type
C15   O24   1.380052 S    
C8    C12   1.566492 S    
N4    O31   1.301212 A    
N6    O36   1.299588 A    
C19   C20   1.534913 S    
O12   V3    2.011622 S    
C14   C15   1.434629 A    
C13   C20   1.505536 S    
C1    O6    1.299969 A    
N5    O34   1.302609 A    
O29   H22   0.992175 S    
C14   C40   1.484008 S    
C22   C23   1.408950 A    
C21   C22   1.400472 A    
C8    H7    1.111277 S    
C10   C11   1.561071 S    
C13   C18   1.386003 A    
C5    C9    1.568010 S    
C15   C16   1.418169 A    
C6    H3    1.109809 S    
C16   H10   1.083204 S    
C7    C9    1.555206 S    
C25   C38   1.482462 S    
O5    C3    1.297397 A    
N1    O23   1.302133 A    
V3    O20   1.714634 S    
O11   C38   1.299123 A    
V2    O10   2.162645 S    
C13   C14   1.395889 A    
O12   C37   1.313316 A    
O13   C40   1.301882 A    
N7    O37   1.302384 A    
O14   V3    2.002591 S    
O8    V2    2.008316 S    
C21   C28   1.489283 S    
C6    H2    1.107142 S    
C36   H19   1.107143 S    
N6    O35   1.300617 A    
O1    V2    2.012392 S    
O7    V1    2.166711 S    
C2    C30   1.487569 S    
C1    C22   1.482249 S    
C24   C25   1.408913 A    
C31   H17   1.083306 S    
N4    O32   1.299875 A    
C12   N1    1.493570 S    
O1    C2    1.297558 A    
O9    C4    1.303499 A    
O13   V3    2.004002 S    
C19   H11   1.104846 S    
N3    O27   1.300912 A    
N5    O33   1.300124 A    
C27   H14   1.113515 S    
C29   C34   1.399506 A    
N7    O38   1.296346 A    
O17   V3    2.166696 S    
C28   H15   1.112398 S    
C23   C24   1.408682 A    
C31   C32   1.415349 A    
C26   C27   1.492780 S    
H5    C11   1.108781 S    
O21   H20   0.991074 S    
O14   C38   1.301416 A    
C20   O29   1.411055 S    
O17   V4    1.711470 S    
C17   C18   1.396573 A    
O4    C2    1.305569 A    
O18   C39   1.311647 A    
C25   C26   1.401832 A    
C8    C9    1.551736 S    
C35   H18   1.112862 S    
C32   N4    1.433103 S    
C7    H8    1.112644 S    
C33   C34   1.400714 A    
N2    O26   1.298448 A    
O18   V4    2.011285 S    
O30   H23   0.991636 S    
C10   C39   1.535883 S    
C5    H1    1.111860 S    
O15   C39   1.295782 A    
C4    C9    1.522019 S    
N3    O28   1.301687 A    
O3    C4    1.297264 A    
C21   C26   1.395665 A    
O19   V4    2.008199 S    
C24   H13   1.081150 S    
C19   N2    1.458836 S    
O6    V2    2.007090 S    
O9    V2    2.011328 S    
H4    C7    1.111680 S    
O2    V1    2.002612 S    
N2    O25   1.302247 A    
C27   C28   1.519562 S    
N1    O22   1.299955 A    
C28   H16   1.111461 S    
C35   N5    1.465848 S    
C23   H12   1.080472 S    
C18   C19   1.494986 S    
C11   H9    1.108907 S    
C20   N3    1.462700 S    
C29   C36   1.498619 S    
O19   C40   1.298595 A    
O5    V1    2.003929 S    
O8    C3    1.302000 A    
O16   V4    2.014064 S    
C8    H6    1.112527 S    
C27   O30   1.401221 S    
C5    O21   1.408320 S    
O11   V4    2.007440 S    
C35   C36   1.520635 S    
C3    C17   1.481429 S    
C30   C31   1.403891 A    
O4    V1    2.011672 S    
C16   C17   1.408326 A    
O3    V1    2.012433 S    
V1    O10   1.714685 S    
C37   O16   1.292891 A    
C29   C30   1.401419 A    
O2    C1    1.300187 A    
C5    C6    1.562424 S    
C12   N7    1.493137 S    
C33   C37   1.495955 S    
O7    V2    1.712007 S    
C32   C33   1.433541 A    
C7    C11   1.554040 S    
C34   C35   1.498443 S    
C10   C12   1.601500 S    
V4    O20   2.162665 S    
O15   V3    2.012546 S    
O24   H21   0.985017 S    
C36   N6    1.461123 S    
C6    C10   1.556077 S    
