data_mof_unit_11699.cif
_audit_creation_date              2012-12-11T14:45:24-0500
_audit_creation_method            fapswitch 2.2
_symmetry_space_group_name_H-M    P1
_symmetry_Int_Tables_number       1
_space_group_crystal_system       triclinic
_cell_length_a                    24.925608
_cell_length_b                    7.1629
_cell_length_c                    14.312201
_cell_angle_alpha                 90.163801
_cell_angle_beta                  102.863521
_cell_angle_gamma                 92.123703
_cell_volume                      2489.29237584

loop_
_atom_site_label
_atom_site_type_symbol
_atom_type_description
_atom_site_fract_x
_atom_site_fract_y
_atom_site_fract_z
_atom_type_partial_charge
O1    O     O_R   0.319150 0.364170 0.330530 -0.538636
O2    O     O_R   0.680850 0.635830 0.669470 -0.538608
O3    O     O_R   0.180850 0.864170 0.169470 -0.542256
O4    O     O_R   0.819150 0.135830 0.830530 -0.542246
O5    O     O_R   0.210330 0.696850 0.354180 -0.535591
O6    O     O_R   0.789670 0.303150 0.645820 -0.535592
O7    O     O_R   0.289670 0.196850 0.145820 -0.543094
O8    O     O_R   0.710330 0.803150 0.854180 -0.543193
C1    C     C_R   0.198129 0.523770 0.379656 0.694620
C2    C     C_R   0.801876 0.476230 0.620350 0.694662
C3    C     C_R   0.302190 0.026659 0.120715 0.693151
C4    C     C_R   0.697829 0.973340 0.879310 0.693045
O9    O     O_R   0.320550 0.694110 0.341970 -0.546236
O10   O     O_R   0.679450 0.305890 0.658030 -0.546223
O11   O     O_R   0.179450 0.194110 0.158030 -0.539852
O12   O     O_R   0.820550 0.805890 0.841970 -0.539932
O13   O     O_R   0.291860 0.861000 0.157170 -0.534487
O14   O     O_R   0.708140 0.139000 0.842830 -0.534459
O15   O     O_R   0.208140 0.361000 0.342830 -0.541670
O16   O     O_R   0.791860 0.639000 0.657170 -0.541627
C5    C     C_R   0.342128 0.529454 0.362518 0.705420
C6    C     C_R   0.657870 0.470544 0.637487 0.705487
C7    C     C_R   0.158217 0.021608 0.137199 0.707044
C8    C     C_R   0.841782 0.978392 0.862801 0.706962
O17   O     O_3   0.240460 0.529330 0.189380 -0.377341
O18   O     O_3   0.759540 0.470670 0.810620 -0.377403
O19   O     O_3   0.259540 0.029330 0.310620 -0.378906
O20   O     O_3   0.740460 0.970670 0.689380 -0.378851
V1    V     V_3+5 0.251770 0.805510 0.261240 1.409071
V2    V     V_3+5 0.748230 0.194490 0.738760 1.409120
V3    V     V_3+5 0.248230 0.305510 0.238760 1.400633
V4    V     V_3+5 0.751770 0.694490 0.761240 1.400446
C9    C     C_R   0.102549 0.996459 0.074229 -0.048639
C10   C     C_R   0.897450 0.003536 0.925775 -0.048705
C11   C     C_R   0.398389 0.537121 0.425050 -0.051523
C12   C     C_R   0.601606 0.462870 0.574966 -0.051532
C13   C     C_R   0.965422 0.208803 0.030757 -0.208506
C14   C     C_R   0.034575 0.791183 0.969255 -0.208560
C15   C     C_R   0.529162 0.284230 0.463775 -0.208112
C16   C     C_R   0.470830 0.715749 0.536253 -0.208072
C17   C     C_R   0.911433 0.169231 0.980493 -0.155753
C18   C     C_R   0.088564 0.830751 0.019522 -0.155919
C19   C     C_R   0.583630 0.305240 0.515461 -0.156259
C20   C     C_R   0.416363 0.694741 0.484563 -0.156256
C21   C     C_R   0.938474 0.875400 0.923925 -0.245247
C22   C     C_R   0.061525 0.124597 0.076077 -0.245155
C23   C     C_R   0.563966 0.601655 0.580235 -0.245428
C24   C     C_R   0.436029 0.398333 0.419785 -0.245437
C25   C     C_R   0.993160 0.915691 0.973277 0.153623
C26   C     C_R   0.006838 0.084301 0.026730 0.153556
C27   C     C_R   0.508819 0.580226 0.529200 0.152784
C28   C     C_R   0.491174 0.419757 0.470825 0.152787
H1    H     H_    0.071645 0.251518 0.118841 0.120124
H2    H     H_    0.928355 0.748483 0.881158 0.120122
H3    H     H_    0.422978 0.277162 0.373633 0.121758
H4    H     H_    0.577017 0.722830 0.626384 0.121765
H5    H     H_    0.119489 0.729859 0.016551 0.129835
H6    H     H_    0.880506 0.270113 0.983470 0.129827
H7    H     H_    0.388256 0.803590 0.490634 0.130311
H8    H     H_    0.611736 0.196389 0.509390 0.130351
H9    H     H_    0.974871 0.337979 0.071736 0.116844
H10   H     H_    0.025126 0.662003 0.928280 0.116839
H11   H     H_    0.516658 0.160901 0.419050 0.117478
H12   H     H_    0.483333 0.839075 0.580980 0.117463
C29   C     C_R   0.665745 0.976629 0.953601 -0.072771
C30   C     C_R   0.334278 0.023298 0.046433 -0.072808
C31   C     C_R   0.833899 0.489414 0.546160 -0.073643
C32   C     C_R   0.166107 0.510597 0.453845 -0.073651
C33   C     C_R   0.657824 0.964026 0.118927 -0.197327
C34   C     C_R   0.342179 0.035360 0.881090 -0.197329
C35   C     C_R   0.841600 0.510691 0.380976 -0.193125
C36   C     C_R   0.158397 0.489394 0.619030 -0.192908
C37   C     C_R   0.690735 0.962201 0.051602 -0.007869
C38   C     C_R   0.309287 0.037507 0.948436 -0.007952
C39   C     C_R   0.808611 0.504581 0.448281 -0.008185
C40   C     C_R   0.191392 0.495370 0.551727 -0.008218
C41   C     C_R   0.608661 0.991993 0.924417 -0.228383
C42   C     C_R   0.391357 0.007874 0.075614 -0.228421
C43   C     C_R   0.891222 0.484423 0.575331 -0.226517
C44   C     C_R   0.108783 0.515726 0.424672 -0.226508
C45   C     C_R   0.574571 0.990529 0.991384 0.085536
C46   C     C_R   0.425433 0.008957 0.008628 0.085574
C47   C     C_R   0.925285 0.495376 0.508487 0.084506
C48   C     C_R   0.074719 0.504875 0.491510 0.084427
C49   C     C_R   0.600449 0.976035 0.089798 0.124128
C50   C     C_R   0.399549 0.023260 0.910207 0.124077
C51   C     C_R   0.899163 0.507151 0.410075 0.125947
C52   C     C_R   0.100837 0.493088 0.589925 0.126044
C53   C     C_R   0.515858 0.001669 0.963964 0.064130
C54   C     C_R   0.484140 0.997665 0.036034 0.064134
C55   C     C_R   0.984176 0.495009 0.536020 0.064257
C56   C     C_R   0.015828 0.505328 0.463970 0.064250
C57   C     C_R   0.512201 0.982684 0.133000 -0.189902
C58   C     C_R   0.487793 0.016398 0.866993 -0.189863
C59   C     C_R   0.987517 0.515032 0.366884 -0.190086
C60   C     C_R   0.012487 0.485380 0.633115 -0.190100
C61   C     C_R   0.569006 0.972142 0.158911 -0.208964
C62   C     C_R   0.430986 0.026896 0.841083 -0.208990
C63   C     C_R   0.930534 0.516421 0.340929 -0.205656
C64   C     C_R   0.069466 0.483947 0.659073 -0.205483
H13   H     H_    0.588544 0.960101 0.234235 0.118114
H14   H     H_    0.411442 0.038730 0.765749 0.118121
H15   H     H_    0.910797 0.524963 0.265550 0.115321
H16   H     H_    0.089200 0.475433 0.734453 0.115140
H17   H     H_    0.407663 0.997795 0.151616 0.099848
H18   H     H_    0.592363 0.002400 0.848433 0.099895
H19   H     H_    0.092352 0.528140 0.348832 0.100075
H20   H     H_    0.907649 0.472022 0.651174 0.100059
H21   H     H_    0.677083 0.953122 0.194495 0.124669
H22   H     H_    0.322907 0.046116 0.805516 0.124668
H23   H     H_    0.822242 0.521633 0.305453 0.123473
H24   H     H_    0.177749 0.478422 0.694553 0.123428
H25   H     H_    0.491630 0.978186 0.191568 0.119849
H26   H     H_    0.508358 0.020606 0.808414 0.119820
H27   H     H_    0.007992 0.521723 0.308230 0.119767
H28   H     H_    0.992014 0.478779 0.691771 0.119756
C65   C     C_R   0.249113 0.053779 0.914315 0.070743
C66   C     C_R   0.217254 0.906797 0.861720 -0.150246
C67   C     C_R   0.160570 0.923767 0.827373 -0.120958
C68   C     C_R   0.135459 0.087747 0.844730 -0.078656
C69   C     C_R   0.166989 0.235029 0.896481 -0.142873
C70   C     C_R   0.223671 0.218568 0.930989 -0.111680
H29   H     H_    0.236289 0.779296 0.847567 0.109600
H30   H     H_    0.136126 0.809883 0.787250 0.113691
H31   H     H_    0.091579 0.100611 0.818188 0.118588
H32   H     H_    0.147535 0.362149 0.909639 0.102604
H33   H     H_    0.247768 0.334717 0.969759 0.122467
C71   C     C_R   0.750924 0.946320 0.085782 0.070689
C72   C     C_R   0.776539 0.782166 0.068680 -0.112259
C73   C     C_R   0.833232 0.766092 0.103294 -0.142822
C74   C     C_R   0.864591 0.913052 0.155631 -0.078786
C75   C     C_R   0.839304 0.076340 0.173455 -0.121049
C76   C     C_R   0.782617 0.092972 0.138964 -0.150004
H34   H     H_    0.752575 0.666170 0.029535 0.122875
H35   H     H_    0.852822 0.639496 0.089783 0.102900
H36   H     H_    0.908475 0.900455 0.182278 0.118625
H37   H     H_    0.863614 0.189930 0.214066 0.113892
H38   H     H_    0.763448 0.219938 0.153470 0.109677
C77   C     C_R   0.251779 0.483010 0.585804 0.071618
C78   C     C_R   0.279046 0.329609 0.559657 -0.125148
C79   C     C_R   0.335670 0.314225 0.595365 -0.138397
C80   C     C_R   0.365396 0.451206 0.657622 -0.080833
C81   C     C_R   0.338535 0.603717 0.684343 -0.124321
C82   C     C_R   0.281894 0.619502 0.648951 -0.142766
H39   H     H_    0.256366 0.220497 0.513029 0.128232
H40   H     H_    0.356476 0.195763 0.575034 0.108267
H41   H     H_    0.409226 0.439116 0.685152 0.119431
H42   H     H_    0.361557 0.709250 0.732822 0.117361
H43   H     H_    0.261513 0.737781 0.670715 0.111100
C83   C     C_R   0.748220 0.516743 0.414212 0.071684
C84   C     C_R   0.718128 0.379982 0.351215 -0.142818
C85   C     C_R   0.661480 0.395578 0.315817 -0.124321
C86   C     C_R   0.634590 0.548166 0.342387 -0.080807
C87   C     C_R   0.664294 0.685394 0.404510 -0.138476
C88   C     C_R   0.720924 0.670194 0.440227 -0.125133
H44   H     H_    0.738532 0.261639 0.329577 0.111004
H45   H     H_    0.638473 0.289834 0.267455 0.117310
H46   H     H_    0.590755 0.560113 0.314850 0.119437
H47   H     H_    0.643465 0.803900 0.424733 0.108248
H48   H     H_    0.743587 0.779471 0.486762 0.128136

loop_
_geom_bond_atom_site_label_1
_geom_bond_atom_site_label_2
_ccdc_geom_bond_type
O17   V3    S    
C24   H3    S    
C63   H15   S    
C36   H24   S    
O1    C5    A    
O19   V1    S    
O13   V1    S    
O3    C7    A    
C73   H35   S    
C64   H16   S    
C44   C48   A    
O15   V3    S    
C71   C72   A    
C58   H26   S    
C14   C25   A    
C67   H30   S    
O7    C3    A    
C44   H19   S    
C42   H17   S    
C9    C18   A    
O9    V1    S    
C41   H18   S    
C17   H6    S    
C14   C18   A    
O4    C8    A    
C59   C63   A    
C58   C62   A    
C39   C83   S    
C81   C82   A    
C30   C38   A    
O1    V3    S    
C29   C37   A    
C12   C23   A    
O2    V4    S    
C70   H33   S    
O3    V1    S    
C66   C67   A    
C34   H22   S    
C55   C60   A    
C33   H21   S    
C1    O15   A    
C59   H27   S    
C75   C76   A    
C7    C9    S    
C35   H23   S    
C34   C38   A    
C84   C85   A    
C33   C37   A    
O14   V2    S    
C41   C45   A    
C16   C20   A    
C51   C63   A    
C3    C30   S    
C36   C40   A    
C45   C53   A    
O11   C7    A    
C15   C28   A    
C76   H38   S    
O12   C8    A    
C9    C22   A    
C10   C17   A    
C71   C76   A    
O10   V2    S    
C11   C24   A    
C18   H5    S    
C36   C52   A    
C45   C49   A    
O5    V1    S    
C81   H42   S    
C30   C42   A    
C77   C78   A    
O7    V3    S    
C86   H46   S    
C27   C28   A    
O8    V4    S    
C31   C43   A    
C78   C79   A    
C74   H36   S    
C2    O16   A    
C55   C56   A    
C68   H31   S    
C15   C19   A    
C75   H37   S    
C2    C31   S    
C56   C59   A    
C8    C10   S    
C78   H39   S    
C65   C70   A    
O5    C1    A    
C82   H43   S    
C62   H14   S    
C29   C41   A    
C77   C82   A    
C42   C46   A    
C13   H9    S    
C6    C12   S    
C21   C25   A    
O8    C4    A    
C87   C88   A    
O9    C5    A    
C10   C21   A    
C57   H25   S    
C84   H44   S    
C48   C56   A    
C11   C20   A    
C69   C70   A    
C52   C64   A    
C79   H40   S    
C35   C51   A    
C87   H47   S    
C19   H8    S    
O6    V2    S    
C21   H2    S    
C83   C88   A    
C31   C39   A    
C32   C44   A    
C16   C27   A    
C57   C61   A    
C33   C49   A    
C68   C69   A    
C54   C57   A    
C72   C73   A    
O16   V4    S    
C40   C77   S    
C38   C65   S    
C85   H45   S    
C3    O13   A    
C88   H48   S    
C83   C84   A    
C80   H41   S    
C48   C52   A    
C46   C54   A    
C47   C51   A    
C53   C58   A    
C23   C27   A    
C67   C68   A    
O11   V3    S    
C5    C11   S    
C32   C40   A    
C37   C71   S    
C15   H11   S    
C4    C29   S    
C22   C26   A    
C65   C66   A    
C16   H12   S    
O10   C6    A    
O20   V2    S    
C73   C74   A    
C53   C54   A    
C1    C32   S    
C69   H32   S    
C46   C50   A    
O2    C6    A    
C35   C39   A    
C13   C26   A    
O12   V4    S    
C60   C64   A    
C22   H1    S    
C43   H20   S    
C66   H29   S    
C47   C55   A    
C13   C17   A    
C50   C62   A    
O4    V2    S    
C49   C61   A    
O6    C2    A    
C72   H34   S    
C43   C47   A    
C24   C28   A    
C85   C86   A    
C25   C26   A    
C4    O14   A    
C80   C81   A    
C60   H28   S    
C12   C19   A    
C20   H7    S    
C86   C87   A    
C79   C80   A    
O18   V4    S    
C61   H13   S    
C74   C75   A    
C23   H4    S    
C14   H10   S    
C34   C50   A    
