data_mof_unit_14187.cif
_audit_creation_date              2012-12-11T14:34:04-0500
_audit_creation_method            fapswitch 2.2
_symmetry_space_group_name_H-M    P1
_symmetry_Int_Tables_number       1
_space_group_crystal_system       triclinic
_cell_length_a                    13.998243
_cell_length_b                    14.007803
_cell_length_c                    27.285471
_cell_angle_alpha                 90.076281
_cell_angle_beta                  90.110725
_cell_angle_gamma                 119.388821
_cell_volume                      4661.70940643

loop_
_atom_site_label
_atom_site_type_symbol
_atom_type_description
_atom_site_fract_x
_atom_site_fract_y
_atom_site_fract_z
_atom_type_partial_charge
C1    C     C_R   0.234544 0.787417 0.568739 0.538578
C2    C     C_R   0.214992 0.451018 0.569977 0.546301
C3    C     C_R   0.551356 0.764381 0.569290 0.545619
C4    C     C_3   0.598280 0.719406 0.794349 -0.275960
C5    C     C_3   0.200714 0.945352 0.782991 -0.261931
C6    C     C_3   0.078421 0.308997 0.788670 -0.267278
C7    C     C_3   0.594377 0.709238 0.737580 -0.267586
C8    C     C_3   0.201351 0.936372 0.726492 -0.283058
C9    C     C_3   0.086199 0.316163 0.732482 -0.275938
C10   C     C_1   0.695707 0.850514 0.862618 0.034941
C11   C     C_1   0.131506 0.843932 0.859554 0.048426
C12   C     C_1   0.171866 0.314028 0.864625 0.041668
C13   C     C_1   0.623034 0.808369 0.660026 0.018161
C14   C     C_1   0.179716 0.813001 0.657871 0.003801
C15   C     C_1   0.206345 0.397212 0.662906 0.019798
C16   C     C_1   0.596539 0.792432 0.617545 0.061943
C17   C     C_1   0.201708 0.805454 0.615901 0.049004
C18   C     C_1   0.206031 0.415162 0.619722 0.066620
C19   C     C_R   0.107275 0.224193 0.087540 0.590088
C20   C     C_R   0.776573 0.884125 0.087810 0.586453
C21   C     C_R   0.116589 0.893149 0.087791 0.589012
C22   C     C_R   0.107597 0.221465 0.951462 0.573296
C23   C     C_R   0.777266 0.885659 0.951888 0.581910
C24   C     C_R   0.112823 0.893405 0.950704 0.568516
C25   C     C_R   0.627970 0.899194 0.362750 -0.126703
C26   C     C_R   0.100733 0.728399 0.362347 -0.127309
C27   C     C_R   0.272501 0.372083 0.362310 -0.127915
C28   C     C_R   0.654282 0.915692 0.312985 0.014718
C29   C     C_R   0.084478 0.738626 0.312546 0.014601
C30   C     C_R   0.262459 0.345998 0.312448 0.014976
C31   C     C_R   0.683695 0.934219 0.210292 0.016019
C32   C     C_R   0.067988 0.750426 0.209767 0.015912
C33   C     C_R   0.250674 0.317477 0.209642 0.015936
C34   C     C_R   0.232871 0.788151 0.431870 0.546168
C35   C     C_R   0.212006 0.444632 0.431787 0.548960
C36   C     C_R   0.555159 0.766714 0.431794 0.550950
C37   C     C_R   0.674286 0.014936 0.237518 -0.084031
C38   C     C_R   0.988588 0.659837 0.236320 -0.083982
C39   C     C_R   0.341290 0.327115 0.236490 -0.085101
C40   C     C_R   0.658253 0.004862 0.288132 -0.145341
C41   C     C_R   0.997733 0.653442 0.286993 -0.145290
C42   C     C_R   0.347672 0.342743 0.287171 -0.146070
C43   C     C_R   0.696417 0.940018 0.158565 0.239388
C44   C     C_R   0.063350 0.757777 0.158012 0.238565
C45   C     C_R   0.243131 0.304973 0.157897 0.238248
C46   C     C_R   0.720310 0.863875 0.135152 -0.011071
C47   C     C_R   0.137757 0.857752 0.135204 -0.011700
C48   C     C_R   0.143037 0.280994 0.134825 -0.011368
C49   C     C_R   0.647154 0.735953 0.361776 -0.126449
C50   C     C_R   0.259410 0.911101 0.362767 -0.126169
C51   C     C_R   0.089725 0.351464 0.362088 -0.125950
C52   C     C_R   0.669797 0.749221 0.312037 0.016953
C53   C     C_R   0.246534 0.920972 0.312992 0.017165
C54   C     C_R   0.080159 0.329382 0.312254 0.016934
C55   C     C_R   0.670551 0.837870 0.287069 0.069150
C56   C     C_R   0.160519 0.833129 0.287298 0.069176
C57   C     C_R   0.168036 0.329446 0.286870 0.069273
C58   C     C_R   0.683812 0.670550 0.286384 -0.127007
C59   C     C_R   0.323481 0.014139 0.288016 -0.127086
C60   C     C_R   0.987201 0.315335 0.286947 -0.128041
C61   C     C_R   0.694913 0.677448 0.235849 -0.097840
C62   C     C_R   0.317843 0.018777 0.237426 -0.098878
C63   C     C_R   0.982659 0.305097 0.236348 -0.098154
C64   C     C_R   0.693998 0.764129 0.210700 0.004743
C65   C     C_R   0.234005 0.931145 0.211562 0.004284
C66   C     C_R   0.070133 0.306692 0.210797 0.005659
C67   C     C_3   0.595626 0.888817 0.736454 -0.213184
C68   C     C_3   0.227171 0.773575 0.739801 -0.217088
C69   C     C_3   0.261550 0.488306 0.745806 -0.220724
C70   C     C_R   0.683594 0.846083 0.235995 0.018557
C71   C     C_R   0.153442 0.838407 0.236180 0.018610
C72   C     C_R   0.162793 0.317018 0.235742 0.018563
C73   C     C_R   0.708846 0.772137 0.160734 -0.142750
C74   C     C_R   0.227279 0.938168 0.161520 -0.143407
C75   C     C_R   0.062949 0.292452 0.160759 -0.141018
C76   C     C_R   0.617618 0.805436 0.386321 -0.000117
C77   C     C_R   0.192588 0.811756 0.386571 -0.000793
C78   C     C_R   0.188903 0.381758 0.386294 -0.000649
C79   C     C_3   0.772783 0.883425 0.723839 0.180533
C80   C     C_3   0.035289 0.744712 0.724858 0.163317
C81   C     C_3   0.264894 0.311128 0.729613 0.160718
C82   C     C_3   0.788548 0.874658 0.780963 0.197350
C83   C     C_3   0.021671 0.768035 0.780719 0.173431
C84   C     C_3   0.240325 0.275643 0.785319 0.168198
C85   C     C_1   0.725612 0.866173 0.904765 0.081861
C86   C     C_1   0.125438 0.862577 0.902179 0.073929
C87   C     C_1   0.145870 0.277557 0.905522 0.074571
C88   C     C_3   0.647197 0.823640 0.712911 -0.010086
C89   C     C_3   0.159766 0.815735 0.710721 0.004413
C90   C     C_3   0.206889 0.379329 0.716199 -0.001805
C91   C     C_3   0.626456 0.909880 0.791521 -0.217088
C92   C     C_3   0.203031 0.769470 0.795387 -0.230417
C93   C     C_3   0.265477 0.465765 0.801613 -0.225978
C94   C     C_3   0.677976 0.839766 0.809059 0.007068
C95   C     C_3   0.137450 0.829635 0.806367 0.007081
C96   C     C_3   0.191452 0.341777 0.811956 0.001584
Cr1   Cr    Cr6+3 0.164410 0.584450 0.499910 1.062577
Cr2   Cr    Cr6+3 0.415550 0.579960 0.499910 1.060499
Cr3   Cr    Cr6+3 0.420040 0.835590 0.499910 1.044444
Cr4   Cr    Cr6+3 0.155170 0.075460 0.019960 1.143326
Cr5   Cr    Cr6+3 0.924540 0.079710 0.019960 1.147067
Cr6   Cr    Cr6+3 0.920290 0.844830 0.019960 1.153226
H1    H     H_    0.684497 0.998227 0.797623 0.221635
H2    H     H_    0.156486 0.683038 0.807758 0.205657
H3    H     H_    0.351169 0.492942 0.813000 0.203839
H4    H     H_    0.504791 0.840986 0.732708 0.101233
H5    H     H_    0.316274 0.829163 0.733520 0.108660
H6    H     H_    0.214126 0.531878 0.740451 0.147900
H7    H     H_    0.625399 0.663504 0.810311 0.190003
H8    H     H_    0.162873 0.996046 0.793476 0.203300
H9    H     H_    0.018448 0.225026 0.798722 0.252234
H10   H     H_    0.607315 0.954461 0.381914 0.130032
H11   H     H_    0.047273 0.652245 0.380969 0.130189
H12   H     H_    0.348566 0.393260 0.381226 0.128868
H13   H     H_    0.680444 0.087193 0.220413 0.187845
H14   H     H_    0.918132 0.593595 0.218633 0.188184
H15   H     H_    0.407518 0.321524 0.219029 0.187733
H16   H     H_    0.647958 0.066482 0.307788 0.105844
H17   H     H_    0.937429 0.581170 0.306137 0.105596
H18   H     H_    0.419900 0.353299 0.306549 0.105084
H19   H     H_    0.683186 0.602159 0.305218 0.103223
H20   H     H_    0.389793 0.081909 0.307421 0.103498
H21   H     H_    0.919469 0.315388 0.306113 0.103000
H22   H     H_    0.622359 0.967979 0.717421 0.194600
H23   H     H_    0.209001 0.691492 0.726595 0.175187
H24   H     H_    0.344285 0.542580 0.731991 0.158345
H25   H     H_    0.641995 0.664890 0.380083 0.134405
H26   H     H_    0.328664 0.977040 0.381656 0.134703
H27   H     H_    0.023669 0.355929 0.380745 0.134912
H28   H     H_    0.807892 0.837181 0.704879 0.093160
H29   H     H_    0.988833 0.774869 0.702556 0.094693
H30   H     H_    0.225342 0.234661 0.707239 0.113059
H31   H     H_    0.804952 0.804886 0.784858 0.123524
H32   H     H_    0.991317 0.827934 0.779583 0.134968
H33   H     H_    0.173469 0.190032 0.784146 0.150462
H34   H     H_    0.508893 0.660590 0.725218 0.168074
H35   H     H_    0.286153 0.990424 0.712912 0.176931
H36   H     H_    0.039591 0.356048 0.718631 0.172107
H37   H     H_    0.638127 0.664907 0.725739 0.176599
H38   H     H_    0.148090 0.966448 0.710160 0.161333
H39   H     H_    0.047998 0.232929 0.716593 0.228000
H40   H     H_    0.514717 0.693508 0.808703 0.136817
H41   H     H_    0.286633 0.988619 0.796883 0.182995
H42   H     H_    0.046831 0.362916 0.802722 0.172626
O1    O     O_R   0.137150 0.468200 0.553200 -0.486011
O2    O     O_R   0.531800 0.668950 0.553200 -0.488348
O3    O     O_R   0.331050 0.862850 0.553200 -0.507366
O4    O     O_R   0.179100 0.982980 0.967000 -0.512125
O5    O     O_R   0.017020 0.196120 0.967000 -0.499531
O6    O     O_R   0.803880 0.820900 0.967000 -0.490483
O7    O     O_R   0.173970 0.688730 0.549930 -0.473695
O8    O     O_R   0.311270 0.485240 0.549930 -0.483478
O9    O     O_R   0.514760 0.826030 0.549930 -0.493006
O10   O     O_R   0.140110 0.470540 0.446010 -0.519719
O11   O     O_R   0.529460 0.669570 0.446010 -0.520994
O12   O     O_R   0.330430 0.859890 0.446010 -0.519274
O13   O     O_R   0.176710 0.690910 0.450560 -0.504837
O14   O     O_R   0.309090 0.485800 0.450560 -0.504723
O15   O     O_R   0.514200 0.823290 0.450560 -0.501113
O16   O     O_3   0.333333 0.666667 0.499990 -0.290000
O17   O     O_R   0.176750 0.985260 0.074180 -0.508234
O18   O     O_R   0.014740 0.191490 0.074180 -0.508615
O19   O     O_R   0.808510 0.823250 0.074180 -0.510230
O20   O     O_R   0.146100 0.172630 0.068980 -0.441738
O21   O     O_R   0.827370 0.973470 0.068980 -0.443799
O22   O     O_R   0.026530 0.853900 0.068980 -0.442902
O23   O     O_3   0.000000 1.000000 0.020040 -0.279718
O24   O     O_R   0.148270 0.170520 0.969620 -0.472889
O25   O     O_R   0.829480 0.977750 0.969620 -0.479085
O26   O     O_R   0.022250 0.851730 0.969620 -0.459852
H43   H     H_    0.551476 0.889394 0.813144 0.108647
H44   H     H_    0.282043 0.808424 0.815924 0.104660
H45   H     H_    0.237085 0.514651 0.823124 0.119240
S1    S     S_3+6 0.672492 0.033370 0.123289 0.007865
O27   O     O_2   0.772785 0.144725 0.125355 -0.322885
O28   O     O_2   0.646974 0.996381 0.070820 -0.258105
O29   O     O_3   0.564885 0.040891 0.146299 -0.538305
H46   H     H_    0.562524 0.100352 0.127678 0.380283
S2    S     S_3+6 0.973494 0.641436 0.122020 0.009939
O30   O     O_2   0.860268 0.628093 0.123435 -0.320813
O31   O     O_2   0.011793 0.654378 0.069782 -0.252281
O32   O     O_3   0.969990 0.528163 0.144829 -0.539169
H47   H     H_    0.911787 0.466561 0.125964 0.379177
S3    S     S_3+6 0.359391 0.328919 0.122204 0.009378
O33   O     O_2   0.372890 0.228980 0.123991 -0.322383
O34   O     O_2   0.346152 0.353732 0.069839 -0.252076
O35   O     O_3   0.472777 0.436948 0.145033 -0.538940
H48   H     H_    0.534310 0.439399 0.126185 0.379321
H49   H     H_    0.720342 0.709908 0.142263 0.190704
H50   H     H_    0.288320 0.012013 0.143552 0.192717
H51   H     H_    0.989199 0.281090 0.142492 0.191754
H52   H     H_    0.704615 0.615180 0.216418 0.142147
H53   H     H_    0.378894 0.091052 0.218507 0.141913
H54   H     H_    0.910498 0.295435 0.217184 0.142624
S4    S     S_3+6 0.842166 0.019563 0.696699 0.018107
O36   O     O_2   0.956731 0.046974 0.683011 -0.266699
O37   O     O_2   0.785436 0.023599 0.650538 -0.303785
O38   O     O_3   0.844637 0.113308 0.736023 -0.509425
H55   H     H_    0.836525 0.167253 0.715540 0.358349
S5    S     S_3+6 0.978581 0.601077 0.707201 0.042937
O39   O     O_2   0.856140 0.548950 0.702509 -0.208380
O40   O     O_2   0.021956 0.591197 0.658266 -0.279089
O41   O     O_3   0.010580 0.531672 0.748166 -0.530672
H56   H     H_    0.947312 0.456331 0.748044 0.380217
S6    S     S_3+6 0.408535 0.379814 0.711305 0.044155
O42   O     O_2   0.439547 0.294428 0.697987 -0.218322
O43   O     O_2   0.427416 0.450739 0.667110 -0.295973
O44   O     O_3   0.490726 0.459496 0.756470 -0.497590
H57   H     H_    0.562947 0.465103 0.750123 0.401653
S7    S     S_3+6 0.907556 0.983829 0.810430 -0.011349
O45   O     O_2   0.000611 0.036238 0.775086 -0.319770
O46   O     O_2   0.879381 0.066269 0.831158 -0.297031
O47   O     O_3   0.947157 0.932352 0.856819 -0.516844
H58   H     H_    0.009715 0.996761 0.872303 0.361497
S8    S     S_3+6 0.915821 0.657744 0.816658 0.044833
O48   O     O_2   0.810903 0.599495 0.787948 -0.253316
O49   O     O_2   0.951182 0.577460 0.832983 -0.238793
O50   O     O_3   0.890011 0.711105 0.866812 -0.497746
H59   H     H_    0.826682 0.648699 0.882746 0.376990
S9    S     S_3+6 0.342167 0.260796 0.820832 0.030849
O51   O     O_2   0.402275 0.219141 0.789693 -0.231003
O52   O     O_2   0.422541 0.367162 0.844669 -0.230069
O53   O     O_3   0.276328 0.167799 0.865031 -0.568484
H60   H     H_    0.333958 0.158246 0.881726 0.375522

loop_
_geom_bond_atom_site_label_1
_geom_bond_atom_site_label_2
_ccdc_geom_bond_type
C8    H38   S    
Cr6   O26   S    
C15   C18   T    
C40   H16   S    
C4    H7    S    
C84   H33   S    
Cr6   O23   S    
C82   C94   S    
C64   C70   A    
Cr3   O15   S    
C26   C29   A    
C2    C18   S    
C33   C45   A    
C6    H9    S    
O53   H60   S    
C48   C75   A    
C35   O10   A    
O41   H56   S    
C27   C78   A    
C67   H22   S    
C6    C9    S    
S9    O52   D    
C51   H27   S    
C10   C85   T    
Cr2   O8    S    
S6    O42   D    
C25   C28   A    
C20   O21   A    
C67   C88   S    
C33   C39   A    
C31   C43   A    
C60   C63   A    
Cr5   O18   S    
Cr4   O4    S    
C37   C40   A    
C69   C93   S    
C4    C7    S    
C34   C77   S    
C4    H40   S    
C91   C94   S    
C43   S1    S    
S6    O44   S    
C5    H8    S    
C28   C40   A    
C11   C86   T    
C80   S5    S    
C30   C57   A    
C3    O9    A    
C79   S4    S    
S3    O33   D    
C59   H20   S    
C84   C96   S    
Cr5   O5    S    
C80   C89   S    
Cr5   O23   S    
C22   O5    A    
S1    O27   D    
C79   C88   S    
C83   H32   S    
C73   H49   S    
C84   S9    S    
C36   O15   A    
C93   H3    S    
C74   H50   S    
C28   C55   A    
C31   C70   A    
C66   C72   A    
Cr2   O14   S    
S5    O39   D    
C59   C62   A    
C36   C76   S    
C61   H52   S    
C64   C73   A    
Cr5   O25   S    
O38   H55   S    
C68   H5    S    
C32   C38   A    
C39   C42   A    
C24   O26   A    
C33   C72   A    
C44   C47   A    
S4    O38   S    
C22   O24   A    
C56   C71   A    
C58   C61   A    
C63   C66   A    
Cr6   O22   S    
C80   H29   S    
Cr3   O16   S    
C27   C30   A    
C25   H10   S    
C14   C17   T    
C80   C83   S    
C44   S2    S    
S9    O51   D    
C5    C95   S    
C69   H6    S    
C32   C71   A    
S6    O43   D    
C2    O8    A    
C49   H25   S    
C49   C76   A    
C26   C77   A    
C21   O17   A    
Cr6   O19   S    
C50   C53   A    
Cr1   O16   S    
C38   C41   A    
C24   O4    A    
S8    O50   S    
C21   C47   S    
C9    H39   S    
C19   C48   S    
O44   H57   S    
C81   H30   S    
C54   C60   A    
S4    O36   D    
Cr2   O2    S    
C65   C71   A    
C20   O19   A    
C92   C95   S    
C21   O22   A    
C31   C37   A    
C8    H35   S    
C2    O1    A    
C19   O18   A    
Cr1   O13   S    
C61   C64   A    
C75   H51   S    
S8    O48   D    
C34   O13   A    
C14   C89   S    
C5    C8    S    
C38   H14   S    
C9    H36   S    
C92   H2    S    
C7    C88   S    
C23   O25   A    
O47   H58   S    
C49   C52   A    
C83   C95   S    
Cr3   O12   S    
C67   C91   S    
C68   C89   S    
Cr1   O7    S    
C63   H54   S    
Cr4   O20   S    
C22   C87   S    
C41   H17   S    
Cr5   O21   S    
S1    O29   S    
Cr4   O17   S    
C52   C58   A    
Cr6   O6    S    
C4    C94   S    
C81   C90   S    
C23   O6    A    
Cr2   O16   S    
C69   H24   S    
S7    O45   D    
C93   C96   S    
S7    O46   D    
Cr4   O23   S    
C1    O3    A    
C50   H26   S    
C6    H42   S    
C69   C90   S    
C50   C77   A    
C81   C84   S    
C81   S6    S    
C45   C48   A    
C11   C95   S    
C62   C65   A    
Cr3   O3    S    
Cr2   O11   S    
C58   H19   S    
C12   C87   T    
C29   C41   A    
Cr1   O1    S    
C30   C42   A    
C82   S7    S    
C47   C74   A    
C91   H1    S    
Cr1   O10   S    
C9    C90   S    
C79   C82   S    
C83   S8    S    
C52   C55   A    
C67   H4    S    
C37   H13   S    
C29   C56   A    
C34   O12   A    
S7    O47   S    
C53   C59   A    
C35   C78   S    
C6    C96   S    
S3    O35   S    
C91   H43   S    
Cr4   O24   S    
C51   C54   A    
S2    O32   S    
C82   H31   S    
S8    O49   D    
C36   O11   A    
C51   C78   A    
O35   H48   S    
C39   H15   S    
C25   C76   A    
C15   C90   S    
C7    H37   S    
C79   H28   S    
C42   H18   S    
O50   H59   S    
C92   H44   S    
S5    O41   S    
C66   C75   A    
Cr3   O9    S    
C13   C88   S    
C93   H45   S    
C68   C92   S    
S3    O34   D    
C1    O7    A    
C19   O20   A    
S9    O53   S    
C57   C72   A    
C43   C46   A    
S1    O28   D    
C35   O14   A    
C55   C70   A    
C5    H41   S    
C65   C74   A    
S2    O30   D    
C27   H12   S    
C7    H34   S    
C60   H21   S    
C1    C17   S    
C32   C44   A    
C3    O2    A    
S5    O40   D    
O29   H46   S    
C23   C85   S    
C13   C16   T    
C53   C56   A    
C10   C94   S    
C12   C96   S    
S2    O31   D    
C8    C89   S    
C62   H53   S    
C26   H11   S    
C24   C86   S    
C68   H23   S    
C46   C73   A    
C20   C46   S    
C3    C16   S    
O32   H47   S    
C45   S3    S    
S4    O37   D    
C54   C57   A    
