data_mof_unit_43046.cif
_audit_creation_date              2012-12-10T20:55:10-0500
_audit_creation_method            fapswitch 2.2
_symmetry_space_group_name_H-M    P1
_symmetry_Int_Tables_number       1
_space_group_crystal_system       triclinic
_cell_length_a                    15.836678
_cell_length_b                    15.059501
_cell_length_c                    10.785863
_cell_angle_alpha                 91.133206
_cell_angle_beta                  90.181146
_cell_angle_gamma                 89.202327
_cell_volume                      2571.58402974

loop_
_atom_site_label
_atom_site_type_symbol
_atom_type_description
_atom_site_fract_x
_atom_site_fract_y
_atom_site_fract_z
_atom_type_partial_charge
C1    C     C_R   0.338990 0.500426 0.501970 1.019756
C2    C     C_R   0.572070 0.950254 0.459313 0.045231
C3    C     C_R   0.497874 0.905535 0.495451 -0.097087
C4    C     C_R   0.572571 0.045281 0.454603 0.290173
C5    C     C_R   0.425955 0.050975 0.530795 0.366628
C6    C     C_R   0.500155 0.095157 0.493699 -0.272330
C7    C     C_1   0.498608 0.807090 0.498179 0.113837
C8    C     C_1   0.500788 0.193019 0.497256 0.408826
C9    C     C_R   0.487480 0.499279 0.261044 0.932828
C10   C     C_R   0.500123 0.500886 0.741735 0.985915
C11   C     C_R   0.413267 0.654675 0.128111 0.452899
C12   C     C_R   0.661020 0.499455 0.499704 0.901276
C13   C     C_R   0.429626 0.656054 0.878521 0.447449
C14   C     C_R   0.425971 0.737549 0.072044 0.037583
C15   C     C_R   0.440242 0.737027 0.942707 0.060442
C16   C     C_R   0.456134 0.578094 0.938891 -0.139258
C17   C     C_R   0.446844 0.576892 0.067802 -0.135921
C18   C     C_R   0.466781 0.497267 0.129692 -0.205125
C19   C     C_R   0.490763 0.502137 0.875696 -0.238349
C20   C     C_R   0.481541 0.417850 0.061915 0.316923
C21   C     C_R   0.510089 0.423897 0.941131 0.265117
C22   C     C_R   0.953976 0.582137 0.497951 0.108553
C23   C     C_R   0.957632 0.418093 0.478078 0.307000
C24   C     C_R   0.042803 0.582617 0.497648 0.096965
C25   C     C_R   0.913020 0.499653 0.486184 -0.127443
C26   C     C_R   0.086703 0.500487 0.502678 -0.129202
C27   C     C_3   0.423415 0.822856 0.149196 -0.410847
C28   C     C_3   0.343716 0.878813 0.125929 -0.687592
C29   C     C_3   0.460205 0.819110 0.869608 -0.370422
C30   C     C_3   0.548086 0.810966 0.812502 -0.877966
C31   C     C_3   0.091569 0.669361 0.493766 -0.430201
C32   C     C_3   0.118709 0.699600 0.623652 -0.693655
C33   C     C_3   0.902206 0.668190 0.511070 -0.379704
C34   C     C_R   0.045016 0.418253 0.501287 0.309587
C35   C     C_3   0.872241 0.700872 0.385025 -0.825153
C36   C     C_3   0.344330 0.907206 0.563350 -0.330168
C37   C     C_3   0.279417 0.908293 0.458280 -0.683581
C38   C     C_3   0.650885 0.894588 0.428328 -0.319342
C39   C     C_3   0.646081 0.853680 0.297546 -0.795916
C40   C     C_1   0.823805 0.498501 0.490476 0.103614
C41   C     C_1   0.176011 0.500760 0.503521 0.117692
C42   C     C_1   0.250779 0.501118 0.503145 0.030559
C43   C     C_1   0.749110 0.498444 0.495212 -0.095637
C44   C     C_R   0.424148 0.955790 0.529081 -0.005709
H1    H     H_    0.403520 0.190311 0.035089 0.390127
H2    H     H_    0.596504 0.804761 0.886700 0.266219
H3    H     H_    0.552554 0.751946 0.749475 0.267487
H4    H     H_    0.561368 0.871198 0.758507 0.263207
H5    H     H_    0.412607 0.828130 0.795252 0.240696
H6    H     H_    0.458963 0.880772 0.926906 0.228695
H7    H     H_    0.062753 0.712867 0.683215 0.239362
H8    H     H_    0.158704 0.647812 0.667250 0.298383
H9    H     H_    0.155765 0.761393 0.618022 0.267165
H10   H     H_    0.148390 0.661231 0.434296 0.236646
H11   H     H_    0.054731 0.723141 0.449237 0.215456
H12   H     H_    0.664097 0.341430 0.045971 0.358516
H13   H     H_    0.926929 0.712027 0.323376 0.264036
H14   H     H_    0.829827 0.651739 0.339954 0.262003
H15   H     H_    0.836816 0.764530 0.397674 0.253265
H16   H     H_    0.846621 0.658512 0.571623 0.205557
H17   H     H_    0.937766 0.721522 0.559218 0.217993
H18   H     H_    0.933870 0.189792 0.354274 0.407492
H19   H     H_    0.076493 0.186921 0.599471 0.408556
H20   H     H_    0.308811 0.247982 0.498565 0.412294
H21   H     H_    0.715239 0.128851 0.585146 0.379440
H22   H     H_    0.269927 0.975717 0.420700 0.291549
H23   H     H_    0.190832 0.683414 0.203901 0.369091
H24   H     H_    0.301287 0.863696 0.381926 0.259810
H25   H     H_    0.218036 0.883883 0.492199 0.246709
H26   H     H_    0.357165 0.837027 0.583255 0.243288
H27   H     H_    0.318227 0.933394 0.651990 0.245487
H28   H     H_    0.707288 0.820862 0.273921 0.247564
H29   H     H_    0.632385 0.905444 0.228220 0.290105
H30   H     H_    0.596090 0.802922 0.291407 0.232866
H31   H     H_    0.709701 0.932808 0.437816 0.271277
H32   H     H_    0.659177 0.840742 0.496467 0.182008
H33   H     H_    0.218211 0.658029 0.898239 0.403332
H34   H     H_    0.333219 0.890423 0.025892 0.263776
H35   H     H_    0.287372 0.845687 0.162633 0.296592
H36   H     H_    0.349660 0.944157 0.174468 0.236234
H37   H     H_    0.427054 0.808185 0.249354 0.232546
H38   H     H_    0.480402 0.862389 0.130174 0.199695
N1    N     N_1   0.500000 0.270550 0.500000 -0.039467
N2    N     N_1   0.500000 0.729450 0.500000 -0.066824
O1    O     O_R   0.378020 0.573650 0.500040 -0.512478
O2    O     O_2   0.374015 0.327195 0.203173 -0.245383
O3    O     O_3   0.417339 0.247817 0.997602 -0.443132
O4    O     O_2   0.537247 0.271425 0.810575 -0.183413
O5    O     O_2   0.647921 0.382832 0.802246 -0.319543
O6    O     O_3   0.634568 0.292513 0.001918 -0.427734
O7    O     O_2   0.304058 0.549043 0.244978 -0.324968
O8    O     O_2   0.333086 0.695002 0.342150 -0.341767
O9    O     O_3   0.238934 0.688442 0.146117 -0.542489
O10   O     O_2   0.344800 0.692841 0.670396 -0.315053
O11   O     O_2   0.309763 0.554197 0.772701 -0.343997
O12   O     O_R   0.621980 0.573650 0.499960 -0.652929
O13   O     O_3   0.257725 0.704251 0.871488 -0.531067
O14   O     O_2   0.867853 0.278225 0.549889 -0.201722
O15   O     O_2   0.831363 0.339494 0.348114 -0.259514
O16   O     O_3   0.967289 0.244728 0.362373 -0.448786
O17   O     O_2   0.139406 0.281733 0.414049 -0.209434
O18   O     O_2   0.173664 0.336752 0.622894 -0.271001
O19   O     O_3   0.041044 0.241581 0.596977 -0.446110
O20   O     O_2   0.259375 0.072187 0.615209 -0.265373
O21   O     O_2   0.365567 0.175885 0.688968 -0.252463
O22   O     O_3   0.312856 0.187399 0.461484 -0.495686
O23   O     O_R   0.378020 0.426320 0.500100 -0.628883
O24   O     O_2   0.698508 0.056533 0.286516 -0.233986
O25   O     O_2   0.649120 0.197419 0.373547 -0.222244
O26   O     O_3   0.739556 0.095631 0.513210 -0.506725
O27   O     O_R   0.621980 0.426320 0.499900 -0.554154
O28   O     O_R   0.500000 0.573680 0.316780 -0.635558
O29   O     O_R   0.500000 0.573680 0.683220 -0.635632
O30   O     O_R   0.500000 0.426350 0.316830 -0.563899
O31   O     O_R   0.500000 0.426350 0.683170 -0.551926
O32   O     O_2   0.518418 0.267869 0.185818 -0.232326
S1    S     S_3+6 0.447806 0.313238 0.117210 0.127409
S2    S     S_3+6 0.583359 0.341373 0.884201 0.104197
S3    S     S_3+6 0.322157 0.644868 0.221711 0.012259
S4    S     S_3+6 0.334586 0.649429 0.792889 0.007514
S5    S     S_3+6 0.903040 0.318642 0.435024 0.136314
S6    S     S_3+6 0.102854 0.318171 0.533315 0.120833
S7    S     S_3+6 0.337801 0.120125 0.579375 0.051386
S8    S     S_3+6 0.665002 0.101400 0.402235 0.072774
Zn1   Zn    Zn3+2 0.500000 0.598370 0.500000 1.043680
Zn2   Zn    Zn3+2 0.500000 0.401630 0.500000 1.166529

loop_
_geom_bond_atom_site_label_1
_geom_bond_atom_site_label_2
_ccdc_geom_bond_type
O14   S5    D    
C1    C42   S    
C37   H25   S    
C8    N1    T    
C41   C42   T    
O1    Zn1   S    
C11   S3    S    
C23   S5    S    
O20   S7    D    
C29   H5    S    
O21   S7    D    
C29   C30   S    
O31   Zn2   S    
C35   H14   S    
C9    O30   A    
O6    S2    S    
C30   H4    S    
C36   C37   S    
H1    O3    S    
O8    S3    D    
C24   C26   A    
O3    S1    S    
C12   C43   S    
C3    C7    S    
C25   C40   S    
C38   C39   S    
O30   Zn2   S    
C11   C14   A    
O29   Zn1   S    
C37   H24   S    
O32   S1    D    
C4    S8    S    
C35   H15   S    
O16   S5    S    
C39   H30   S    
C28   H35   S    
C32   H8    S    
O26   S8    S    
O10   S4    D    
C26   C34   A    
C40   C43   T    
C16   C17   A    
C22   C25   A    
O22   S7    S    
C39   H28   S    
H33   O13   S    
C14   C27   S    
C28   H34   S    
C18   C20   A    
C36   H27   S    
C29   H6    S    
C9    O28   A    
H12   O6    S    
C7    N2    T    
C34   S6    S    
C38   H32   S    
O24   S8    D    
C20   S1    S    
C36   H26   S    
C15   C29   S    
C38   H31   S    
C1    O1    A    
C3    C44   A    
C30   H3    S    
C27   H37   S    
C4    C6    A    
C6    C8    S    
C2    C4    A    
C32   H7    S    
C21   S2    S    
C2    C38   S    
C31   C32   S    
C10   C19   S    
C23   C34   A    
C37   H22   S    
O27   Zn2   S    
C17   C18   A    
O5    S2    D    
O28   Zn1   S    
C10   O29   A    
C1    O23   A    
H18   O16   S    
H19   O19   S    
C5    C44   A    
C33   H16   S    
C13   C15   A    
C22   C24   A    
C36   C44   S    
N1    Zn2   S    
O4    S2    D    
C32   H9    S    
C13   S4    S    
N2    Zn1   S    
C22   C33   S    
C11   C17   A    
C19   C21   A    
C30   H2    S    
C27   H38   S    
O23   Zn2   S    
O25   S8    D    
H20   O22   S    
O11   S4    D    
C5    S7    S    
O17   S6    D    
O15   S5    D    
C35   H13   S    
O13   S4    S    
C2    C3    A    
C24   C31   S    
C5    C6    A    
C16   C19   A    
C33   C35   S    
O12   Zn1   S    
O2    S1    D    
O7    S3    D    
C39   H29   S    
C31   H10   S    
C28   H36   S    
H21   O26   S    
C9    C18   S    
C23   C25   A    
C20   C21   A    
C33   H17   S    
C13   C16   A    
C27   C28   S    
H23   O9    S    
C14   C15   A    
C12   O12   A    
O9    S3    S    
C31   H11   S    
O18   S6    D    
O19   S6    S    
C12   O27   A    
C10   O31   A    
C26   C41   S    
