data_mof_unit_25437.cif
_audit_creation_date              2012-12-10T17:12:01-0500
_audit_creation_method            fapswitch 2.2
_symmetry_space_group_name_H-M    P1
_symmetry_Int_Tables_number       1
_space_group_crystal_system       triclinic
_cell_length_a                    11.827887
_cell_length_b                    12.985218
_cell_length_c                    15.800536
_cell_angle_alpha                 95.299517
_cell_angle_beta                  72.950472
_cell_angle_gamma                 99.093279
_cell_volume                      2288.23280178

loop_
_atom_site_label
_atom_site_type_symbol
_atom_type_description
_atom_site_fract_x
_atom_site_fract_y
_atom_site_fract_z
_atom_type_partial_charge
C1    C     C_R   0.520221 0.700385 0.501586 0.796293
C2    C     C_R   0.479779 0.299615 0.498413 0.796297
C3    C     C_R   0.360755 0.514935 0.090005 -0.220782
C4    C     C_R   0.639263 0.485173 0.909997 -0.220779
C5    C     C_R   0.282343 0.526923 0.042417 -0.220459
C6    C     C_R   0.717677 0.473182 0.957582 -0.220459
C7    C     C_R   0.468762 0.186176 0.496570 -0.052476
C8    C     C_R   0.531239 0.813824 0.503428 -0.052475
C9    C     C_R   0.640188 0.983792 0.524680 -0.206547
C10   C     C_R   0.359813 0.016207 0.475317 -0.206547
C11   C     C_R   0.630845 0.875622 0.521704 -0.189104
C12   C     C_R   0.369156 0.124378 0.478294 -0.189105
C13   C     C_R   0.441327 0.860910 0.487576 -0.268695
C14   C     C_R   0.558674 0.139090 0.512421 -0.268693
C15   C     C_R   0.449912 0.969043 0.490625 0.174796
C16   C     C_R   0.550090 0.030956 0.509372 0.174795
C17   C     C_R   0.939273 0.614632 0.571307 0.316154
C18   C     C_R   0.060732 0.385375 0.428683 0.316156
C19   C     C_R   0.820844 0.597628 0.567350 -0.066072
C20   C     C_R   0.179159 0.402376 0.432646 -0.066063
C21   C     C_R   0.860515 0.450993 0.466663 0.301087
C22   C     C_R   0.139486 0.549008 0.533335 0.301085
C23   C     C_R   0.426691 0.493435 0.667978 0.801665
C24   C     C_R   0.573309 0.506569 0.332023 0.801667
C25   C     C_R   0.979837 0.458071 0.473611 -0.082972
C26   C     C_R   0.020165 0.541931 0.526384 -0.082967
C27   C     C_R   0.383390 0.492072 0.765228 -0.056271
C28   C     C_R   0.616611 0.507954 0.234774 -0.056264
C29   C     C_R   0.240738 0.537149 0.902830 -0.196306
C30   C     C_R   0.759270 0.462909 0.097166 -0.196304
C31   C     C_R   0.276094 0.529525 0.810662 -0.242455
C32   C     C_R   0.723905 0.470501 0.189334 -0.242454
C33   C     C_R   0.453927 0.459303 0.813369 0.112297
C34   C     C_R   0.546084 0.540751 0.186641 0.112297
C35   C     C_R   0.432135 0.489776 0.904816 0.074989
C36   C     C_R   0.567879 0.510306 0.095188 0.074991
C37   C     C_R   0.318473 0.519033 0.950148 0.129379
C38   C     C_R   0.681542 0.481051 0.049851 0.129378
C39   C     C_R   0.517823 0.492150 0.952995 0.065080
C40   C     C_R   0.482194 0.507948 0.047008 0.065084
Cu1   Cu    Cu3+1 0.386820 0.492450 0.493500 0.924981
Cu2   Cu    Cu3+1 0.613180 0.507550 0.506500 0.924983
H1    H     H_    0.192093 0.540316 0.078112 0.145474
H2    H     H_    0.807929 0.459795 0.921885 0.145473
H3    H     H_    0.241290 0.349539 0.397277 0.133343
H4    H     H_    0.758714 0.650466 0.602718 0.133343
H5    H     H_    0.780918 0.448065 0.225000 0.157008
H6    H     H_    0.219072 0.551936 0.774992 0.157011
H7    H     H_    0.154804 0.561665 0.937035 0.141236
H8    H     H_    0.845203 0.438393 0.062957 0.141237
H9    H     H_    0.324367 0.511571 0.160796 0.167787
H10   H     H_    0.675647 0.488541 0.839206 0.167785
H11   H     H_    0.635263 0.186300 0.527371 0.157050
H12   H     H_    0.364739 0.813699 0.472625 0.157050
H13   H     H_    0.298802 0.159480 0.465720 0.157398
H14   H     H_    0.701198 0.840520 0.534278 0.157393
H15   H     H_    0.717461 0.030410 0.539057 0.144046
H16   H     H_    0.282541 0.969590 0.460940 0.144048
N1    N     N_R   0.216750 0.481110 0.483710 -0.204025
N2    N     N_R   0.783250 0.518890 0.516290 -0.204022
O1    O     O_R   0.419950 0.645670 0.495380 -0.593622
O2    O     O_R   0.580050 0.354330 0.504620 -0.593621
O3    O     O_R   0.611110 0.658410 0.506370 -0.584383
O4    O     O_R   0.388890 0.341590 0.493630 -0.584380
O5    O     O_R   0.350820 0.490050 0.621260 -0.592656
O6    O     O_R   0.649180 0.509950 0.378740 -0.592656
O7    O     O_R   0.541970 0.502800 0.632250 -0.569205
O8    O     O_R   0.458030 0.497200 0.367750 -0.569210
O9    O     O_3   0.976237 0.703950 0.616293 -0.761631
H17   H     H_    0.909064 0.744835 0.642408 0.317333
O10   O     O_3   0.023775 0.296065 0.383684 -0.761632
H18   H     H_    0.090959 0.255197 0.357547 0.317333
C41   C     C_3   0.471822 0.627546 0.227960 -0.849272
H19   H     H_    0.457949 0.673188 0.176681 0.233951
H20   H     H_    0.384146 0.596362 0.272765 0.245302
H21   H     H_    0.519655 0.684104 0.267247 0.228163
C42   C     C_3   0.528192 0.372506 0.772069 -0.849256
H22   H     H_    0.615869 0.403682 0.727259 0.245298
H23   H     H_    0.542067 0.326882 0.823358 0.233953
H24   H     H_    0.480363 0.315932 0.732789 0.228160
C43   C     C_3   0.176909 0.628831 0.599548 -0.657885
H25   H     H_    0.259186 0.622177 0.613746 0.238084
H26   H     H_    0.188000 0.708636 0.575846 0.236657
H27   H     H_    0.109982 0.620524 0.665453 0.215239
C44   C     C_3   0.823091 0.371172 0.400449 -0.657881
H28   H     H_    0.740809 0.377820 0.386256 0.238084
H29   H     H_    0.890013 0.379486 0.334543 0.215242
H30   H     H_    0.812010 0.291365 0.424146 0.236652

loop_
_geom_bond_atom_site_label_1
_geom_bond_atom_site_label_2
_ccdc_geom_bond_type
C17   O9    S    
C8    C13   A    
C5    C37   A    
C1    C8    S    
C41   H19   S    
C2    C7    S    
Cu1   O1    S    
C43   H25   S    
C19   H4    S    
C29   H7    S    
C44   H28   S    
C27   C33   A    
C4    H10   S    
C17   C26   A    
C35   C37   A    
C9    C16   A    
C10   C15   A    
C44   H30   S    
C15   C16   A    
C30   C38   A    
Cu1   Cu2   S    
C23   O7    A    
C9    H15   S    
C17   C19   A    
C7    C14   A    
C6    C38   A    
C23   C27   S    
Cu2   O2    S    
C18   C20   A    
C20   H3    S    
C24   O6    A    
C42   H23   S    
C5    H1    S    
C28   C34   A    
C6    H2    S    
C41   H20   S    
C18   C25   A    
C1    O3    A    
C43   H26   S    
C2    O4    A    
Cu1   O8    S    
C44   H29   S    
C7    C12   A    
C21   C44   S    
C27   C31   A    
C22   C43   S    
C28   C32   A    
Cu1   N1    S    
C21   N2    A    
C4    C6    A    
Cu2   N2    S    
C22   N1    A    
C3    H9    S    
Cu1   O5    S    
C25   C26   A    
C42   H22   S    
C35   C39   A    
C4    C39   A    
C36   C40   A    
C20   N1    A    
C9    C11   A    
C10   C12   A    
C3    C40   A    
C31   H6    S    
C13   C15   A    
Cu2   O7    S    
C32   H5    S    
C14   C16   A    
C39   C40   A    
C43   H27   S    
C13   H12   S    
C42   H24   S    
C18   O10   S    
C21   C25   A    
C10   H16   S    
C24   C28   S    
C3    C5    A    
C1    O1    A    
C19   N2    A    
C23   O5    A    
C36   C38   A    
O10   H18   S    
C29   C31   A    
C30   C32   A    
C33   C42   S    
C8    C11   A    
C33   C35   A    
C34   C36   A    
C30   H8    S    
O9    H17   S    
C12   H13   S    
C24   O8    A    
C34   C41   S    
C14   H11   S    
C41   H21   S    
C22   C26   A    
C29   C37   A    
Cu2   O6    S    
Cu1   O4    S    
Cu2   O3    S    
C11   H14   S    
C2    O2    A    
