data_mof_unit_62104.cif
_audit_creation_date              2012-12-10T20:59:02-0500
_audit_creation_method            fapswitch 2.2
_symmetry_space_group_name_H-M    P1
_symmetry_Int_Tables_number       1
_space_group_crystal_system       triclinic
_cell_length_a                    13.653431
_cell_length_b                    15.100777
_cell_length_c                    15.850187
_cell_angle_alpha                 90.002741
_cell_angle_beta                  89.97795
_cell_angle_gamma                 82.801532
_cell_volume                      3242.1925402

loop_
_atom_site_label
_atom_site_type_symbol
_atom_type_description
_atom_site_fract_x
_atom_site_fract_y
_atom_site_fract_z
_atom_type_partial_charge
C1    C     C_R   0.499971 0.500023 0.661102 0.905387
C2    C     C_R   0.500029 0.499977 0.338898 0.905386
C3    C     C_1   0.499966 0.500027 0.749507 -0.155548
C4    C     C_1   0.500034 0.499973 0.250492 -0.155548
C5    C     C_R   0.589224 0.037778 0.500186 0.142414
C6    C     C_R   0.410776 0.962221 0.499813 0.142414
C7    C     C_R   0.499010 0.095136 0.500008 -0.059114
C8    C     C_R   0.500990 0.904864 0.499992 -0.059114
C9    C     C_R   0.409164 0.056755 0.499820 0.095492
C10   C     C_R   0.590836 0.943245 0.500180 0.095492
C11   C     C_1   0.499614 0.193075 0.500016 0.156988
C12   C     C_1   0.500386 0.806925 0.499984 0.156988
C13   C     C_R   0.686177 0.484010 0.499969 0.899776
C14   C     C_R   0.313823 0.515989 0.500031 0.899775
C15   C     C_1   0.210302 0.528534 0.500046 -0.132021
C16   C     C_1   0.789697 0.471465 0.499954 -0.132021
C17   C     C_2   0.019077 0.538650 0.500049 0.114221
C18   C     C_2   0.980923 0.461350 0.499951 0.114222
C19   C     C_1   0.877307 0.463650 0.499948 0.048887
C20   C     C_1   0.122692 0.536350 0.500052 0.048887
C21   C     C_R   0.490532 0.420907 0.043738 -0.167518
C22   C     C_R   0.509468 0.579092 0.956262 -0.167518
C23   C     C_R   0.500019 0.499987 0.086859 0.161557
C24   C     C_R   0.499980 0.500013 0.913141 0.161557
C25   C     C_R   0.509487 0.579079 0.043753 -0.167503
C26   C     C_R   0.490513 0.420920 0.956247 -0.167503
C27   C     C_1   0.500031 0.499977 0.175650 -0.055399
C28   C     C_1   0.499969 0.500023 0.824350 -0.055399
H1    H     H_    0.483179 0.359777 0.922331 0.152661
H2    H     H_    0.516821 0.640223 0.077669 0.152661
H3    H     H_    0.483211 0.359755 0.077641 0.152654
H4    H     H_    0.516789 0.640245 0.922358 0.152654
N1    N     N_1   0.500030 0.729450 0.499980 -0.079017
N2    N     N_1   0.499970 0.270550 0.500020 -0.079017
O1    O     O_R   0.500000 0.426350 0.621980 -0.606221
O2    O     O_R   0.500000 0.573650 0.378020 -0.606220
O3    O     O_R   0.499960 0.573690 0.621980 -0.606257
O4    O     O_R   0.500040 0.426310 0.378020 -0.606256
O5    O     O_R   0.640370 0.415730 0.499980 -0.594616
O6    O     O_R   0.359630 0.584270 0.500020 -0.594616
O7    O     O_R   0.640330 0.563060 0.499980 -0.603785
O8    O     O_R   0.359670 0.436940 0.500020 -0.603785
Zn1   Zn    Zn3+2 0.500030 0.401620 0.500000 1.013985
Zn2   Zn    Zn3+2 0.499970 0.598380 0.500000 1.013985
I1    I     I_    0.066679 0.333462 0.499802 -0.317295
I2    I     I_    0.933320 0.666537 0.500198 -0.317294
C29   C     C_3   0.689470 0.884962 0.500380 -0.757335
H5    H     H_    0.683319 0.812516 0.500359 0.236492
H6    H     H_    0.732121 0.899062 0.443342 0.262040
H7    H     H_    0.731741 0.899095 0.557601 0.261936
C30   C     C_3   0.310530 0.115038 0.499620 -0.757335
H8    H     H_    0.316681 0.187483 0.499641 0.236492
H9    H     H_    0.268259 0.100904 0.442399 0.261936
H10   H     H_    0.267879 0.100938 0.556657 0.262040
I3    I     I_    0.724883 0.095548 0.500467 -0.302862
I4    I     I_    0.275117 0.904452 0.499533 -0.302862

loop_
_geom_bond_atom_site_label_1
_geom_bond_atom_site_label_2
_ccdc_geom_bond_type
C2    C4    S    
C21   C26   A    
C23   C27   S    
C8    C12   S    
O1    Zn1   S    
C2    O4    A    
O6    Zn2   S    
C29   H5    S    
C9    C30   S    
C1    O3    A    
C14   O8    A    
C30   H10   S    
C4    C27   T    
O3    Zn2   S    
C13   O7    A    
C17   C18   D    
C5    C10   A    
C29   H6    S    
C7    C11   S    
C21   H3    S    
C22   H4    S    
C6    C9    A    
C16   C19   T    
C3    C28   T    
C24   C26   A    
C29   H7    S    
C23   C25   A    
C21   C23   A    
O5    Zn1   S    
C15   C20   T    
O7    Zn2   S    
C22   C24   A    
C13   O5    A    
O2    Zn2   S    
O8    Zn1   S    
C14   O6    A    
C30   H8    S    
C18   I1    S    
C7    C9    A    
O4    Zn1   S    
C17   C20   S    
C17   I2    S    
C1    O1    A    
C26   H1    S    
C8    C10   A    
C18   C19   S    
C13   C16   S    
C2    O2    A    
C25   H2    S    
C5    C7    A    
C14   C15   S    
C6    C8    A    
C1    C3    S    
C12   N1    T    
N1    Zn2   S    
C5    I3    S    
C11   N2    T    
N2    Zn1   S    
C24   C28   S    
C10   C29   S    
C6    I4    S    
C30   H9    S    
C22   C25   A    
