data_mof_unit_58244.cif
_audit_creation_date              2012-12-11T16:25:30-0500
_audit_creation_method            fapswitch 2.2
_symmetry_space_group_name_H-M    P1
_symmetry_Int_Tables_number       1
_space_group_crystal_system       triclinic
_cell_length_a                    20.464458
_cell_length_b                    7.275417
_cell_length_c                    13.133917
_cell_angle_alpha                 90.424206
_cell_angle_beta                  103.455002
_cell_angle_gamma                 88.994125
_cell_volume                      1901.49945473

loop_
_atom_site_label
_atom_site_type_symbol
_atom_type_description
_atom_site_fract_x
_atom_site_fract_y
_atom_site_fract_z
_atom_type_partial_charge
O1    O     O_R   0.449520 0.506760 0.599710 -0.528278
O2    O     O_R   0.550480 0.006760 0.400290 -0.527356
O3    O     O_R   0.587930 0.180200 0.595790 -0.542704
O4    O     O_R   0.412070 0.680200 0.404210 -0.541597
C1    C     C_R   0.614394 0.343182 0.617549 0.697702
C2    C     C_R   0.385639 0.845213 0.382487 0.692306
O5    O     O_R   0.452350 0.177380 0.611700 -0.524629
O6    O     O_R   0.547650 0.677380 0.388300 -0.523402
O7    O     O_R   0.413930 0.001760 0.416320 -0.534378
O8    O     O_R   0.586070 0.501760 0.583680 -0.532128
C3    C     C_R   0.436835 0.346800 0.639075 0.686823
C4    C     C_R   0.563140 0.844113 0.360755 0.690982
O9    O     O_3   0.487550 0.337460 0.435880 -0.365555
O10   O     O_3   0.512450 0.837460 0.564120 -0.367509
V1    V     V_3+5 0.502310 0.064670 0.511900 1.506160
V2    V     V_3+5 0.497690 0.564670 0.488100 1.515769
C5    C     C_R   0.607083 0.775756 0.100206 -0.007605
C6    C     C_R   0.395134 0.369168 0.903673 -0.005952
H1    H     H_    0.516688 0.760378 0.157147 0.121895
H2    H     H_    0.486080 0.344876 0.848352 0.115313
H3    H     H_    0.690804 0.764460 0.970773 0.140935
H4    H     H_    0.311335 0.416418 0.031799 0.140267
C7    C     C_R   0.600725 0.844743 0.278240 -0.062220
C8    C     C_R   0.398788 0.357929 0.720789 -0.052175
C9    C     C_R   0.922511 0.902561 0.316638 -0.298204
C10   C     C_R   0.077427 0.303680 0.686417 -0.282966
C11   C     C_R   0.887067 0.893280 0.395526 0.351051
C12   C     C_R   0.114448 0.257622 0.612566 0.352282
C13   C     C_R   0.818264 0.852447 0.369557 0.324240
C14   C     C_R   0.184942 0.267149 0.639717 0.321977
C15   C     C_R   0.782314 0.849597 0.262500 -0.083820
C16   C     C_R   0.218637 0.334141 0.740403 -0.086498
C17   C     C_R   0.819774 0.845899 0.182672 -0.031688
C18   C     C_R   0.180672 0.365323 0.818159 -0.033791
C19   C     C_R   0.710320 0.843236 0.232796 0.087078
C20   C     C_R   0.289940 0.357826 0.768057 0.091020
C21   C     C_R   0.677639 0.802188 0.127588 0.028169
C22   C     C_R   0.323791 0.374223 0.874927 0.023260
C23   C     C_R   0.715523 0.791220 0.051643 -0.262783
C24   C     C_R   0.286018 0.397402 0.950425 -0.259816
C25   C     C_R   0.785039 0.819240 0.076557 0.338798
C26   C     C_R   0.215526 0.400522 0.923396 0.338870
C27   C     C_R   0.669218 0.881919 0.303854 -0.135154
C28   C     C_R   0.328882 0.369308 0.692351 -0.130482
C29   C     C_R   0.569989 0.789196 0.176883 -0.174221
C30   C     C_R   0.431755 0.354137 0.826341 -0.167814
C31   C     C_R   0.890963 0.869279 0.212112 -0.120710
C32   C     C_R   0.109113 0.352779 0.788555 -0.121764
H5    H     H_    0.688675 0.942364 0.379748 0.164294
H6    H     H_    0.306238 0.392047 0.610553 0.150787
H7    H     H_    0.975931 0.929509 0.337365 0.129541
H8    H     H_    0.023247 0.291492 0.665648 0.121720
C33   C     C_R   0.230512 0.907679 0.033794 -0.111607
C34   C     C_R   0.770400 0.326329 0.967359 -0.110224
C35   C     C_R   0.285572 0.930456 0.989866 -0.118667
C36   C     C_R   0.715715 0.305728 0.012409 -0.121041
C37   C     C_R   0.350183 0.929906 0.053247 -0.110234
C38   C     C_R   0.651065 0.299536 0.949518 -0.109301
C39   C     C_R   0.360201 0.906151 0.160996 -0.127933
C40   C     C_R   0.640676 0.314084 0.841167 -0.120833
C41   C     C_R   0.305275 0.881311 0.208025 0.054838
C42   C     C_R   0.695241 0.333841 0.792837 0.052956
C43   C     C_R   0.239104 0.882181 0.142994 0.056646
C44   C     C_R   0.761463 0.339859 0.857339 0.058036
C45   C     C_R   0.315762 0.854479 0.317696 -0.172395
C46   C     C_R   0.684341 0.346687 0.682246 -0.174432
C47   C     C_R   0.259708 0.826352 0.363345 0.021521
C48   C     C_R   0.740301 0.359764 0.634733 0.025913
C49   C     C_R   0.193406 0.822113 0.296364 0.048147
C50   C     C_R   0.806820 0.369875 0.700863 0.051582
C51   C     C_R   0.183100 0.854559 0.186995 -0.148787
C52   C     C_R   0.817229 0.359869 0.811822 -0.148082
C53   C     C_R   0.266441 0.801694 0.473849 -0.057326
C54   C     C_R   0.733405 0.361103 0.523191 -0.048657
C55   C     C_R   0.210728 0.761627 0.512910 -0.163556
C56   C     C_R   0.789553 0.375819 0.481524 -0.131759
C57   C     C_R   0.147287 0.754055 0.447572 0.014557
C58   C     C_R   0.853049 0.391923 0.545530 0.014548
C59   C     C_R   0.138046 0.786289 0.340581 -0.161083
C60   C     C_R   0.862259 0.388123 0.654200 -0.163077
H9    H     H_    0.181287 0.908498 0.980956 0.118103
H10   H     H_    0.819646 0.331390 0.019910 0.118788
H11   H     H_    0.278017 0.949080 0.906186 0.132242
H12   H     H_    0.723569 0.294889 0.096587 0.126752
H13   H     H_    0.392821 0.948072 0.018790 0.131408
H14   H     H_    0.608680 0.283783 0.984849 0.133137
H15   H     H_    0.411504 0.907115 0.206775 0.092027
H16   H     H_    0.589425 0.308657 0.795735 0.090942
H17   H     H_    0.216521 0.741089 0.596477 0.124014
H18   H     H_    0.783674 0.377543 0.397072 0.120449
H19   H     H_    0.087338 0.781922 0.292463 0.088850
H20   H     H_    0.912934 0.399598 0.701613 0.085559
O11   O     O_R   0.913760 0.203480 0.916370 -0.528356
O12   O     O_R   0.086240 0.703480 0.083630 -0.522547
O13   O     O_R   0.047590 0.535230 0.888250 -0.529034
O14   O     O_R   0.952410 0.035230 0.111750 -0.544414
C61   C     C_R   0.065765 0.367225 0.863851 0.810668
C62   C     C_R   0.934198 0.870419 0.136289 0.810633
O15   O     O_R   0.912020 0.532880 0.904260 -0.528499
O16   O     O_R   0.087980 0.032880 0.095740 -0.533730
O17   O     O_R   0.949590 0.708460 0.099750 -0.525749
O18   O     O_R   0.050410 0.208460 0.900250 -0.542215
C63   C     C_R   0.886359 0.365625 0.881062 0.673676
C64   C     C_R   0.113834 0.863879 0.118231 0.675325
O19   O     O_3   0.012370 0.375360 0.064120 -0.375466
O20   O     O_3   0.987630 0.875360 0.935880 -0.375370
V3    V     V_3+5 0.997700 0.648160 0.988110 1.510037
V4    V     V_3+5 0.002300 0.148160 0.011890 1.486142
C65   C     C_1   0.327408 0.826543 0.553740 0.307907
N1    N     N_1   0.375284 0.846606 0.619618 -0.294685
C66   C     C_1   0.671195 0.346022 0.444864 0.272859
N2    N     N_1   0.622349 0.334448 0.379966 -0.295304
C67   C     C_1   0.571250 0.733267 0.994405 0.283200
N3    N     N_1   0.542563 0.699975 0.909659 -0.366472
C68   C     C_1   0.432284 0.375270 0.011739 0.274836
N4    N     N_1   0.462052 0.379948 0.098182 -0.359127
O21   O     O_3   0.786682 0.801048 0.447134 -0.664424
H21   H     H_    0.818463 0.799100 0.516582 0.333827
O22   O     O_3   0.221903 0.191142 0.573618 -0.661740
H22   H     H_    0.193138 0.168607 0.503098 0.333036
O23   O     O_3   0.918559 0.920766 0.499319 -0.650228
H23   H     H_    0.965367 0.957236 0.504081 0.304691
O24   O     O_3   0.083172 0.194614 0.514222 -0.655323
H24   H     H_    0.034592 0.185231 0.509648 0.302506
O25   O     O_3   0.819318 0.819108 0.997392 -0.642877
H25   H     H_    0.787709 0.799080 0.928689 0.288862
O26   O     O_3   0.180533 0.431609 0.000309 -0.643426
H26   H     H_    0.212311 0.454662 0.068495 0.288864
C69   C     C_1   0.091868 0.718673 0.493916 0.328945
N5    N     N_1   0.048642 0.690345 0.534335 -0.321821
C70   C     C_1   0.907778 0.415605 0.495861 0.317007
N6    N     N_1   0.949991 0.435184 0.452071 -0.330271

loop_
_geom_bond_atom_site_label_1
_geom_bond_atom_site_label_2
_ccdc_geom_bond_type
O17   V3    S    
C46   C48   A    
C51   C64   S    
O4    V2    S    
C7    C29   A    
C11   C13   A    
O15   C63   A    
C66   N2    T    
O1    C3    A    
O2    C4    A    
O11   C63   A    
C2    O7    A    
C11   O23   S    
C12   O24   S    
C5    C67   S    
O24   H24   S    
C23   C25   A    
O5    C3    A    
C32   C61   S    
C4    C7    S    
C31   C62   S    
C54   C56   A    
C16   C20   A    
C40   C42   A    
C19   C21   A    
C5    C29   A    
C69   N5    T    
O11   V4    S    
C58   C60   A    
C37   C39   A    
O20   V3    S    
C38   C40   A    
C68   N4    T    
C6    C30   A    
C3    C8    S    
O16   C64   A    
C7    C27   A    
C33   H9    S    
C49   C51   A    
C42   C44   A    
C2    C45   S    
C36   C38   A    
C45   C47   A    
C18   C26   A    
C15   C17   A    
O18   V4    S    
C47   C53   A    
C19   C27   A    
C9    C31   A    
C59   H19   S    
C61   O18   A    
C10   C32   A    
C24   C26   A    
O14   V4    S    
O12   C64   A    
O6    V2    S    
C22   C24   A    
C53   C55   A    
C38   H14   S    
C36   H12   S    
C33   C35   A    
C40   H16   S    
O19   V4    S    
C34   C36   A    
O12   V3    S    
C39   C41   A    
O16   V4    S    
C42   C46   A    
C50   C60   A    
C25   O25   S    
O4    C2    A    
C54   C66   S    
C27   H5    S    
C57   C69   S    
O5    V1    S    
C13   O21   S    
H1    C29   S    
O14   C62   A    
C47   C49   A    
C16   C18   A    
C60   H20   S    
C58   C70   S    
C9    H7    S    
C10   H8    S    
H3    C23   S    
O6    C4    A    
H4    C24   S    
C41   C43   A    
C57   C59   A    
O1    V2    S    
C5    C21   A    
O2    V1    S    
C55   C57   A    
O23   H23   S    
O13   V3    S    
C26   O26   S    
C48   C50   A    
C43   C51   A    
C35   C37   A    
O25   H25   S    
C17   C31   A    
C15   C19   A    
C49   C59   A    
C18   C32   A    
C35   H11   S    
O26   H26   S    
C34   H10   S    
O3    V1    S    
C67   N3    T    
C28   H6    S    
C56   C58   A    
C1    C46   S    
O3    C1    A    
C6    C68   S    
O22   H22   S    
O13   C61   A    
C53   C65   S    
C52   C63   S    
C9    C11   A    
C62   O17   A    
O15   V3    S    
C10   C12   A    
C8    C30   A    
C12   C14   A    
C6    C22   A    
C17   C25   A    
C1    O8    A    
C21   C23   A    
O8    V2    S    
O21   H21   S    
C14   C16   A    
C33   C43   A    
C34   C44   A    
C8    C28   A    
C20   C22   A    
C37   H13   S    
C44   C52   A    
O7    V1    S    
C39   H15   S    
C20   C28   A    
C55   H17   S    
C41   C45   A    
C13   C15   A    
C14   O22   S    
O9    V2    S    
O10   V1    S    
C50   C52   A    
C65   N1    T    
C48   C54   A    
H2    C30   S    
C70   N6    T    
C56   H18   S    
