data_mof_unit_30286.cif
_audit_creation_date              2012-12-11T14:52:27-0500
_audit_creation_method            fapswitch 2.2
_symmetry_space_group_name_H-M    P1
_symmetry_Int_Tables_number       1
_space_group_crystal_system       triclinic
_cell_length_a                    8.26133
_cell_length_b                    15.050525
_cell_length_c                    26.959713
_cell_angle_alpha                 96.948846
_cell_angle_beta                  92.548231
_cell_angle_gamma                 80.723645
_cell_volume                      3282.89519308

loop_
_atom_site_label
_atom_site_type_symbol
_atom_type_description
_atom_site_fract_x
_atom_site_fract_y
_atom_site_fract_z
_atom_type_partial_charge
Ba1   Ba    Ba6+2 0.860900 0.457020 0.523210 1.706525
Ba2   Ba    Ba6+2 0.328940 0.542910 0.476780 1.697190
C1    C     C_3   0.772448 0.133377 0.655556 -0.188038
C2    C     C_3   0.723850 0.224315 0.634677 0.270786
C3    C     C_3   0.468161 0.685673 0.629644 0.245228
C4    C     C_3   0.424894 0.721761 0.684007 -0.198064
C5    C     C_3   0.021416 0.741154 0.342459 0.332576
C6    C     C_3   0.029283 0.768897 0.290392 -0.323041
C7    C     C_3   0.476998 0.784172 0.363454 0.340381
C8    C     C_3   0.423845 0.875288 0.343863 -0.342153
C9    C     C_R   0.033394 0.433823 0.178613 0.604081
C10   C     C_R   0.896088 0.586422 0.176710 0.578443
C11   C     C_2   0.754547 0.558077 0.272466 -0.082167
C12   C     C_3   0.212309 0.257572 0.656503 0.291783
C13   C     C_3   0.731961 0.589418 0.327339 -0.048938
C14   C     C_1   0.986329 0.487006 0.343220 0.016662
C15   C     C_2   0.028459 0.482968 0.295451 -0.108964
C16   C     C_2   0.904572 0.517396 0.256252 0.191163
C17   C     C_R   0.018660 0.503432 0.100541 -0.081544
C18   C     C_R   0.073534 0.429197 0.127468 -0.036100
C19   C     C_R   0.166722 0.351769 0.102512 -0.049804
C20   C     C_R   0.930502 0.582631 0.125553 -0.028132
C21   C     C_2   0.846836 0.533872 0.360742 -0.290531
C22   C     C_2   0.356978 0.479036 0.640010 -0.301818
C23   C     C_3   0.198925 0.237232 0.709875 -0.310603
C24   C     C_R   0.202261 0.423268 0.974198 0.028455
C25   C     C_R   0.006223 0.564005 0.968359 -0.017932
C26   C     C_R   0.126488 0.493818 0.946141 0.053529
C27   C     C_R   0.324117 0.356384 0.950776 -0.088080
C28   C     C_R   0.367621 0.357871 0.901465 -0.043231
C29   C     C_R   0.291582 0.425941 0.873064 -0.026161
C30   C     C_R   0.170285 0.493787 0.895352 -0.070768
C31   C     C_R   0.092834 0.561691 0.866876 -0.052449
C32   C     C_R   0.141295 0.562973 0.817210 0.613598
C33   C     C_R   0.333815 0.426998 0.822723 0.582127
C34   C     C_3   0.242184 0.263859 0.410105 0.856668
C35   C     C_2   0.461067 0.482918 0.728790 -0.066154
C36   C     C_3   0.503769 0.486984 0.674857 -0.035538
C37   C     C_1   0.210278 0.515790 0.655745 0.033734
C38   C     C_2   0.170403 0.512942 0.702747 -0.089729
C39   C     C_2   0.301870 0.495792 0.742732 0.184931
C40   C     C_R   0.155165 0.422533 0.024642 0.022601
C41   C     C_R   0.052975 0.499030 0.048596 0.053826
C42   C     C_R   0.986562 0.572075 0.021268 0.042295
C43   C     C_R   0.208282 0.348780 0.052508 -0.094042
C44   C     C_R   0.881986 0.658010 0.099233 -0.044188
C45   C     C_3   0.279978 0.162230 0.392714 -0.314167
C46   C     C_R   0.911276 0.622973 0.936422 -0.053740
C47   C     C_R   0.962391 0.624634 0.887609 -0.078033
C48   C     C_R   0.911723 0.653241 0.048477 -0.047047
C49   C     C_R   0.753031 0.766100 0.480641 -0.281008
C50   C     C_R   0.840603 0.826474 0.462894 0.010815
C51   C     C_R   0.779670 0.919696 0.468694 -0.117742
C52   C     C_R   0.629721 0.953782 0.493538 0.012355
C53   C     C_R   0.548348 0.890083 0.512751 -0.102278
C54   C     C_R   0.610913 0.798180 0.506822 0.024952
C55   C     C_R   0.412600 0.086403 0.526941 -0.086663
C56   C     C_3   0.904819 0.741594 0.616403 0.323475
C57   C     C_R   0.352210 0.178869 0.534968 0.065659
C58   C     C_R   0.581016 0.211639 0.492181 0.016820
C59   C     C_R   0.643495 0.119175 0.484000 -0.106244
C60   C     C_R   0.562474 0.053924 0.501987 0.004877
C61   C     C_R   0.439587 0.241307 0.519191 -0.235709
C62   C     C_3   0.925590 0.826354 0.592445 -0.376785
C63   C     C_3   0.695728 0.346739 0.374329 0.286881
C64   C     C_3   0.703402 0.323979 0.317902 -0.325904
H1    H     H_    0.833125 0.237552 0.616081 0.105007
H2    H     H_    0.335896 0.126544 0.424450 0.044173
H3    H     H_    0.164622 0.135229 0.381598 0.076025
H4    H     H_    0.826974 0.702323 0.591160 -0.040115
H5    H     H_    0.001042 0.868733 0.617173 0.144638
H6    H     H_    0.804587 0.868024 0.585188 0.104968
H7    H     H_    0.990793 0.805743 0.556486 0.110647
H8    H     H_    0.812681 0.367595 0.388733 0.021162
H9    H     H_    0.593549 0.403342 0.382822 0.066946
H10   H     H_    0.830534 0.082113 0.625716 0.037700
H11   H     H_    0.809991 0.270590 0.308153 0.139595
H12   H     H_    0.716385 0.384969 0.300106 0.055372
H13   H     H_    0.588950 0.299482 0.303121 0.161037
H14   H     H_    0.623163 0.219500 0.606336 -0.024337
H15   H     H_    0.358769 0.663028 0.610234 0.046478
H16   H     H_    0.567847 0.626614 0.629593 0.005586
H17   H     H_    0.371688 0.669902 0.701213 0.031442
H18   H     H_    0.537283 0.733035 0.706119 0.091501
H19   H     H_    0.864892 0.140607 0.686417 0.107031
H20   H     H_    0.261785 0.284368 0.735735 0.127085
H21   H     H_    0.106046 0.676166 0.344530 0.083036
H22   H     H_    0.893591 0.731721 0.348488 -0.051097
H23   H     H_    0.150505 0.788427 0.284596 0.149149
H24   H     H_    0.012806 0.710712 0.262381 0.126814
H25   H     H_    0.931122 0.827148 0.284965 0.131717
H26   H     H_    0.613413 0.772253 0.365481 -0.061667
H27   H     H_    0.429104 0.788246 0.401677 0.078273
H28   H     H_    0.475845 0.928661 0.368674 0.100876
H29   H     H_    0.288239 0.893018 0.343243 0.146874
H30   H     H_    0.147461 0.327566 0.653979 0.045485
H31   H     H_    0.469205 0.873019 0.305492 0.140286
H32   H     H_    0.153626 0.456382 0.284811 0.137446
H33   H     H_    0.209953 0.293067 0.121825 0.132094
H34   H     H_    0.559996 0.475474 0.756582 0.117866
H35   H     H_    0.462415 0.305063 0.885626 0.133171
H36   H     H_    0.391657 0.302966 0.970164 0.077478
H37   H     H_    0.279341 0.286612 0.036232 0.079128
H38   H     H_    0.657130 0.580241 0.246287 0.124387
H39   H     H_    0.820747 0.721679 0.117876 0.128665
H40   H     H_    0.344116 0.253473 0.648118 0.010383
H41   H     H_    0.892216 0.671868 0.864371 0.163231
H42   H     H_    0.042531 0.523705 0.712599 0.156361
H43   H     H_    0.878977 0.715080 0.031264 0.078974
H44   H     H_    0.828846 0.548807 0.400695 0.074521
H45   H     H_    0.372939 0.447595 0.601744 0.072311
H46   H     H_    0.336846 0.042455 0.539656 0.089359
H47   H     H_    0.853849 0.963353 0.454786 0.083469
H48   H     H_    0.752152 0.100374 0.462139 0.099765
H49   H     H_    0.440332 0.909238 0.534750 0.102985
H50   H     H_    0.391331 0.312896 0.524914 0.088445
H51   H     H_    0.067870 0.246355 0.719944 0.122543
H52   H     H_    0.802152 0.694536 0.477490 0.070607
H53   H     H_    0.256716 0.166525 0.713887 0.154843
H54   H     H_    0.357928 0.291438 0.417406 -0.083183
N1    N     N_R   0.945283 0.512118 0.203144 -0.422476
N2    N     N_R   0.259151 0.495307 0.795035 -0.428500
O1    O     O_2   0.905540 0.548000 0.618290 -0.479252
O2    O     O_3   0.670523 0.269611 0.395328 -0.606800
O3    O     O_3   0.139629 0.194388 0.623885 -0.601553
O4    O     O_2   0.284150 0.451970 0.381680 -0.481154
O5    O     O_3   0.052160 0.451990 0.441880 -0.436277
O6    O     O_3   0.501140 0.616030 0.412450 -0.481404
O7    O     O_3   0.147738 0.307379 0.373235 -0.670657
O8    O     O_3   0.615020 0.608480 0.525380 -0.484961
O9    O     O_3   0.085020 0.662210 0.437090 -0.493174
O10   O     O_2   0.177793 0.822470 0.469596 -0.482364
O11   O     O_3   0.068831 0.809204 0.377649 -0.599526
O12   O     O_3   0.137550 0.547930 0.558110 -0.466366
O13   O     O_3   0.574690 0.391440 0.474610 -0.503444
O14   O     O_2   0.341330 0.720570 0.525000 -0.438925
O15   O     O_3   0.523148 0.752908 0.606050 -0.619795
O16   O     O_2   0.412051 0.540047 0.322693 -0.495835
O17   O     O_3   0.414548 0.715494 0.331666 -0.591519
O18   O     O_2   0.075149 0.367535 0.200909 -0.587849
O19   O     O_2   0.436107 0.366315 0.803496 -0.585537
O20   O     O_2   0.822525 0.656838 0.197721 -0.615094
O21   O     O_2   0.079563 0.625343 0.793987 -0.542760
O22   O     O_3   0.688580 0.383890 0.587540 -0.498128
O23   O     O_2   0.846747 0.423582 0.672622 -0.496351
O24   O     O_3   0.062058 0.692805 0.622628 -0.643458
O25   O     O_3   0.673450 0.293482 0.673428 -0.600913
O26   O     O_2   0.848360 0.279400 0.474970 -0.379629
O27   O     O_3   0.104690 0.337720 0.562900 -0.458567
O28   O     O_2   0.014194 0.177258 0.533091 -0.466781
P1    P     P_3+3 0.070480 0.574800 0.610950 1.031851
P2    P     P_3+3 0.668430 0.292880 0.460530 1.033127
P3    P     P_3+3 0.152023 0.220498 0.562856 1.028596
P4    P     P_3+3 0.119230 0.425130 0.389040 1.039759
P5    P     P_3+3 0.043538 0.780545 0.437411 0.958727
P6    P     P_3+3 0.679061 0.399230 0.652672 0.971263
P7    P     P_3+3 0.525167 0.721339 0.541437 0.972277
P8    P     P_3+3 0.514882 0.611163 0.347816 0.946246
C65   C     C_2   0.395278 0.142026 0.349597 0.844838
O29   O     O_2   0.535836 0.104896 0.356224 -0.565884
O30   O     O_R   0.343907 0.163325 0.301752 -0.702342
H55   H     H_    0.223053 0.188620 0.299414 0.297016
C66   C     C_2   0.828586 0.767768 0.667151 0.899431
O31   O     O_2   0.843040 0.711580 0.697283 -0.586312
O32   O     O_R   0.742740 0.856125 0.680180 -0.736964
H56   H     H_    0.699553 0.865577 0.715550 0.330894
C67   C     C_2   0.627688 0.099742 0.674249 0.931349
O33   O     O_2   0.520463 0.077509 0.644869 -0.608320
O34   O     O_R   0.618634 0.091637 0.725094 -0.715621
H57   H     H_    0.518071 0.065793 0.733037 0.324775
C68   C     C_2   0.305461 0.808825 0.688598 0.928716
O35   O     O_2   0.340220 0.876294 0.673176 -0.558307
O36   O     O_R   0.157704 0.813312 0.712743 -0.716343
H58   H     H_    0.088804 0.875706 0.714519 0.316542
C69   C     C_2   0.744136 0.672249 0.949050 0.853398
O37   O     O_2   0.693298 0.744566 0.932949 -0.589364
O38   O     O_R   0.642203 0.634187 0.977876 -0.752423
H59   H     H_    0.530698 0.673379 0.983388 0.318439
F1    F     F_    0.155464 0.275792 0.453508 -0.701778

loop_
_geom_bond_atom_site_label_1
_geom_bond_atom_site_label_2
_ccdc_geom_bond_type
C25   C46   A    
C68   O35   D    
O32   H56   S    
C37   P1    S    
C1    H19   S    
O34   H57   S    
C66   O31   D    
C36   P6    S    
C9    O18   D    
C49   H52   S    
O30   H55   S    
C57   P3    S    
C1    C67   S    
C55   C60   A    
C69   O38   S    
C45   C65   S    
C51   C52   A    
C50   P5    S    
C64   H13   S    
C22   H45   S    
Ba2   O12   S    
C12   O3    S    
C11   C16   D    
C34   C45   S    
O8    P7    S    
C32   O21   D    
C66   O32   S    
C35   C36   S    
C5    O11   S    
C65   O29   D    
C3    C4    S    
C19   H33   S    
C55   C57   A    
C55   H46   S    
C8    H28   S    
C31   C47   A    
O13   P2    S    
C44   H39   S    
C10   C20   A    
O10   P5    D    
O5    P4    S    
Ba1   P2    S    
C49   C54   A    
C58   P2    S    
C62   H5    S    
C21   H44   S    
C5    H22   S    
O27   P3    S    
C45   H3    S    
C43   H37   S    
O23   P6    D    
C25   C42   A    
C5    H21   S    
C10   N1    Am   
C17   C18   A    
O17   P8    S    
C17   C41   A    
C14   C15   D    
O28   P3    D    
C22   C36   S    
C62   H7    S    
C65   O30   S    
Ba1   O27   S    
C7    C8    S    
C38   H42   S    
C46   C69   S    
Ba2   O5    S    
C13   C21   S    
O2    P2    S    
Ba2   P4    S    
C67   O34   S    
C9    N1    Am   
C34   F1    S    
C56   C66   S    
C23   H53   S    
C7    H26   S    
C12   H30   S    
C51   H47   S    
Ba2   O9    S    
C19   C43   A    
C4    C68   S    
C56   C62   S    
C64   H12   S    
O1    P1    D    
C9    C18   A    
C4    H18   S    
O6    P8    S    
C49   C50   A    
O26   P2    D    
C5    C6    S    
C17   C20   A    
C13   P8    S    
C47   H41   S    
Ba1   O8    S    
C67   O33   D    
C56   H4    S    
C52   C60   S    
O36   H58   S    
C2    O25   S    
C48   H43   S    
Ba2   O14   S    
C63   H8    S    
C58   C59   A    
C40   C43   A    
C39   N2    S    
O22   P6    S    
C8    H31   S    
C41   C42   A    
Ba1   O1    S    
C27   C28   A    
O25   P6    S    
C54   P7    S    
C3    H15   S    
O16   P8    D    
C29   C30   A    
C10   O20   D    
C26   C30   A    
C28   C29   A    
C53   C54   A    
C15   C16   S    
C6    H25   S    
C11   H38   S    
C1    H10   S    
C33   O19   D    
O4    P4    D    
O14   P7    D    
Ba2   O4    S    
C38   C39   S    
C20   C44   A    
O38   H59   S    
C14   C21   D    
C11   C13   S    
C14   P4    S    
C58   C61   A    
C6    H24   S    
C40   C41   A    
C61   H50   S    
C1    C2    S    
C7    H27   S    
C45   H2    S    
C37   C38   D    
C50   C51   A    
C24   C40   A    
C15   H32   S    
C42   C48   A    
C64   H11   S    
C52   C53   A    
C46   C47   A    
C4    H17   S    
O11   P5    S    
C57   C61   A    
C33   N2    Am   
Ba1   O5    S    
C23   H51   S    
C2    H1    S    
C56   O24   S    
C3    O15   S    
C68   O36   S    
C44   C48   A    
C24   C26   A    
Ba2   O13   S    
C2    H14   S    
O15   P7    S    
C30   C31   A    
O3    P3    S    
O9    P5    S    
Ba1   O22   S    
C34   O7    S    
C3    H16   S    
C7    O17   S    
O7    P4    S    
C53   H49   S    
C8    H29   S    
O12   P1    S    
Ba1   Ba2   S    
C28   H35   S    
C23   H20   S    
Ba2   O8    S    
C31   C32   A    
C27   H36   S    
Ba1   P1    S    
C69   O37   D    
C29   C33   A    
C62   H6    S    
C12   C23   S    
C35   C39   D    
C59   C60   A    
C34   H54   S    
C16   N1    S    
O24   P1    S    
C63   O2    S    
C12   H40   S    
C18   C19   A    
C24   C27   A    
C32   N2    Am   
C63   C64   S    
C59   H48   S    
Ba1   O26   S    
C6    H23   S    
Ba1   O13   S    
C22   C37   D    
C35   H34   S    
C63   H9    S    
Ba1   O12   S    
C25   C26   A    
Ba2   O6    S    
