data_mof_unit_64082.cif
_audit_creation_date              2012-12-10T16:50:36-0500
_audit_creation_method            fapswitch 2.2
_symmetry_space_group_name_H-M    P1
_symmetry_Int_Tables_number       1
_space_group_crystal_system       triclinic
_cell_length_a                    26.206796
_cell_length_b                    26.279505
_cell_length_c                    22.253335
_cell_angle_alpha                 89.964446
_cell_angle_beta                  54.137436
_cell_angle_gamma                 89.972927
_cell_volume                      12420.4902475

loop_
_atom_site_label
_atom_site_type_symbol
_atom_type_description
_atom_site_fract_x
_atom_site_fract_y
_atom_site_fract_z
_atom_type_partial_charge
C1    C     C_R   0.650588 0.750072 0.698963 0.816882
C2    C     C_3   0.030687 0.252643 0.044894 -0.610406
C3    C     C_2   0.556500 0.750428 0.498235 -0.366353
C4    C     C_2   0.995185 0.723897 0.452297 -0.235380
C5    C     C_2   0.988602 0.284900 0.465941 -0.188383
C6    C     C_2   0.495091 0.223758 0.452468 -0.234853
C7    C     C_2   0.488604 0.784898 0.465938 -0.188084
C8    C     C_3   0.149282 0.744411 0.323624 -0.671612
C9    C     C_3   0.051770 0.381962 0.437897 -0.783590
C10   C     C_3   0.649229 0.243614 0.323573 -0.665428
C11   C     C_3   0.551773 0.881960 0.437890 -0.783003
C12   C     C_3   0.954718 0.739208 0.857786 -0.676283
C13   C     C_3   0.527165 0.231755 0.043819 -0.616342
C14   C     C_3   0.930022 0.338884 0.910058 -0.548683
C15   C     C_3   0.455066 0.235396 0.857811 -0.678750
C16   C     C_3   0.440966 0.851564 0.910165 -0.545200
C17   C     C_3   0.901188 0.437055 0.423136 -0.720979
C18   C     C_3   0.896009 0.553615 0.343205 -0.694549
C19   C     C_3   0.401199 0.937064 0.423074 -0.720034
C20   C     C_3   0.395974 0.053608 0.343144 -0.692255
C21   C     C_3   0.177775 0.719866 0.918038 -0.774861
C22   C     C_3   0.181535 0.229797 0.918745 -0.767568
C23   C     C_3   0.678638 0.224295 0.918031 -0.772901
C24   C     C_3   0.530581 0.746515 0.044893 -0.610405
C25   C     C_3   0.678234 0.713785 0.918701 -0.764655
C26   C     C_3   0.909882 0.886480 0.078447 -0.780732
C27   C     C_3   0.851176 0.152209 0.129436 -0.753226
C28   C     C_3   0.405408 0.384719 0.078427 -0.780887
C29   C     C_3   0.340465 0.662427 0.129162 -0.755664
C30   C     C_3   0.072490 0.875762 0.866959 -0.747651
C31   C     C_3   0.001256 0.105140 0.940325 -0.774135
C32   C     C_3   0.568340 0.375848 0.866921 -0.746559
C33   C     C_3   0.484766 0.609415 0.940205 -0.775359
C34   C     C_3   0.968979 0.805934 0.043698 -0.011917
C35   C     C_3   0.951639 0.199174 0.043767 0.049135
C36   C     C_3   0.467116 0.305575 0.043684 -0.011692
C37   C     C_3   0.445909 0.702564 0.043703 0.049680
C38   C     C_3   0.009889 0.806275 0.956509 -0.058440
C39   C     C_3   0.994846 0.198598 0.956432 -0.076456
C40   C     C_3   0.508011 0.305826 0.956497 -0.058671
C41   C     C_R   0.650619 0.249937 0.698942 0.813392
C42   C     C_3   0.489061 0.702070 0.956366 -0.076619
C43   C     C_1   0.110451 0.749634 0.778115 -0.129717
C44   C     C_1   0.110841 0.250065 0.778215 -0.099559
C45   C     C_1   0.610422 0.249594 0.778115 -0.129719
C46   C     C_1   0.610800 0.750119 0.778213 -0.099718
C47   C     C_3   0.960112 0.750296 0.073512 0.053027
C48   C     C_3   0.960687 0.249785 0.073472 0.069140
C49   C     C_3   0.460062 0.250165 0.073512 0.052750
C50   C     C_3   0.460619 0.750078 0.073468 0.068607
C51   C     C_3   0.068416 0.727581 0.957706 0.057283
C52   C     C_R   0.150588 0.250070 0.698963 0.817370
C53   C     C_3   0.074968 0.253761 0.958707 0.061280
C54   C     C_3   0.569075 0.229096 0.957703 0.056770
C55   C     C_3   0.574986 0.747520 0.958707 0.061189
C56   C     C_3   0.032678 0.750572 0.926457 0.039209
C57   C     C_3   0.035134 0.249169 0.926749 0.024960
C58   C     C_3   0.532609 0.250402 0.926457 0.039361
C59   C     C_3   0.534993 0.749386 0.926744 0.025385
C60   C     C_3   0.971800 0.716756 0.956078 0.391646
C61   C     C_3   0.988640 0.296511 0.955234 0.390647
C62   C     C_3   0.472856 0.215107 0.956094 0.392135
C63   C     C_R   0.150619 0.749938 0.698942 0.813517
C64   C     C_3   0.494163 0.800111 0.955286 0.390136
C65   C     C_3   0.932819 0.713531 0.043429 0.140494
C66   C     C_3   0.946759 0.297264 0.042839 0.159691
C67   C     C_3   0.433986 0.212038 0.043446 0.140407
C68   C     C_3   0.452354 0.800611 0.042891 0.159611
C69   C     C_R   0.849451 0.750070 0.301050 0.820455
C70   C     C_R   0.849410 0.249983 0.301059 0.823906
C71   C     C_R   0.349451 0.250069 0.301049 0.820644
C72   C     C_R   0.349416 0.749979 0.301058 0.824739
C73   C     C_1   0.075607 0.749948 0.844761 0.087822
C74   C     C_2   0.945413 0.753936 0.496919 -0.319364
C75   C     C_1   0.077008 0.249736 0.844901 0.042215
C76   C     C_1   0.575555 0.249847 0.844760 0.087984
C77   C     C_1   0.576924 0.749858 0.844897 0.041870
C78   C     C_1   0.921013 0.749972 0.155159 0.074549
C79   C     C_1   0.921137 0.250105 0.155157 0.062550
C80   C     C_1   0.420981 0.249905 0.155159 0.074775
C81   C     C_1   0.421099 0.750228 0.155155 0.062487
C82   C     C_1   0.888578 0.749940 0.221828 -0.105424
C83   C     C_1   0.888560 0.250154 0.221836 -0.118962
C84   C     C_1   0.388560 0.249914 0.221827 -0.105271
C85   C     C_2   0.940199 0.253018 0.507596 -0.351880
C86   C     C_1   0.388542 0.750188 0.221834 -0.118639
C87   C     C_2   0.740461 0.028064 0.458530 -0.161024
C88   C     C_2   0.742030 0.971989 0.457158 -0.163475
C89   C     C_2   0.240447 0.528064 0.458543 -0.160728
C90   C     C_2   0.242017 0.471989 0.457169 -0.163395
C91   C     C_2   0.751993 0.056080 0.499757 -0.281607
C92   C     C_2   0.748343 0.943909 0.502817 -0.281826
C93   C     C_2   0.251992 0.556080 0.499758 -0.281460
C94   C     C_2   0.248342 0.443909 0.502818 -0.281452
C95   C     C_2   0.797470 0.472870 0.470990 0.152531
C96   C     C_2   0.445403 0.253912 0.496932 -0.319743
C97   C     C_2   0.795828 0.526753 0.455183 0.154436
C98   C     C_2   0.297470 0.972871 0.470962 0.152514
C99   C     C_2   0.295816 0.026754 0.455163 0.154059
C100  C     C_2   0.749353 0.442541 0.486991 0.220930
C101  C     C_2   0.753036 0.557334 0.511622 0.208103
C102  C     C_2   0.249349 0.942540 0.486985 0.221569
C103  C     C_2   0.253038 0.057334 0.511615 0.208005
C104  C     C_R   0.750288 0.611499 0.500761 0.798961
C105  C     C_R   0.750088 0.388460 0.499285 0.800982
C106  C     C_R   0.250288 0.111500 0.500760 0.798876
C107  C     C_2   0.440200 0.753018 0.507595 -0.352177
C108  C     C_R   0.250087 0.888460 0.499283 0.800786
C109  C     C_R   0.749805 0.888680 0.500233 0.850903
C110  C     C_R   0.750196 0.111316 0.499927 0.857568
C111  C     C_R   0.249805 0.388680 0.500233 0.851425
C112  C     C_R   0.250196 0.611317 0.499928 0.857832
C113  C     C_R   0.610918 0.750881 0.500724 0.845122
C114  C     C_R   0.611724 0.250193 0.499210 0.868083
C115  C     C_R   0.110918 0.250881 0.500725 0.845452
C116  C     C_R   0.111725 0.750198 0.499207 0.868437
C117  C     C_R   0.888807 0.750426 0.499707 0.878180
C118  C     C_3   0.026585 0.730196 0.043823 -0.616739
C119  C     C_R   0.888386 0.250198 0.500713 0.876110
C120  C     C_R   0.388804 0.250422 0.499710 0.878052
C121  C     C_R   0.388386 0.750198 0.500713 0.876029
C122  C     C_2   0.054518 0.727887 0.445514 0.236510
C123  C     C_2   0.039259 0.291061 0.476294 0.265614
C124  C     C_2   0.554429 0.227685 0.445680 0.235617
C125  C     C_2   0.539261 0.791060 0.476291 0.265693
C126  C     C_2   0.055691 0.749072 0.500171 -0.312694
C127  C     C_2   0.056499 0.250429 0.498237 -0.366252
C128  C     C_2   0.555692 0.249071 0.500169 -0.313042
Cl1   Cl    Cl    0.848594 0.718238 0.092497 -0.592653
Cl2   Cl    Cl    0.703689 0.535213 0.604421 -0.581040
Cl3   Cl    Cl    0.187863 0.964584 0.482270 -0.554409
Cl4   Cl    Cl    0.203719 0.035212 0.604415 -0.581385
Cl5   Cl    Cl    0.863667 0.306467 0.087200 -0.623357
Cl6   Cl    Cl    0.349638 0.214800 0.092526 -0.593102
Cl7   Cl    Cl    0.370728 0.816750 0.087256 -0.618904
Cl8   Cl    Cl    0.993478 0.652371 0.920782 -0.611349
Cl9   Cl    Cl    0.034688 0.355011 0.921650 -0.646278
Cl10  Cl    Cl    0.496627 0.150886 0.920811 -0.611657
Cl11  Cl    Cl    0.546753 0.854860 0.921776 -0.645761
Cl12  Cl    Cl    0.687885 0.464588 0.482246 -0.555723
H1    H     H_    0.979404 0.819259 0.939998 0.158190
H2    H     H_    0.038729 0.287514 0.066707 0.201340
H3    H     H_    0.203100 0.262436 0.879701 0.254200
H4    H     H_    0.626063 0.290330 0.947425 0.248817
H5    H     H_    0.722470 0.247162 0.891029 0.242840
H6    H     H_    0.688493 0.190607 0.882602 0.256866
H7    H     H_    0.664826 0.211650 0.973356 0.240529
H8    H     H_    0.599450 0.670221 0.954779 0.263896
H9    H     H_    0.708361 0.679377 0.894387 0.249372
H10   H     H_    0.670066 0.722353 0.972602 0.249446
H11   H     H_    0.703535 0.745981 0.879696 0.253967
H12   H     H_    0.881755 0.817974 0.060112 0.267505
H13   H     H_    0.525085 0.193409 0.066507 0.199190
H14   H     H_    0.861026 0.901350 0.109495 0.250568
H15   H     H_    0.937405 0.902197 0.021328 0.237177
H16   H     H_    0.930730 0.899381 0.107224 0.242408
H17   H     H_    0.871478 0.197158 0.039859 0.244352
H18   H     H_    0.799841 0.157990 0.158370 0.249246
H19   H     H_    0.861251 0.153698 0.171421 0.242378
H20   H     H_    0.864141 0.114241 0.102621 0.221206
H21   H     H_    0.379538 0.315035 0.060105 0.267206
H22   H     H_    0.356085 0.398496 0.109472 0.250397
H23   H     H_    0.432421 0.400395 0.021305 0.237014
H24   H     H_    0.542509 0.778962 0.066754 0.201756
H25   H     H_    0.425815 0.398759 0.107203 0.242633
H26   H     H_    0.366071 0.710064 0.039792 0.244234
H27   H     H_    0.290025 0.672244 0.157896 0.247140
H28   H     H_    0.350308 0.660391 0.171325 0.243620
H29   H     H_    0.349305 0.624784 0.102205 0.221556
H30   H     H_    0.070241 0.859480 0.959774 0.223484
H31   H     H_    0.118961 0.894728 0.839333 0.248661
H32   H     H_    0.035131 0.905310 0.891831 0.232607
H33   H     H_    0.071895 0.854423 0.824351 0.249424
H34   H     H_    0.073086 0.155367 0.873754 0.259275
H35   H     H_    0.076994 0.686628 0.942065 0.206320
H36   H     H_    0.035910 0.073514 0.914764 0.248937
H37   H     H_    0.975422 0.106305 0.914747 0.246240
H38   H     H_    0.968083 0.096929 0.000332 0.243690
H39   H     H_    0.566598 0.361021 0.959739 0.223624
H40   H     H_    0.614178 0.395863 0.839283 0.249444
H41   H     H_    0.530034 0.404573 0.891784 0.232139
H42   H     H_    0.568447 0.353804 0.824323 0.249440
H43   H     H_    0.562069 0.654918 0.873605 0.260172
H44   H     H_    0.515677 0.575532 0.914411 0.249275
H45   H     H_    0.459126 0.615034 0.914873 0.245267
H46   H     H_    0.098776 0.291419 0.941901 0.216011
H47   H     H_    0.450851 0.601527 0.000204 0.243759
H48   H     H_    0.578984 0.188188 0.942075 0.206446
H49   H     H_    0.603020 0.783160 0.941955 0.216062
H50   H     H_    0.729921 0.046709 0.423392 0.175839
H51   H     H_    0.737190 0.953408 0.417145 0.177742
H52   H     H_    0.229895 0.546709 0.423416 0.175670
H53   H     H_    0.965995 0.197354 0.934872 0.140296
H54   H     H_    0.237167 0.453408 0.417164 0.177513
H55   H     H_    0.763934 0.039200 0.534319 0.157177
H56   H     H_    0.751916 0.960736 0.544515 0.159267
H57   H     H_    0.263943 0.539200 0.534310 0.156903
H58   H     H_    0.251923 0.460736 0.544510 0.159032
H59   H     H_    0.013662 0.764531 0.549736 0.130155
H60   H     H_    0.032630 0.214122 0.510592 0.148669
H61   H     H_    0.513730 0.264719 0.549609 0.129975
H62   H     H_    0.532631 0.714121 0.510591 0.148559
H63   H     H_    0.993698 0.696558 0.416729 0.176619
H64   H     H_    0.477120 0.317543 0.939987 0.157986
H65   H     H_    0.989607 0.308550 0.425290 0.185928
H66   H     H_    0.493527 0.196342 0.417037 0.176827
H67   H     H_    0.489609 0.808548 0.425286 0.186120
H68   H     H_    0.946268 0.783682 0.529975 0.160706
H69   H     H_    0.935915 0.230533 0.551251 0.162534
H70   H     H_    0.446313 0.283716 0.529877 0.160359
H71   H     H_    0.435916 0.730533 0.551251 0.162335
H72   H     H_    0.048335 0.754934 0.063718 0.203556
H73   H     H_    0.041931 0.219881 0.067015 0.206995
H74   H     H_    0.548096 0.257514 0.063700 0.203866
H75   H     H_    0.460330 0.705393 0.934802 0.139493
H76   H     H_    0.537908 0.711399 0.066968 0.206594
H77   H     H_    0.994315 0.826384 0.062795 0.152464
H78   H     H_    0.967334 0.167860 0.063327 0.169069
H79   H     H_    0.491768 0.327152 0.062771 0.152553
H80   H     H_    0.457830 0.668532 0.063237 0.168948
H81   H     H_    0.101829 0.675836 0.359642 0.211225
H82   H     H_    0.193023 0.725797 0.277195 0.236933
H83   H     H_    0.162766 0.775390 0.345737 0.244393
H84   H     H_    0.123875 0.760911 0.302056 0.223973
H85   H     H_    0.076825 0.349585 0.502662 0.229090
H86   H     H_    0.937984 0.674452 0.058572 0.183748
H87   H     H_    0.079798 0.415998 0.431165 0.240391
H88   H     H_    0.001037 0.390961 0.478945 0.236155
H89   H     H_    0.062021 0.373318 0.382986 0.246301
H90   H     H_    0.601475 0.175198 0.360380 0.211391
H91   H     H_    0.692870 0.224774 0.277313 0.240864
H92   H     H_    0.662884 0.274726 0.345318 0.243439
H93   H     H_    0.623857 0.259975 0.301878 0.223966
H94   H     H_    0.576826 0.849584 0.502657 0.228734
H95   H     H_    0.579801 0.915996 0.431158 0.240374
H96   H     H_    0.501039 0.890959 0.478938 0.235792
H97   H     H_    0.959760 0.331256 0.060960 0.177195
H98   H     H_    0.562024 0.873315 0.382979 0.246805
H99   H     H_    0.903574 0.767636 0.964864 0.228025
H100  H     H_    0.913718 0.739781 0.855152 0.240638
H101  H     H_    0.983899 0.705661 0.826056 0.279176
H102  H     H_    0.982019 0.774663 0.831455 0.203071
H103  H     H_    0.915163 0.265714 0.951663 0.223075
H104  H     H_    0.895225 0.329163 0.898606 0.195485
H105  H     H_    0.970801 0.357184 0.859424 0.257804
H106  H     H_    0.907783 0.365929 0.957297 0.286245
H107  H     H_    0.402999 0.263884 0.964884 0.227751
H108  H     H_    0.440422 0.173395 0.058595 0.183872
H109  H     H_    0.414066 0.234599 0.855183 0.240162
H110  H     H_    0.485328 0.202297 0.826086 0.279376
H111  H     H_    0.481207 0.271290 0.831471 0.202734
H112  H     H_    0.417651 0.778182 0.951659 0.222598
H113  H     H_    0.405317 0.846579 0.898705 0.195860
H114  H     H_    0.483749 0.867977 0.859553 0.257977
H115  H     H_    0.421835 0.878252 0.957438 0.287095
H116  H     H_    0.822487 0.436900 0.533828 0.222046
H117  H     H_    0.909504 0.398661 0.436845 0.241065
H118  H     H_    0.939876 0.462420 0.411418 0.230603
H119  H     H_    0.469120 0.831830 0.061054 0.176980
H120  H     H_    0.902396 0.433499 0.372520 0.251247
H121  H     H_    0.807547 0.569131 0.368337 0.234605
H122  H     H_    0.916657 0.568982 0.286839 0.233333
H123  H     H_    0.922082 0.518608 0.336834 0.239682
H124  H     H_    0.902299 0.582167 0.375134 0.251020
H125  H     H_    0.322516 0.936907 0.533777 0.221825
H126  H     H_    0.409531 0.898677 0.436782 0.240940
H127  H     H_    0.439887 0.962440 0.411330 0.230601
H128  H     H_    0.402386 0.933494 0.372473 0.251832
H129  H     H_    0.307491 0.069139 0.368347 0.234883
H130  H     H_    0.023248 0.691568 0.066501 0.198938
H131  H     H_    0.416596 0.068975 0.286784 0.233932
H132  H     H_    0.422047 0.018596 0.336751 0.239780
H133  H     H_    0.402293 0.082156 0.375051 0.250533
H134  H     H_    0.127367 0.787095 0.947458 0.248610
H135  H     H_    0.222334 0.741736 0.891046 0.242751
H136  H     H_    0.186539 0.686457 0.882593 0.257098
H137  H     H_    0.163543 0.706770 0.973357 0.239795
H138  H     H_    0.108157 0.179555 0.954882 0.264244
H139  H     H_    0.215498 0.197674 0.894476 0.249128
H140  H     H_    0.172250 0.240483 0.972637 0.248727
N1    N     N_2   0.110103 0.707195 0.380650 -0.278153
N2    N     N_2   0.830000 0.542572 0.379436 -0.293423
N3    N     N_2   0.341649 0.957192 0.485301 -0.303913
N4    N     N_2   0.329956 0.042575 0.379420 -0.293021
N5    N     N_2   0.129302 0.751930 0.925846 -0.269538
N6    N     N_2   0.123589 0.214609 0.929586 -0.291049
N7    N     N_2   0.629146 0.254892 0.925828 -0.269914
N8    N     N_2   0.618887 0.704729 0.929530 -0.291501
N9    N     N_2   0.908716 0.831478 0.076404 -0.269385
N10   N     N_2   0.885349 0.191592 0.074173 -0.261282
N11   N     N_2   0.406040 0.329675 0.076391 -0.269427
N12   N     N_2   0.069672 0.339469 0.463325 -0.260606
N13   N     N_2   0.379085 0.700897 0.074092 -0.260821
N14   N     N_2   0.062788 0.841861 0.924166 -0.294620
N15   N     N_2   0.033948 0.152755 0.927957 -0.303491
N16   N     N_2   0.559731 0.342586 0.924139 -0.294710
N17   N     N_2   0.522743 0.653692 0.927826 -0.303312
N18   N     N_2   0.609908 0.206685 0.381022 -0.279156
N19   N     N_2   0.569674 0.839468 0.463320 -0.260552
N20   N     N_2   0.932162 0.737271 0.934835 -0.248353
N21   N     N_2   0.949995 0.292926 0.927060 -0.306479
N22   N     N_2   0.432569 0.233977 0.934858 -0.248027
N23   N     N_2   0.455460 0.802630 0.927102 -0.307933
N24   N     N_2   0.841633 0.457185 0.485350 -0.303479
O1    O     O_3   0.750030 0.750030 0.500000 -0.498618
O2    O     O_R   0.758570 0.135390 0.542990 -0.636812
O3    O     O_R   0.258570 0.364610 0.542990 -0.636909
O4    O     O_R   0.258570 0.635390 0.542990 -0.636983
O5    O     O_R   0.638020 0.720010 0.663980 -0.632450
O6    O     O_R   0.638020 0.279990 0.663980 -0.644272
O7    O     O_R   0.138020 0.220010 0.663980 -0.631684
O8    O     O_R   0.138020 0.779990 0.663980 -0.644138
O9    O     O_R   0.801960 0.780050 0.336020 -0.618982
O10   O     O_R   0.801960 0.219950 0.336020 -0.636938
O11   O     O_R   0.301960 0.280050 0.336020 -0.619651
O12   O     O_3   0.750030 0.249970 0.500000 -0.496706
O13   O     O_R   0.301960 0.719950 0.336020 -0.638739
O14   O     O_R   0.698090 0.780090 0.663980 -0.624281
O15   O     O_R   0.698090 0.219910 0.663980 -0.624174
O16   O     O_R   0.198090 0.280090 0.663980 -0.625489
O17   O     O_R   0.198090 0.719910 0.663980 -0.624417
O18   O     O_R   0.862050 0.719970 0.336020 -0.646184
O19   O     O_R   0.862050 0.280030 0.336020 -0.632645
O20   O     O_R   0.362050 0.219970 0.336020 -0.645692
O21   O     O_R   0.362050 0.780030 0.336020 -0.631158
O22   O     O_R   0.698510 0.635460 0.542990 -0.581720
O23   O     O_3   0.250030 0.250030 0.500000 -0.498525
O24   O     O_R   0.698510 0.364540 0.542990 -0.590959
O25   O     O_R   0.198510 0.135460 0.542990 -0.581708
O26   O     O_R   0.198510 0.864540 0.542990 -0.591046
O27   O     O_R   0.741470 0.864610 0.457010 -0.646933
O28   O     O_R   0.741470 0.135390 0.457010 -0.645649
O29   O     O_R   0.241470 0.364610 0.457010 -0.646969
O30   O     O_R   0.241470 0.635390 0.457010 -0.645633
O31   O     O_R   0.613960 0.720010 0.542990 -0.633074
O32   O     O_R   0.613960 0.279990 0.542990 -0.634222
O33   O     O_R   0.113960 0.220010 0.542990 -0.632710
O34   O     O_3   0.250030 0.749970 0.500000 -0.496768
O35   O     O_R   0.113960 0.779990 0.542990 -0.633953
O36   O     O_R   0.843120 0.780070 0.542990 -0.639814
O37   O     O_R   0.843120 0.219930 0.542990 -0.638923
O38   O     O_R   0.343120 0.280070 0.542990 -0.640383
O39   O     O_R   0.343120 0.719930 0.542990 -0.639158
O40   O     O_R   0.656940 0.780080 0.457010 -0.622360
O41   O     O_R   0.656940 0.219920 0.457010 -0.611138
O42   O     O_R   0.156940 0.280080 0.457010 -0.622583
O43   O     O_R   0.156940 0.719920 0.457010 -0.611101
O44   O     O_R   0.886110 0.719980 0.457010 -0.644964
O45   O     O_R   0.801570 0.635440 0.457010 -0.669339
O46   O     O_R   0.886110 0.280020 0.457010 -0.652126
O47   O     O_R   0.386110 0.219980 0.457010 -0.644839
O48   O     O_R   0.386110 0.780020 0.457010 -0.652073
O49   O     O_R   0.801570 0.364560 0.457010 -0.656426
O50   O     O_R   0.301570 0.135440 0.457010 -0.669438
O51   O     O_R   0.301570 0.864560 0.457010 -0.656148
O52   O     O_R   0.758570 0.864610 0.542990 -0.636737
Zn1   Zn    Zn3+2 0.823660 0.707100 0.438580 0.964526
Zn2   Zn    Zn3+2 0.737810 0.207050 0.438580 0.983115
Zn3   Zn    Zn3+2 0.237810 0.292950 0.438580 0.990297
Zn4   Zn    Zn3+2 0.237810 0.707050 0.438580 0.982759
Zn5   Zn    Zn3+2 0.762240 0.792950 0.561420 0.993305
Zn6   Zn    Zn3+2 0.762240 0.207050 0.561420 0.988956
Zn7   Zn    Zn3+2 0.262240 0.292950 0.561420 0.992271
Zn8   Zn    Zn3+2 0.262240 0.707050 0.561420 0.988570
Zn9   Zn    Zn3+2 0.823660 0.292900 0.438580 0.967681
Zn10  Zn    Zn3+2 0.323660 0.207100 0.438580 0.964796
Zn11  Zn    Zn3+2 0.323660 0.792900 0.438580 0.968860
Zn12  Zn    Zn3+2 0.676410 0.707120 0.561420 1.020814
Zn13  Zn    Zn3+2 0.676410 0.292880 0.561420 1.012483
Zn14  Zn    Zn3+2 0.176410 0.207120 0.561420 1.021610
Zn15  Zn    Zn3+2 0.176410 0.792880 0.561420 1.012968
Zn16  Zn    Zn3+2 0.737810 0.792950 0.438580 0.990462

loop_
_geom_bond_atom_site_label_1
_geom_bond_atom_site_label_2
_ccdc_geom_bond_type
C99   C103  D    
C115  O42   A    
C87   C91   D    
O41   Zn2   S    
O43   Zn4   S    
C127  H60   S    
O12   Zn13  S    
C43   C63   S    
O14   Zn5   S    
C27   H18   S    
C18   H122  S    
C55   C59   S    
C92   C109  S    
C35   N10   S    
C115  O33   A    
C60   N20   S    
O6    Zn13  S    
C94   C111  S    
C51   C118  S    
C61   N21   S    
C37   C42   S    
O23   Zn3   S    
C22   N6    S    
C119  O46   A    
O39   Zn8   S    
O10   Zn2   S    
C103  Cl4   S    
C81   C86   T    
C33   N17   S    
C101  Cl2   S    
H4    N7    S    
H39   N16   S    
C24   H24   S    
C121  O39   A    
C119  O37   A    
C120  O47   A    
C11   H95   S    
C40   C58   S    
H34   N15   S    
C98   N3    S    
C15   H109  S    
C15   N22   S    
C54   N7    S    
C98   C102  D    
O47   Zn10  S    
O40   Zn16  S    
C108  O51   A    
C105  O49   A    
C68   H119  S    
C114  C128  S    
C16   H113  S    
C78   C82   T    
C72   C86   S    
C112  O4    A    
H85   N12   S    
C10   H92   S    
C4    C122  S    
C17   H120  S    
C11   N19   S    
C123  N12   S    
C8    H83   S    
O44   Zn1   S    
C19   H126  S    
C14   H104  S    
C15   H110  S    
C109  O52   A    
C60   C65   S    
C12   H102  S    
C116  O43   A    
C21   H136  S    
H125  N3    S    
O16   Zn7   S    
C13   C54   S    
C10   H93   S    
C37   N13   S    
C56   C73   S    
C91   C110  S    
C92   H56   S    
C2    C53   S    
C85   H69   S    
C46   C77   T    
C95   C97   S    
C57   C61   S    
C42   N17   S    
C19   N3    S    
C49   C80   S    
C25   N8    S    
C37   C50   S    
C9    H88   S    
C27   N10   S    
C1    C46   S    
C122  N1    S    
H116  N24   S    
C93   C112  S    
C12   H100  S    
C98   C99   S    
H8    N8    S    
O2    Zn6   S    
C3    H62   S    
C41   C45   S    
C32   H40   S    
C108  O26   A    
O27   Zn16  S    
C37   H80   S    
C29   H29   S    
C50   C81   S    
C70   O19   A    
C43   C73   T    
C88   H51   S    
C122  C126  D    
O38   Zn7   S    
C34   H77   S    
C58   C76   S    
C106  O25   A    
C111  O3    A    
C39   H53   S    
O52   Zn5   S    
C64   C68   S    
C29   H28   S    
C121  O48   A    
C16   H115  S    
C22   H140  S    
C27   H19   S    
C25   H9    S    
C85   C119  S    
C69   C82   S    
C113  O40   A    
O19   Zn9   S    
C40   H64   S    
C116  O35   A    
C60   Cl8   S    
O17   Zn8   S    
C5    C85   D    
C44   C52   S    
H103  N21   S    
C64   N23   S    
C26   H15   S    
C113  O31   A    
C36   H79   S    
O9    Zn16  S    
C31   H36   S    
C24   C50   S    
C23   H6    S    
C96   H70   S    
C31   H38   S    
C69   O9    A    
C32   H41   S    
C67   Cl6   S    
C117  O44   A    
C7    H67   S    
C29   N13   S    
H112  N23   S    
C4    H63   S    
O24   Zn13  S    
O25   Zn14  S    
C93   H57   S    
C53   H46   S    
C72   O13   A    
C123  C127  D    
C17   N24   S    
C33   H44   S    
C20   H131  S    
C30   H32   S    
C87   H50   S    
O5    Zn12  S    
C39   N15   S    
C2    H2    S    
C38   H1    S    
C7    C107  D    
C40   N16   S    
C17   H117  S    
C109  O27   A    
C8    H82   S    
C19   H127  S    
H17   N10   S    
C68   Cl7   S    
C42   C59   S    
C25   H11   S    
O34   Zn11  S    
C57   C75   S    
H81   N1    S    
C18   H123  S    
C66   H97   S    
C24   H76   S    
C21   N5    S    
C89   H52   S    
C89   C93   D    
C6    H66   S    
C38   C56   S    
O4    Zn8   S    
C38   N14   S    
O34   Zn4   S    
C63   O8    A    
C47   C78   S    
C48   C66   S    
C28   H23   S    
C118  H130  S    
C58   C62   S    
C36   N11   S    
C87   C88   S    
H26   N13   S    
C80   C84   T    
C112  O30   A    
C11   H98   S    
C45   C76   T    
C48   C79   S    
H21   N11   S    
C114  O32   A    
O34   Zn15  S    
C107  H71   S    
C20   H133  S    
C16   H114  S    
C47   C118  S    
O33   Zn14  S    
O34   Zn8   S    
C8    H84   S    
C124  C128  D    
C14   H105  S    
C99   N4    S    
C54   H48   S    
O18   Zn1   S    
C35   C48   S    
C21   H135  S    
C31   N15   S    
C90   C94   D    
C32   N16   S    
O48   Zn11  S    
C41   O6    A    
C110  O2    A    
C62   N22   S    
O35   Zn15  S    
O13   Zn4   S    
C102  Cl3   S    
C110  O28   A    
O45   Zn1   S    
C53   C57   S    
C95   C100  D    
C2    C48   S    
C23   H7    S    
C105  O24   A    
C56   C60   S    
C13   H74   S    
C35   C39   S    
C106  O50   A    
O49   Zn9   S    
C90   H54   S    
O51   Zn11  S    
C1    O14   A    
O36   Zn5   S    
C71   O20   A    
C9    H87   S    
O20   Zn10  S    
C62   Cl10  S    
C51   H35   S    
C70   C83   S    
C13   H13   S    
O22   Zn12  S    
C28   H25   S    
C62   C67   S    
C101  C104  S    
O29   Zn3   S    
C70   O10   A    
C55   H49   S    
C30   N14   S    
H99   N20   S    
C32   H42   S    
C11   H96   S    
C1    O5    A    
H138  N6    S    
C51   N5    S    
C28   N11   S    
C9    N12   S    
C65   Cl1   S    
O7    Zn14  S    
O46   Zn9   S    
C29   H27   S    
C72   O21   A    
C79   C83   T    
C61   Cl9   S    
C53   N6    S    
O26   Zn15  S    
C16   N23   S    
C10   H91   S    
C65   H86   S    
C14   N21   S    
C114  O41   A    
C104  O45   A    
O32   Zn13  S    
C2    H73   S    
O3    Zn7   S    
C12   H101  S    
C33   H45   S    
C34   C47   S    
C20   N4    S    
C89   C90   S    
C50   C68   S    
H43   N17   S    
C117  O36   A    
C36   C49   S    
C64   Cl11  S    
C23   N7    S    
C126  H59   S    
O50   Zn10  S    
O23   Zn7   S    
O21   Zn11  S    
H94   N19   S    
C111  O29   A    
C26   N9    S    
C26   H16   S    
H12   N9    S    
C6    C124  S    
C59   C77   S    
C63   O17   A    
C28   H22   S    
C74   H68   S    
C24   C55   S    
C23   H5    S    
C100  C105  S    
O31   Zn12  S    
C31   H37   S    
C118  H72   S    
C21   H137  S    
O1    Zn1   S    
C125  N19   S    
C41   O15   A    
C39   C57   S    
O23   Zn10  S    
C115  C127  S    
C9    H89   S    
C51   C56   S    
O12   Zn9   S    
C100  Cl12  S    
C61   C66   S    
C34   N9    S    
C88   C92   D    
C22   H3    S    
C95   N24   S    
H129  N4    S    
C102  C108  S    
C42   H75   S    
C20   H132  S    
C30   H33   S    
C4    C74   D    
C12   N20   S    
C116  C126  S    
O12   Zn2   S    
O28   Zn2   S    
C30   H31   S    
O30   Zn4   S    
C36   C40   S    
C3    C113  S    
C22   H139  S    
O1    Zn5   S    
C27   H20   S    
C5    H65   S    
C7    C125  S    
O23   Zn14  S    
C25   H10   S    
C94   H58   S    
H90   N18   S    
C44   C75   T    
C18   H124  S    
C124  N18   S    
C10   N18   S    
C66   Cl5   S    
C67   H108  S    
C18   N2    S    
C33   H47   S    
H134  N5    S    
O15   Zn6   S    
O1    Zn12  S    
C13   C49   S    
C69   O18   A    
C6    C96   D    
H107  N22   S    
C26   H14   S    
O37   Zn6   S    
C35   H78   S    
O12   Zn6   S    
C71   C84   S    
C54   C58   S    
C74   C117  S    
C49   C67   S    
C34   C38   S    
C96   C120  S    
C3    C125  D    
C91   H55   S    
C5    C123  S    
C52   O7    A    
O11   Zn3   S    
C97   N2    S    
C8    N1    S    
C15   H111  S    
C55   N8    S    
O8    Zn15  S    
C103  C106  S    
C128  H61   S    
O42   Zn3   S    
C120  O38   A    
H121  N2    S    
C59   C64   S    
O1    Zn16  S    
C52   O16   A    
C107  C121  S    
C17   H118  S    
C104  O22   A    
C47   C65   S    
C97   C101  D    
H30   N14   S    
C71   O11   A    
C19   H128  S    
C14   H106  S    
