data_mof_unit_32201.cif
_audit_creation_date              2012-10-26T19:42:44-0400
_audit_creation_method            fapswitch 2.2
_symmetry_space_group_name_H-M    P1
_symmetry_Int_Tables_number       1
_space_group_crystal_system       triclinic
_cell_length_a                    19.370519
_cell_length_b                    10.880064
_cell_length_c                    9.629437
_cell_angle_alpha                 89.784852
_cell_angle_beta                  88.612893
_cell_angle_gamma                 96.057576
_cell_volume                      2017.4641697

loop_
_atom_site_label
_atom_site_type_symbol
_atom_type_description
_atom_site_fract_x
_atom_site_fract_y
_atom_site_fract_z
_atom_type_partial_charge
C1    C     C_R   0.497371 0.262246 0.500168 0.532909
C2    C     C_R   0.853757 0.506208 0.492766 0.035103
C3    C     C_R   0.399566 0.110509 0.683190 -0.104916
C4    C     C_R   0.367206 0.496776 0.501951 0.530902
C5    C     C_R   0.356252 0.039443 0.777052 -0.126216
C6    C     C_R   0.357075 0.912069 0.781325 -0.119032
C7    C     C_R   0.400693 0.855043 0.690752 -0.098351
C8    C     C_R   0.446510 0.925455 0.596862 0.024267
C9    C     C_R   0.446847 0.055821 0.594198 0.019941
C10   C     C_R   0.492347 0.127110 0.498905 0.000752
C11   C     C_R   0.531109 0.068234 0.396914 -0.015371
C12   C     C_R   0.290593 0.495791 0.505113 0.019040
C13   C     C_R   0.523270 0.939962 0.392859 -0.137418
C14   C     C_R   0.488191 0.869017 0.498575 -0.025807
C15   C     C_R   0.594742 0.686713 0.127049 0.124048
C16   C     C_R   0.495421 0.736353 0.499907 0.534125
C17   C     C_R   0.631857 0.775960 0.041250 -0.163189
C18   C     C_R   0.628496 0.770225 0.900774 -0.195376
C19   C     C_R   0.587976 0.674923 0.841896 -0.083331
C20   C     C_R   0.543581 0.587852 0.920255 0.119091
C21   C     C_R   0.544993 0.590020 0.070267 0.155537
C22   C     C_R   0.458117 0.416425 0.076381 0.188734
C23   C     C_R   0.929884 0.508277 0.492580 0.343524
C24   C     C_R   0.458573 0.416660 0.928554 -0.006373
C25   C     C_R   0.632325 0.499311 0.498656 0.541922
C26   C     C_R   0.247940 0.461645 0.624790 0.008015
C27   C     C_R   0.176268 0.468778 0.619058 -0.103585
C28   C     C_R   0.145583 0.504881 0.497372 0.019066
C29   C     C_R   0.187374 0.535266 0.379222 -0.129634
C30   C     C_R   0.258897 0.531453 0.383338 -0.147220
C31   C     C_3   0.274344 0.412333 0.758725 -0.262560
C32   C     C_3   0.290575 0.515895 0.863369 -0.417991
C33   C     C_3   0.581024 0.142751 0.294190 -0.250227
C34   C     C_R   0.069849 0.508511 0.494752 0.343658
C35   C     C_3   0.632705 0.070931 0.214654 -0.471979
C36   C     C_R   0.817108 0.525027 0.617160 -0.118990
C37   C     C_R   0.745136 0.522292 0.618783 -0.135430
C38   C     C_R   0.708288 0.500257 0.496129 0.006667
C39   C     C_R   0.744718 0.480202 0.371808 -0.150557
C40   C     C_R   0.816936 0.483845 0.369976 -0.121263
Cu1   Cu    Cu3+1 0.500000 0.499990 0.640660 0.905014
Cu2   Cu    Cu3+1 0.500000 0.500010 0.359340 0.981401
H1    H     H_    0.393444 0.207633 0.678639 0.119217
H2    H     H_    0.424705 0.348064 0.875185 0.101937
H3    H     H_    0.164951 0.563502 0.283788 0.136833
H4    H     H_    0.289573 0.557761 0.290326 0.133786
H5    H     H_    0.844006 0.542762 0.713486 0.137220
H6    H     H_    0.718482 0.538352 0.716171 0.130077
H7    H     H_    0.717475 0.461437 0.276027 0.124445
H8    H     H_    0.843778 0.467961 0.272797 0.136752
H9    H     H_    0.308210 0.476787 0.961322 0.123601
H10   H     H_    0.332085 0.585422 0.822438 0.173432
H11   H     H_    0.243349 0.562436 0.887093 0.147195
H12   H     H_    0.320781 0.083267 0.844606 0.103951
H13   H     H_    0.234166 0.343256 0.806327 0.128018
H14   H     H_    0.319615 0.360200 0.740266 0.148703
H15   H     H_    0.424390 0.238622 0.120201 0.203117
H16   H     H_    0.361816 0.335635 0.123140 0.197699
H17   H     H_    0.670755 0.666968 0.258095 0.211155
H18   H     H_    0.624433 0.779267 0.303507 0.192237
H19   H     H_    0.660595 0.014677 0.286785 0.148059
H20   H     H_    0.605060 0.011661 0.135815 0.152733
H21   H     H_    0.671593 0.136796 0.158818 0.147034
H22   H     H_    0.550512 0.187327 0.215797 0.180762
H23   H     H_    0.322250 0.856738 0.852211 0.111746
H24   H     H_    0.612547 0.215914 0.352305 0.162971
H25   H     H_    0.395635 0.755444 0.692003 0.145057
H26   H     H_    0.545352 0.894558 0.306795 0.142726
H27   H     H_    0.669389 0.845302 0.084637 0.115685
H28   H     H_    0.660870 0.836202 0.836497 0.125037
H29   H     H_    0.595217 0.673628 0.733040 0.195831
H30   H     H_    0.143972 0.443301 0.710292 0.136081
N1    N     N_R   0.036390 0.511919 0.372734 -0.227489
N2    N     N_R   0.967648 0.511584 0.371678 -0.229717
N3    N     N_R   0.963492 0.505790 0.614291 -0.231019
N4    N     N_R   0.032034 0.505663 0.615338 -0.232684
N5    N     N_R   0.500660 0.501210 0.147910 -0.201669
N6    N     N_R   0.500680 0.501290 0.852040 -0.259585
N7    N     N_3   0.412735 0.326166 0.151501 -0.562882
N8    N     N_3   0.619624 0.689850 0.264330 -0.534053
O1    O     O_R   0.499990 0.319640 0.618810 -0.506795
O2    O     O_R   0.500000 0.319660 0.381240 -0.482548
O3    O     O_R   0.400140 0.499970 0.618820 -0.520434
O4    O     O_R   0.400150 0.500000 0.381250 -0.474022
O5    O     O_R   0.500000 0.680340 0.618760 -0.532640
O6    O     O_R   0.500010 0.680360 0.381190 -0.470693
O7    O     O_R   0.599850 0.500000 0.618750 -0.522601
O8    O     O_R   0.599860 0.500030 0.381180 -0.473167

loop_
_geom_bond_atom_site_label_1
_geom_bond_atom_site_label_2
_ccdc_geom_bond_type
C18   H28   S    
C17   H27   S    
Cu1   Cu2   S    
H15   N7    S    
C19   H29   S    
C19   C20   A    
Cu2   O2    S    
C7    C8    A    
C3    H1    S    
C26   C27   A    
C37   C38   A    
C36   C37   A    
C22   N7    S    
C5    C6    A    
C1    O1    A    
Cu1   O3    S    
C25   O7    A    
C36   H5    S    
C18   C19   A    
N1    N2    A    
C32   H10   S    
C6    H23   S    
H18   N8    S    
C31   C32   S    
C8    C9    A    
Cu2   O6    S    
C31   H14   S    
C4    C12   S    
C9    C10   A    
C28   C34   S    
C26   C31   S    
C13   C14   A    
C16   O6    A    
C33   H24   S    
Cu1   O7    S    
C5    H12   S    
C11   C33   S    
Cu2   O4    S    
Cu1   N6    S    
C1    O2    A    
C25   O8    A    
C29   H3    S    
N3    N4    A    
C32   H9    S    
C29   C30   A    
C3    C9    A    
C25   C38   S    
C15   N8    S    
C4    O4    A    
Cu1   O1    S    
C17   C18   A    
C35   H19   S    
C37   H6    S    
H16   N7    S    
C24   N6    A    
C39   H7    S    
C16   O5    A    
C24   H2    S    
C14   C16   S    
Cu2   O8    S    
C23   N2    A    
C21   N5    A    
C32   H11   S    
C39   C40   A    
C2    C36   A    
C15   C17   A    
C28   C29   A    
C8    C14   A    
C12   C30   A    
C30   H4    S    
C1    C10   S    
C22   N5    A    
C23   N3    A    
C3    C5    A    
H17   N8    S    
C6    C7    A    
Cu1   O5    S    
C20   N6    A    
C11   C13   A    
C38   C39   A    
C4    O3    A    
C33   H22   S    
C40   H8    S    
C33   C35   S    
C35   H20   S    
C22   C24   A    
C10   C11   A    
C34   N1    A    
C7    H25   S    
C2    C40   A    
C15   C21   A    
C20   C21   A    
Cu2   N5    S    
C12   C26   A    
C2    C23   S    
C35   H21   S    
C31   H13   S    
C27   H30   S    
C34   N4    A    
C27   C28   A    
C13   H26   S    
