data_mof_unit_67844.cif
_audit_creation_date              2013-03-05T15:41:50-0500
_audit_creation_method            fapswitch 2.2
_symmetry_space_group_name_H-M    P1
_symmetry_Int_Tables_number       1
_space_group_crystal_system       triclinic
_cell_length_a                    7.837705
_cell_length_b                    8.780545
_cell_length_c                    10.604424
_cell_angle_alpha                 92.51091
_cell_angle_beta                  83.503592
_cell_angle_gamma                 93.357875
_cell_volume                      723.349567867

loop_
_atom_site_label
_atom_site_type_symbol
_atom_site_description
_atom_site_fract_x
_atom_site_fract_y
_atom_site_fract_z
_atom_type_partial_charge
O1    O     O_R   0.389250 0.738570 0.508410 -0.653555
O2    O     O_R   0.610750 0.261430 0.491590 -0.653581
O3    O     O_R   0.678390 0.711620 0.486450 -0.604880
O4    O     O_R   0.321610 0.288380 0.513550 -0.604861
C1    C     C_R   0.545063 0.793829 0.494659 0.953515
C2    C     C_R   0.454950 0.206171 0.505346 0.953461
O5    O     O_R   0.355460 0.513510 0.697030 -0.580795
O6    O     O_R   0.644540 0.486490 0.302970 -0.580754
O7    O     O_R   0.644600 0.486560 0.675070 -0.571806
O8    O     O_R   0.355400 0.513440 0.324930 -0.571806
C3    C     C_R   0.496969 0.489385 0.741903 0.987391
C4    C     C_R   0.503033 0.510636 0.258103 0.987519
Zn1   Zn    Zn3+2 0.306940 0.517990 0.514670 1.077452
Zn2   Zn    Zn3+2 0.693060 0.482010 0.485330 1.077452
N1    N     N_2   0.950320 0.457950 0.465730 0.077326
N2    N     N_2   0.049680 0.542050 0.534270 0.077324
C5    C     C_3   0.457059 0.631035 0.958008 0.196061
C6    C     C_3   0.542943 0.369008 0.042008 0.196043
C7    C     C_3   0.617916 0.611597 0.025304 0.199614
C8    C     C_3   0.382077 0.388443 0.974718 0.199509
C9    C     C_3   0.505483 0.514239 0.123108 -0.380588
C10   C     C_3   0.494515 0.485800 0.876904 -0.380599
C11   C     C_3   0.345106 0.534320 0.056460 0.268049
C12   C     C_3   0.654899 0.465726 0.943556 0.267980
C13   C     C_2   0.567802 0.954589 0.478007 -0.087428
C14   C     C_2   0.432264 0.045415 0.522058 -0.087508
Br1   Br    Br    0.783247 0.782931 0.032901 -0.292287
Br2   Br    Br    0.216644 0.217146 0.967299 -0.292325
Br3   Br    Br    0.391649 0.822999 0.899201 -0.317159
Br4   Br    Br    0.608405 0.177066 0.100837 -0.317014
Br5   Br    Br    0.121980 0.597311 0.130925 -0.286992
Br6   Br    Br    0.878062 0.402796 0.869106 -0.286999
Br7   Br    Br    0.046106 0.309198 0.350891 -0.336169
Br8   Br    Br    0.953901 0.690867 0.649054 -0.336336
C15   C     C_3   0.741132 0.014635 0.406515 -0.387225
C16   C     C_3   0.865438 0.902849 0.336353 -0.627584
H1    H     H_    0.942819 0.851680 0.403229 0.254517
H2    H     H_    0.794654 0.811785 0.285350 0.283890
H3    H     H_    0.957312 0.964411 0.266057 0.294994
H4    H     H_    0.712119 0.090141 0.331708 0.283506
H5    H     H_    0.815628 0.079124 0.476257 0.250317
C17   C     C_3   0.258992 0.985387 0.593620 -0.387488
C18   C     C_3   0.134933 0.097214 0.663994 -0.627276
H6    H     H_    0.205976 0.188300 0.714785 0.283668
H7    H     H_    0.057261 0.148345 0.597296 0.254499
H8    H     H_    0.043319 0.035707 0.734491 0.295145
H9    H     H_    0.184350 0.921024 0.523907 0.250277
H10   H     H_    0.288054 0.909769 0.668329 0.283510

loop_
_geom_bond_atom_site_label_1
_geom_bond_atom_site_label_2
_geom_bond_distance
_ccdc_geom_bond_type
O7    Zn2   2.004031 S    
C12   Br6   1.936613 S    
C15   H5    1.109412 S    
C6    Br4   1.938740 S    
C5    C10   1.530597 S    
C6    C9    1.530564 S    
C7    Br1   1.932228 S    
C3    C10   1.431271 S    
C15   C16   1.533043 S    
C5    C11   1.537594 S    
C8    C11   1.537980 S    
O6    C4    1.287317 A    
C18   H6    1.103517 S    
N2    Br8   1.876536 S    
C16   H2    1.103499 S    
C7    C12   1.537971 S    
C17   H10   1.106812 S    
O5    C3    1.287321 A    
C18   H7    1.108921 S    
C2    C14   1.428561 S    
O3    Zn2   2.025530 S    
O8    C4    1.287616 A    
C13   C15   1.554459 S    
C1    C13   1.428537 S    
O1    C1    1.282397 A    
C10   C12   1.532547 S    
C16   H1    1.108965 S    
C7    C9    1.538064 S    
C8    C10   1.538147 S    
C15   H4    1.106856 S    
C6    C8    1.538646 S    
C17   H9    1.109363 S    
O7    C3    1.287638 A    
C9    C11   1.532497 S    
O2    Zn2   2.006748 S    
C18   H8    1.111130 S    
C6    C12   1.537613 S    
O1    Zn1   2.006748 S    
C17   C18   1.532945 S    
N1    N2    1.301431 D    
O5    Zn1   2.015109 S    
C5    Br3   1.938674 S    
C14   C17   1.554359 S    
O4    C2    1.297348 A    
Zn1   N2    2.025989 S    
O4    Zn1   2.025530 S    
Zn2   N1    2.025989 S    
O6    Zn2   2.015107 S    
C8    Br2   1.932334 S    
C5    C7    1.538624 S    
C13   C14   1.391769 D    
C4    C9    1.431214 S    
N1    Br7   1.876490 S    
C16   H3    1.111140 S    
O2    C2    1.282310 A    
O3    C1    1.297259 A    
O8    Zn1   2.004031 S    
C11   Br5   1.936568 S    
