data_mof_unit_33480.cif
_audit_creation_date              2012-12-11T15:14:54-0500
_audit_creation_method            fapswitch 2.2
_symmetry_space_group_name_H-M    P1
_symmetry_Int_Tables_number       1
_space_group_crystal_system       triclinic
_cell_length_a                    11.14982
_cell_length_b                    11.270092
_cell_length_c                    18.509092
_cell_angle_alpha                 90.67393
_cell_angle_beta                  89.704802
_cell_angle_gamma                 120.451687
_cell_volume                      2004.86941063

loop_
_atom_site_label
_atom_site_type_symbol
_atom_type_description
_atom_site_fract_x
_atom_site_fract_y
_atom_site_fract_z
_atom_type_partial_charge
C1    C     C_R   0.516931 0.453594 0.645300 0.546107
C2    C     C_R   0.455932 0.521037 0.355582 0.531824
C3    C     C_R   0.457408 0.880557 0.137091 0.565407
C4    C     C_R   0.065026 0.544275 0.354732 0.554778
C5    C     C_3   0.398751 0.990876 0.479468 -0.131524
C6    C     C_3   0.609640 0.581035 0.024463 -0.141461
C7    C     C_3   0.004208 0.397135 0.477144 -0.116482
C8    C     C_3   0.413606 0.008728 0.032066 -0.113727
C9    C     C_3   0.601665 0.601305 0.481522 -0.126984
C10   C     C_3   0.020348 0.404892 0.017462 -0.112194
C11   C     C_3   0.108362 0.519743 0.962806 -0.184079
C12   C     C_R   0.933500 0.481511 0.855892 0.540338
C13   C     C_3   0.495426 0.593435 0.537478 -0.185157
C14   C     C_3   0.394461 0.934138 0.958990 -0.180908
C15   C     C_3   0.101591 0.502169 0.534448 -0.198294
C16   C     C_3   0.528401 0.610898 0.967690 -0.215987
C17   C     C_3   0.379703 0.893550 0.541870 -0.199098
C18   C     C_3   0.537960 0.103403 0.512895 -0.086952
C19   C     C_3   0.571069 0.443869 0.985170 -0.088855
C20   C     C_3   0.878598 0.397881 0.511768 -0.089363
C21   C     C_3   0.557544 0.125725 0.007579 -0.133774
C22   C     C_3   0.594154 0.472451 0.515374 -0.072017
C23   C     C_R   0.542484 0.058989 0.646877 0.554219
C24   C     C_3   0.887091 0.392326 0.985317 -0.103737
C25   C     C_3   0.113309 0.627304 0.017087 -0.134439
C26   C     C_3   0.375690 0.495708 0.485907 -0.144413
C27   C     C_3   0.462831 0.856978 0.990949 -0.174683
C28   C     C_3   0.120695 0.619838 0.484821 -0.142103
C29   C     C_3   0.393128 0.530620 0.013109 -0.149136
C30   C     C_3   0.461343 0.839643 0.497978 -0.173636
C31   C     C_3   0.516000 0.003497 0.574376 -0.005095
C32   C     C_3   0.491675 0.477323 0.928961 -0.002368
C33   C     C_3   0.978240 0.502532 0.568618 0.000388
C34   C     C_R   0.516304 0.456773 0.853881 0.547748
C35   C     C_3   0.537152 0.049149 0.934843 -0.000288
C36   C     C_3   0.490124 0.469513 0.570372 -0.003997
C37   C     C_3   0.977041 0.507153 0.931410 -0.009537
C38   C     C_3   0.024191 0.512490 0.070625 0.035676
C39   C     C_3   0.483437 0.503368 0.430621 0.028044
C40   C     C_3   0.483113 0.934192 0.063353 0.002362
C41   C     C_3   0.021782 0.514721 0.429057 0.038312
C42   C     C_3   0.476772 0.501530 0.068933 0.045420
C43   C     C_3   0.481064 0.938422 0.436921 0.023427
C44   C     C_3   0.599200 0.951074 0.531900 0.279572
C45   C     C_R   0.934469 0.480552 0.644251 0.546594
C46   C     C_3   0.357552 0.396401 0.973094 0.283477
C47   C     C_3   0.997329 0.621885 0.520376 0.272493
C48   C     C_3   0.606916 0.973640 0.966067 0.293354
C49   C     C_3   0.369607 0.369995 0.520582 0.281355
C50   C     C_3   0.979804 0.614604 0.985687 0.284916
C51   C     C_3   0.894355 0.501206 0.040047 0.285084
C52   C     C_3   0.472872 0.375901 0.463984 0.289152
C53   C     C_3   0.626855 0.048273 0.038257 0.299524
C54   C     C_3   0.901239 0.519085 0.462588 0.271567
C55   C     C_3   0.435575 0.366509 0.030231 0.297071
C56   C     C_R   0.571118 0.110053 0.863064 0.539183
C57   C     C_3   0.619022 0.046951 0.470144 0.309744
C58   C     C_3   0.823210 0.028764 0.578522 -0.075936
C59   C     C_3   0.205803 0.178693 0.923298 -0.079235
C60   C     C_3   0.917516 0.769077 0.555783 -0.083435
C61   C     C_3   0.832576 0.046421 0.922023 -0.068895
C62   C     C_3   0.228756 0.140180 0.550698 -0.079393
C63   C     C_3   0.896386 0.747307 0.933781 -0.098867
C64   C     C_3   0.796848 0.542667 0.143085 -0.085697
C65   C     C_3   0.388886 0.216571 0.368280 -0.085871
C66   C     C_3   0.815703 0.046558 0.093929 -0.065550
C67   C     C_R   0.455574 0.519300 0.144798 0.548679
C68   C     C_3   0.832350 0.616786 0.372033 -0.097652
C69   C     C_3   0.251515 0.185540 0.093550 -0.092958
C70   C     C_3   0.809332 0.057206 0.408898 -0.069639
C71   C     C_R   0.459666 0.887774 0.362506 0.567957
C72   C     C_R   0.068898 0.545349 0.144311 0.540043
Cr1   Cr    Cr6+3 0.769930 0.543130 0.750000 0.990812
Cr2   Cr    Cr6+3 0.773200 0.230070 0.750000 0.997134
Cr3   Cr    Cr6+3 0.456870 0.226800 0.750000 0.997244
Cr4   Cr    Cr6+3 0.543130 0.769930 0.250000 0.960756
Cr5   Cr    Cr6+3 0.230070 0.773200 0.250000 0.969334
Cr6   Cr    Cr6+3 0.226800 0.456870 0.250000 0.977586
H1    H     H_    0.564144 0.208891 0.527478 0.140032
H2    H     H_    0.210648 0.708827 0.461228 0.131304
H3    H     H_    0.320253 0.560433 0.035546 0.105610
H4    H     H_    0.421542 0.735101 0.478736 0.097148
H5    H     H_    0.833999 0.130259 0.566847 0.156042
H6    H     H_    0.842851 0.024746 0.636880 0.154931
H7    H     H_    0.906455 0.022339 0.549270 0.095352
H8    H     H_    0.123162 0.096709 0.956089 0.095028
H9    H     H_    0.300116 0.169279 0.928569 0.164300
H10   H     H_    0.170352 0.157233 0.866260 0.142449
H11   H     H_    0.941511 0.844284 0.600386 0.134102
H12   H     H_    0.644158 0.412856 0.964073 0.110714
H13   H     H_    0.824175 0.673135 0.572736 0.166863
H14   H     H_    0.899766 0.812608 0.506547 0.104968
H15   H     H_    0.868833 0.044755 0.866294 0.144925
H16   H     H_    0.846345 0.149012 0.931947 0.149769
H17   H     H_    0.900243 0.030633 0.958654 0.088002
H18   H     H_    0.329309 0.148858 0.565218 0.160692
H19   H     H_    0.185304 0.080508 0.500054 0.114180
H20   H     H_    0.154751 0.082378 0.594676 0.136286
H21   H     H_    0.805121 0.644725 0.923644 0.169918
H22   H     H_    0.949635 0.796112 0.882503 0.151941
H23   H     H_    0.783853 0.306773 0.529746 0.129793
H24   H     H_    0.857576 0.811688 0.957676 0.129337
H25   H     H_    0.829434 0.497776 0.186334 0.153465
H26   H     H_    0.870076 0.654507 0.135150 0.138473
H27   H     H_    0.698003 0.531326 0.162635 0.135608
H28   H     H_    0.284250 0.200818 0.381230 0.117891
H29   H     H_    0.374154 0.115310 0.352770 0.154771
H30   H     H_    0.437569 0.281043 0.320104 0.171003
H31   H     H_    0.759452 0.938801 0.072651 0.129629
H32   H     H_    0.828613 0.043568 0.153141 0.151965
H33   H     H_    0.922568 0.100804 0.072065 0.072829
H34   H     H_    0.595602 0.233095 0.022030 0.200562
H35   H     H_    0.922100 0.715755 0.391513 0.125200
H36   H     H_    0.849751 0.583820 0.318338 0.152750
H37   H     H_    0.746443 0.635549 0.361853 0.123609
H38   H     H_    0.183464 0.081784 0.070162 0.095371
H39   H     H_    0.200589 0.246249 0.081894 0.148893
H40   H     H_    0.251857 0.171968 0.152808 0.149700
H41   H     H_    0.834117 0.074460 0.350471 0.153814
H42   H     H_    0.748789 0.944298 0.418457 0.136580
H43   H     H_    0.909444 0.096787 0.437066 0.080642
H44   H     H_    0.311126 0.996425 0.456086 0.142888
H45   H     H_    0.675929 0.454240 0.535983 0.127873
H46   H     H_    0.710229 0.660467 0.047729 0.151156
H47   H     H_    0.017184 0.312018 0.457418 0.167058
H48   H     H_    0.325528 0.005127 0.060620 0.191588
H49   H     H_    0.690169 0.700543 0.464257 0.129563
H50   H     H_    0.036365 0.319132 0.031992 0.165813
H51   H     H_    0.194904 0.531931 0.927902 0.164789
H52   H     H_    0.499136 0.671643 0.575511 0.182961
H53   H     H_    0.298307 0.887377 0.925684 0.161681
H54   H     H_    0.181069 0.499188 0.568881 0.158037
H55   H     H_    0.565050 0.701052 0.933260 0.199499
H56   H     H_    0.794375 0.300037 0.965581 0.099549
H57   H     H_    0.286891 0.832389 0.576048 0.186283
H58   H     H_    0.203839 0.724700 0.035443 0.132332
H59   H     H_    0.288422 0.502522 0.463513 0.129170
H60   H     H_    0.406904 0.748610 0.976462 0.109547
O1    O     O_R   0.913270 0.574260 0.668550 -0.501671
O2    O     O_R   0.574260 0.913270 0.331450 -0.505100
O3    O     O_R   0.086730 0.660990 0.168550 -0.554003
O4    O     O_R   0.339010 0.425740 0.331450 -0.547074
O5    O     O_R   0.640160 0.530400 0.673300 -0.519875
O6    O     O_R   0.890240 0.359840 0.826700 -0.520703
O7    O     O_R   0.469600 0.109760 0.673300 -0.520101
O8    O     O_R   0.640160 0.530400 0.826700 -0.528870
O9    O     O_R   0.890240 0.359840 0.673300 -0.517225
O10   O     O_R   0.469600 0.109760 0.826700 -0.515004
O11   O     O_R   0.530400 0.640160 0.173300 -0.545393
O12   O     O_R   0.660990 0.086730 0.831450 -0.483844
O13   O     O_R   0.359840 0.890240 0.326700 -0.513579
O14   O     O_R   0.109760 0.469600 0.173300 -0.505759
O15   O     O_R   0.530400 0.640160 0.326700 -0.542382
O16   O     O_R   0.359840 0.890240 0.173300 -0.496306
O17   O     O_R   0.109760 0.469600 0.326700 -0.504379
O18   O     O_3   0.666667 0.333333 0.750000 -0.293184
O19   O     O_3   0.333333 0.666667 0.250000 -0.297758
O20   O     O_3   0.693044 0.913282 0.559996 -0.602794
O21   O     O_3   0.223209 0.307672 0.944377 -0.598860
O22   O     O_3   0.033843 0.755180 0.544901 -0.600962
O23   O     O_R   0.425740 0.339010 0.668550 -0.501049
O24   O     O_3   0.694921 0.936517 0.929124 -0.595499
O25   O     O_3   0.236679 0.267728 0.544358 -0.588421
O26   O     O_3   0.991959 0.745582 0.981847 -0.606355
O27   O     O_3   0.771110 0.466708 0.078461 -0.588828
O28   O     O_3   0.480586 0.269287 0.427337 -0.569706
O29   O     O_3   0.750062 0.123473 0.079925 -0.544265
O30   O     O_3   0.789534 0.508300 0.421336 -0.555793
O31   O     O_3   0.389572 0.241929 0.067189 -0.588267
O32   O     O_3   0.742343 0.130668 0.430533 -0.550270
O33   O     O_R   0.913270 0.574260 0.831450 -0.535064
O34   O     O_R   0.660990 0.086730 0.668550 -0.515774
O35   O     O_R   0.425740 0.339010 0.831450 -0.520285
O36   O     O_R   0.574260 0.913270 0.168550 -0.491540
O37   O     O_R   0.086730 0.660990 0.331450 -0.561442
O38   O     O_R   0.339010 0.425740 0.168550 -0.532108

loop_
_geom_bond_atom_site_label_1
_geom_bond_atom_site_label_2
_ccdc_geom_bond_type
C27   C48   S    
C64   H25   S    
C69   H38   S    
C30   H4    S    
C13   C26   S    
C62   H18   S    
C29   C42   S    
Cr3   O35   S    
C44   O20   S    
Cr4   O15   S    
C6    H46   S    
C26   H59   S    
Cr5   O13   S    
Cr6   O14   S    
C64   H27   S    
C28   C47   S    
C60   H11   S    
Cr3   O7    S    
C6    C19   S    
C23   O7    A    
C9    H49   S    
C66   O29   S    
Cr6   O4    S    
C25   C38   S    
C61   H15   S    
C9    C22   S    
C48   O24   S    
C4    C41   S    
C16   H55   S    
C24   H56   S    
C69   H40   S    
C45   O1    A    
C33   C45   S    
C12   C37   S    
C11   C37   S    
C25   H58   S    
C9    C13   S    
C25   C50   S    
C63   H21   S    
C3    O36   A    
C52   O28   S    
Cr6   O17   S    
C62   H20   S    
C59   O21   S    
C2    C39   S    
C53   O29   S    
C9    C39   S    
C71   O13   A    
C15   H54   S    
C35   C48   S    
C18   H1    S    
C72   O14   A    
C4    O37   A    
C46   C55   S    
C17   H57   S    
C8    C14   S    
C13   H52   S    
C14   C27   S    
Cr1   O33   S    
C44   C57   S    
C65   H30   S    
Cr2   O34   S    
C68   H35   S    
C14   H53   S    
C24   C51   S    
Cr4   O2    S    
C39   C52   S    
C5    C43   S    
C1    O23   A    
Cr5   O37   S    
Cr6   O38   S    
C17   C30   S    
C30   C44   S    
C63   O26   S    
C63   H24   S    
C10   H50   S    
C19   C32   S    
C11   H51   S    
C24   C37   S    
C12   O33   A    
Cr5   O3    S    
C47   O22   S    
C60   H14   S    
C72   O3    A    
C38   C72   S    
Cr4   O19   S    
C27   H60   S    
C31   C44   S    
C23   O34   A    
C50   O26   S    
C61   O24   S    
Cr2   O9    S    
C22   H45   S    
C13   C36   S    
C20   C54   S    
C58   O20   S    
C26   C49   S    
C70   H42   S    
C14   C35   S    
C61   H16   S    
C38   C51   S    
Cr1   O1    S    
C63   H22   S    
C10   C24   S    
C16   C29   S    
C5    H44   S    
C3    O16   A    
C7    H47   S    
C12   O6    A    
C23   C31   S    
C56   O10   A    
C36   C49   S    
C29   H3    S    
C64   O27   S    
C1    O5    A    
C58   H6    S    
Cr5   O16   S    
C62   H19   S    
C26   C39   S    
C18   C57   S    
C62   O25   S    
C32   C34   S    
C67   O38   A    
C49   C52   S    
C7    C15   S    
C50   C51   S    
Cr2   O18   S    
C69   O31   S    
C66   H32   S    
C2    O4    A    
C47   C54   S    
C21   C35   S    
C20   C33   S    
C68   O30   S    
C8    H48   S    
C3    C40   S    
C7    C20   S    
C2    O15   A    
C42   C67   S    
C33   C47   S    
C30   C43   S    
C51   O27   S    
C70   H41   S    
C66   H33   S    
C56   O12   A    
C58   H7    S    
C65   H28   S    
Cr6   O19   S    
C22   C52   S    
C57   O32   S    
Cr1   O5    S    
C60   H13   S    
C19   C55   S    
C64   H26   S    
Cr2   O6    S    
C59   H10   S    
C43   C71   S    
C27   C40   S    
C35   C56   S    
C45   O9    A    
C32   C46   S    
C60   O22   S    
C54   O30   S    
C15   C33   S    
C8    C21   S    
C61   H17   S    
C71   O2    A    
C20   H23   S    
Cr3   O10   S    
C16   C32   S    
C22   C36   S    
C29   C46   S    
C67   O11   A    
Cr1   O8    S    
C10   C38   S    
C21   H34   S    
Cr4   O36   S    
C70   O32   S    
C59   H8    S    
C19   H12   S    
C58   H5    S    
C21   C53   S    
C37   C50   S    
C34   O8    A    
C70   H43   S    
C15   C28   S    
Cr4   O11   S    
C5    C18   S    
C42   C55   S    
C17   C31   S    
C46   O21   S    
C65   O28   S    
Cr1   O18   S    
C69   H39   S    
C48   C53   S    
Cr3   O23   S    
C55   O31   S    
Cr3   O18   S    
C7    C41   S    
C66   H31   S    
C28   H2    S    
C59   H9    S    
C41   C54   S    
C49   O25   S    
C10   C11   S    
C43   C57   S    
C68   H37   S    
C6    C16   S    
C4    O17   A    
C5    C17   S    
C40   C53   S    
C6    C42   S    
Cr5   O19   S    
C34   O35   A    
C11   C25   S    
Cr2   O12   S    
C18   C31   S    
C8    C40   S    
C65   H29   S    
C28   C41   S    
C1    C36   S    
C68   H36   S    
