data_mof_unit_56052.cif
_audit_creation_date              2012-12-10T17:07:48-0500
_audit_creation_method            fapswitch 2.2
_symmetry_space_group_name_H-M    P1
_symmetry_Int_Tables_number       1
_space_group_crystal_system       triclinic
_cell_length_a                    10.686733
_cell_length_b                    10.708249
_cell_length_c                    10.005823
_cell_angle_alpha                 88.055019
_cell_angle_beta                  89.695324
_cell_angle_gamma                 90.281162
_cell_volume                      1144.33765912

loop_
_atom_site_label
_atom_site_type_symbol
_atom_type_description
_atom_site_fract_x
_atom_site_fract_y
_atom_site_fract_z
_atom_type_partial_charge
C1    C     C_R   0.490106 0.262545 0.502386 0.883004
C2    C     C_3   0.878584 0.488189 0.495498 0.002697
C3    C     C_3   0.927115 0.621228 0.526754 -0.664156
C4    C     C_3   0.929942 0.448024 0.352727 0.164354
C5    C     C_2   0.445631 0.935335 0.401743 0.013060
C6    C     C_2   0.520805 0.871467 0.487265 0.341250
C7    C     C_2   0.456325 0.069784 0.394825 -0.172580
C8    C     C_2   0.455366 0.132497 0.508292 0.018658
C9    C     C_2   0.572443 0.571117 0.921737 -0.130717
C10   C     C_2   0.558763 0.583646 0.070102 0.124408
C11   C     C_R   0.258015 0.494107 0.500063 0.955465
C12   C     C_R   0.506008 0.737691 0.497465 0.816194
C13   C     C_R   0.742014 0.494170 0.499134 0.930753
C14   C     C_3   0.071150 0.386519 0.602730 -0.121116
C15   C     C_3   0.926563 0.398444 0.611992 -0.081298
C16   C     C_3   0.071930 0.621893 0.541332 0.518840
C17   C     C_3   0.075126 0.458768 0.353286 0.257769
C18   C     C_3   0.121408 0.489304 0.498295 -0.082728
H1    H     H_    0.108196 0.407624 0.703360 0.195986
H2    H     H_    0.895688 0.691596 0.450271 0.166444
H3    H     H_    0.475336 0.114391 0.297733 0.139015
H4    H     H_    0.640832 0.630176 0.869331 0.155431
H5    H     H_    0.429158 0.454712 0.900743 0.152250
H6    H     H_    0.472069 0.420208 0.105490 0.142912
H7    H     H_    0.907238 0.446363 0.707287 0.170194
H8    H     H_    0.882968 0.650510 0.621386 0.186541
H9    H     H_    0.103698 0.539219 0.286831 0.049887
N1    N     N_2   0.501360 0.501330 0.852150 -0.207280
N2    N     N_2   0.501390 0.501360 0.147810 -0.216418
O1    O     O_R   0.499980 0.319060 0.613040 -0.623441
O2    O     O_R   0.500020 0.319100 0.386900 -0.633754
O3    O     O_R   0.314770 0.499960 0.613070 -0.589992
O4    O     O_R   0.314820 0.500000 0.386930 -0.608222
O5    O     O_R   0.499980 0.680900 0.613100 -0.634151
O6    O     O_R   0.500020 0.680940 0.386960 -0.617934
O7    O     O_R   0.685180 0.500000 0.613070 -0.623106
O8    O     O_R   0.685230 0.500040 0.386930 -0.615967
Zn1   Zn    Zn3+2 0.499970 0.499970 0.650990 0.939587
Zn2   Zn    Zn3+2 0.500030 0.500030 0.349010 0.932042
N3    N     N_3   0.880580 0.530169 0.243446 -0.457003
H10   H     H_    0.907828 0.497461 0.150561 0.159779
H11   H     H_    0.915509 0.621114 0.248124 0.147722
N4    N     N_3   0.129798 0.722859 0.456422 -0.454384
H12   H     H_    0.100700 0.810630 0.485552 0.172870
H13   H     H_    0.098060 0.719803 0.358335 0.127857
N5    N     N_3   0.351353 0.876109 0.323703 -0.463275
H14   H     H_    0.265696 0.917536 0.345806 0.187289
H15   H     H_    0.370703 0.897366 0.222955 0.176697
O9    O     O_3   0.623199 0.933700 0.542295 -0.618263
C19   C     C_3   0.666077 0.877259 0.662863 0.124824
H16   H     H_    0.711403 0.786481 0.643609 0.131663
H17   H     H_    0.588012 0.864367 0.736325 0.167843
C20   C     C_3   0.763304 0.962013 0.723828 -0.876633
H18   H     H_    0.720153 0.052798 0.747696 0.271519
H19   H     H_    0.800214 0.917333 0.817235 0.200702
H20   H     H_    0.842025 0.978934 0.652465 0.250582
N6    N     N_3   0.415336 0.072321 0.633057 -0.442722
H21   H     H_    0.429324 0.129484 0.714158 0.197643
H22   H     H_    0.318946 0.056932 0.626752 0.166305
N7    N     N_3   0.613673 0.692857 0.124366 -0.468220
H23   H     H_    0.541618 0.749858 0.157104 0.209785
H24   H     H_    0.670442 0.666761 0.204838 0.243486
N8    N     N_3   0.113151 0.258631 0.577973 -0.474808
H25   H     H_    0.074011 0.223432 0.491891 0.266020
H26   H     H_    0.210344 0.257686 0.567062 0.183213
N9    N     N_3   0.858093 0.278989 0.625474 -0.447764
H27   H     H_    0.887648 0.232116 0.713046 0.195033
H28   H     H_    0.875599 0.220334 0.546891 0.222292
O10   O     O_3   0.107048 0.634550 0.678361 -0.603673
C21   C     C_3   0.078008 0.750298 0.735583 0.109779
H29   H     H_    0.031750 0.730061 0.833629 0.144331
H30   H     H_    0.011630 0.809712 0.677201 0.119569
C22   C     C_3   0.198457 0.822221 0.760724 -0.820772
H31   H     H_    0.250670 0.839247 0.665666 0.258620
H32   H     H_    0.176256 0.913335 0.804800 0.197622
H33   H     H_    0.258775 0.767624 0.831125 0.258616
O11   O     O_3   0.133079 0.348046 0.307630 -0.607149
C23   C     C_3   0.166239 0.359081 0.170432 0.137889
H34   H     H_    0.239330 0.432185 0.153391 0.155551
H35   H     H_    0.084003 0.382779 0.107332 0.109568
C24   C     C_3   0.218312 0.235341 0.125947 -0.875177
H36   H     H_    0.147170 0.160209 0.141472 0.253965
H37   H     H_    0.243888 0.242739 0.018223 0.200507
H38   H     H_    0.303033 0.211134 0.184577 0.256168
N10   N     N_3   0.891377 0.318266 0.327889 -0.432169
H39   H     H_    0.917318 0.293741 0.231486 0.199862
H40   H     H_    0.794015 0.309980 0.330359 0.202957

loop_
_geom_bond_atom_site_label_1
_geom_bond_atom_site_label_2
_ccdc_geom_bond_type
N9    H28   S    
N8    H26   S    
C11   C18   S    
C1    C8    S    
C22   H31   S    
C14   C18   S    
C10   N7    S    
C10   N2    D    
C24   H36   S    
C7    C8    D    
C20   H18   S    
O4    Zn2   S    
N10   H39   S    
O6    Zn2   S    
C23   H35   S    
C9    H4    S    
N6    H22   S    
C1    O2    A    
O1    Zn1   S    
N7    H24   S    
C2    C13   S    
H6    N2    S    
C4    N3    S    
C19   H17   S    
C21   H29   S    
O3    Zn1   S    
C9    C10   S    
C13   O8    A    
N3    H11   S    
N9    H27   S    
C22   H32   S    
C24   H37   S    
C19   H16   S    
C20   H19   S    
N5    H15   S    
C19   C20   S    
N10   H40   S    
C17   H9    S    
C11   O4    A    
C13   O7    A    
C5    C7    S    
C23   H34   S    
C4    N10   S    
O11   C23   S    
C15   N9    S    
N7    H23   S    
C2    C4    S    
N4    H12   S    
C8    N6    S    
N1    Zn1   S    
N2    Zn2   S    
C21   C22   S    
C17   O11   S    
C17   C18   S    
C3    H2    S    
H5    N1    S    
C12   O6    A    
C2    C15   S    
N4    H13   S    
C16   N4    S    
C4    C17   S    
N3    H10   S    
C11   O3    A    
C22   H33   S    
C12   O5    A    
C24   H38   S    
C20   H20   S    
N5    H14   S    
O5    Zn1   S    
C14   H1    S    
C3    H8    S    
C16   O10   S    
C5    N5    S    
O7    Zn1   S    
C2    C3    S    
O8    Zn2   S    
C7    H3    S    
C6    C12   S    
C23   C24   S    
N6    H21   S    
C5    C6    D    
C14   N8    S    
C1    O1    A    
O2    Zn2   S    
C6    O9    S    
O10   C21   S    
C15   H7    S    
N8    H25   S    
C16   C18   S    
O9    C19   S    
C14   C15   S    
C21   H30   S    
C3    C16   S    
C9    N1    D    
