data_mof_unit_56641.cif
_audit_creation_date              2012-12-11T15:49:49-0500
_audit_creation_method            fapswitch 2.2
_symmetry_space_group_name_H-M    P1
_symmetry_Int_Tables_number       1
_space_group_crystal_system       triclinic
_cell_length_a                    8.564457
_cell_length_b                    19.312978
_cell_length_c                    26.907635
_cell_angle_alpha                 96.59672
_cell_angle_beta                  92.44488
_cell_angle_gamma                 84.374094
_cell_volume                      4397.68008488

loop_
_atom_site_label
_atom_site_type_symbol
_atom_type_description
_atom_site_fract_x
_atom_site_fract_y
_atom_site_fract_z
_atom_type_partial_charge
Ba1   Ba    Ba6+2 0.854000 0.466860 0.523710 1.590933
Ba2   Ba    Ba6+2 0.335820 0.533080 0.476290 1.598738
C1    C     C_3   0.746538 0.226704 0.672024 -0.388777
C2    C     C_R   0.934911 0.567965 0.181516 0.581680
C3    C     C_2   0.761072 0.527801 0.269572 -0.101044
C4    C     C_3   0.149326 0.325079 0.663181 0.291446
C5    C     C_3   0.712218 0.522412 0.322464 -0.064455
C6    C     C_1   0.985873 0.491089 0.344880 0.066785
C7    C     C_2   0.029142 0.487551 0.297454 -0.109459
C8    C     C_2   0.912421 0.507842 0.256755 0.220943
C9    C     C_R   0.047748 0.507183 0.104675 -0.098143
C10   C     C_R   0.077973 0.446474 0.129508 -0.030828
C11   C     C_R   0.152117 0.385785 0.103552 -0.061060
C12   C     C_3   0.712629 0.292056 0.645280 0.333707
C13   C     C_R   0.970750 0.568426 0.130247 -0.033351
C14   C     C_2   0.850523 0.525924 0.359216 -0.215149
C15   C     C_2   0.382434 0.511799 0.644455 -0.261726
C16   C     C_3   0.085439 0.322232 0.715504 -0.073349
C17   C     C_R   0.192300 0.442281 0.975291 0.012571
C18   C     C_R   0.134248 0.569856 0.981767 0.009907
C19   C     C_R   0.179385 0.505689 0.952627 0.028874
C20   C     C_R   0.234210 0.379330 0.944933 -0.129643
C21   C     C_R   0.267679 0.377994 0.894358 0.172792
C22   C     C_R   0.259594 0.440987 0.871681 -0.007143
C23   C     C_3   0.653649 0.671199 0.639436 0.213295
C24   C     C_R   0.214127 0.505022 0.900926 -0.154548
C25   C     C_R   0.204456 0.568392 0.878644 -0.039086
C26   C     C_R   0.233169 0.565865 0.826536 0.603093
C27   C     C_R   0.296608 0.441797 0.820714 0.586460
C28   C     C_3   0.190162 0.310862 0.408254 0.339387
C29   C     C_2   0.466038 0.489395 0.732943 -0.096489
C30   C     C_3   0.516951 0.498271 0.681467 -0.003842
C31   C     C_1   0.231599 0.525741 0.658444 0.032136
C32   C     C_2   0.190830 0.520611 0.705599 0.053165
C33   C     C_2   0.314404 0.502635 0.745589 0.193366
C34   C     C_3   0.700776 0.741473 0.666263 0.037518
C35   C     C_R   0.161168 0.443615 0.027352 0.030703
C36   C     C_R   0.094276 0.506348 0.054034 0.048559
C37   C     C_R   0.071827 0.568110 0.030125 0.005478
C38   C     C_R   0.192345 0.384199 0.053698 -0.103983
C39   C     C_R   0.929156 0.627051 0.103017 0.069041
C40   C     C_3   0.177830 0.230681 0.389757 0.135112
C41   C     C_R   0.156411 0.633223 0.961662 0.026221
C42   C     C_R   0.176252 0.632690 0.909620 0.171087
C43   C     C_R   0.976734 0.624946 0.053587 -0.102587
C44   C     C_R   0.405447 0.300458 0.524031 -0.340039
C45   C     C_3   0.140648 0.714812 0.348693 0.385725
C46   C     C_R   0.548738 0.277850 0.501354 0.095008
C47   C     C_R   0.604232 0.204720 0.499847 0.058639
C48   C     C_R   0.516102 0.157374 0.521584 -0.019413
C49   C     C_R   0.365739 0.181840 0.540040 0.042979
C50   C     C_R   0.312590 0.253083 0.541785 0.039356
C51   C     C_R   0.608122 0.044320 0.561575 0.057556
C52   C     C_3   0.167992 0.684040 0.628890 0.218353
C53   C     C_R   0.654377 0.971822 0.556047 -0.075179
C54   C     C_R   0.666040 0.933115 0.508765 0.035423
C55   C     C_R   0.629370 0.968839 0.466060 0.124352
C56   C     C_3   0.208470 0.767892 0.318996 -0.174667
C57   C     C_R   0.582406 0.041020 0.471351 -0.059046
C58   C     C_R   0.571200 0.080176 0.518627 0.040565
C59   C     C_R   0.859217 0.828819 0.484449 -0.184285
C60   C     C_R   0.912336 0.757660 0.483783 0.053524
C61   C     C_R   0.671941 0.736975 0.523733 0.000167
C62   C     C_R   0.617787 0.809310 0.524024 0.066325
C63   C     C_R   0.714543 0.855763 0.505426 0.007143
C64   C     C_3   0.120680 0.762481 0.636222 -0.382586
C65   C     C_R   0.825863 0.713734 0.507264 -0.102737
C66   C     C_3   0.647651 0.337215 0.360461 0.459382
C67   C     C_3   0.615815 0.702805 0.334745 0.370419
C68   C     C_3   0.637446 0.283877 0.311878 0.140136
C69   C     C_3   0.336588 0.187804 0.396919 -0.434029
C70   C     C_3   0.127981 0.217117 0.333624 -0.250944
C71   C     C_3   0.812043 0.357294 0.369223 -0.328592
C72   C     C_3   0.558587 0.792234 0.682498 -0.312060
C73   C     C_3   0.053838 0.663002 0.313646 -0.336597
C74   C     C_3   0.093350 0.823277 0.298150 -0.425126
C75   C     C_3   0.599812 0.742007 0.387784 -0.387737
C76   C     C_3   0.712783 0.814616 0.307401 -0.461977
C77   C     C_3   0.829855 0.691905 0.124253 -0.339577
C78   C     C_3   0.610630 0.754336 0.293993 0.064711
C79   C     C_3   0.184775 0.699858 0.995249 -0.430624
C80   C     C_3   0.327662 0.323315 0.665505 -0.341769
C81   C     C_3   0.822445 0.559496 0.411661 -0.234668
C82   C     C_3   0.438196 0.524837 0.594582 -0.210165
C83   C     C_3   0.601689 0.080402 0.613975 -0.429805
C84   C     C_R   0.032597 0.447283 0.179631 0.588153
H1    H     H_    0.821835 0.302873 0.628382 0.112613
H2    H     H_    0.635397 0.209069 0.683435 0.109974
H3    H     H_    0.745474 0.909519 0.410091 0.177624
H4    H     H_    0.555382 0.893637 0.415360 0.171762
H5    H     H_    0.247137 0.095786 0.522782 0.169670
H6    H     H_    0.304725 0.110177 0.584002 0.183604
H7    H     H_    0.862703 0.631213 0.547171 0.204998
H8    H     H_    0.016451 0.647343 0.520883 0.205623
H9    H     H_    0.117506 0.214337 0.711072 0.207019
H10   H     H_    0.259234 0.255673 0.744771 0.222619
H11   H     H_    0.628615 0.636834 0.667931 0.033639
H12   H     H_    0.752181 0.644047 0.618480 0.066583
H13   H     H_    0.766426 0.766867 0.639695 0.084587
H14   H     H_    0.819602 0.236809 0.706480 0.145420
H15   H     H_    0.119286 0.367697 0.741164 0.114233
H16   H     H_    0.242288 0.684574 0.365586 0.123498
H17   H     H_    0.269897 0.738180 0.286640 0.104925
H18   H     H_    0.291477 0.796686 0.343893 0.098102
H19   H     H_    0.730850 0.670991 0.333026 0.023813
H20   H     H_    0.244535 0.674703 0.597101 0.115846
H21   H     H_    0.491213 0.779941 0.289323 0.080940
H22   H     H_    0.100264 0.376587 0.652170 0.080268
H23   H     H_    0.149728 0.470889 0.287792 0.128492
H24   H     H_    0.178951 0.338614 0.121740 0.119397
H25   H     H_    0.555833 0.478158 0.761380 0.096418
H26   H     H_    0.237846 0.329187 0.959086 0.064584
H27   H     H_    0.251364 0.335748 0.037090 0.068293
H28   H     H_    0.672680 0.541540 0.241351 0.087750
H29   H     H_    0.935490 0.668165 0.032779 0.083245
H30   H     H_    0.682199 0.945194 0.589128 0.085023
H31   H     H_    0.228725 0.667668 0.663589 0.031853
H32   H     H_    0.956039 0.328795 0.713548 0.129597
H33   H     H_    0.552215 0.066681 0.438025 0.104258
H34   H     H_    0.930153 0.863096 0.468004 0.087621
H35   H     H_    0.359891 0.354797 0.524611 0.071741
H36   H     H_    0.313215 0.321104 0.418092 0.022904
H37   H     H_    0.121478 0.326472 0.442593 0.023843
H38   H     H_    0.327682 0.131182 0.385305 0.119191
H39   H     H_    0.372225 0.193440 0.436631 0.093539
H40   H     H_    0.428645 0.205236 0.374964 0.176067
H41   H     H_    0.101638 0.204889 0.456304 0.185989
H42   H     H_    0.046721 0.778567 0.603789 0.105744
H43   H     H_    0.047842 0.151731 0.406353 0.180216
H44   H     H_    0.003616 0.235527 0.326888 0.092799
H45   H     H_    0.199761 0.243412 0.309716 0.145761
H46   H     H_    0.140167 0.160170 0.320578 0.080968
H47   H     H_    0.883949 0.311881 0.381837 0.136550
H48   H     H_    0.857998 0.373423 0.335092 0.045858
H49   H     H_    0.814502 0.400946 0.399496 0.072161
H50   H     H_    0.563163 0.438730 0.384142 0.185849
H51   H     H_    0.544206 0.417427 0.321918 0.131619
H52   H     H_    0.684940 0.357433 0.264235 0.171477
H53   H     H_    0.226831 0.791361 0.639202 0.087994
H54   H     H_    0.830785 0.292315 0.269529 0.183934
H55   H     H_    0.473581 0.228298 0.271869 0.177128
H56   H     H_    0.417588 0.314196 0.283369 0.210025
H57   H     H_    0.494113 0.810735 0.649185 0.112738
H58   H     H_    0.478413 0.766491 0.704408 0.121857
H59   H     H_    0.598090 0.838852 0.705939 0.119657
H60   H     H_    0.741292 0.707212 0.735968 0.180734
H61   H     H_    0.897569 0.693728 0.699348 0.191967
H62   H     H_    0.000572 0.628337 0.336366 0.092943
H63   H     H_    0.959674 0.690170 0.291691 0.162828
H64   H     H_    0.054927 0.776912 0.671056 0.137162
H65   H     H_    0.136162 0.630848 0.287506 0.117329
H66   H     H_    0.029320 0.855953 0.328817 0.158437
H67   H     H_    0.159988 0.858573 0.279132 0.114544
H68   H     H_    0.013003 0.798601 0.269577 0.138776
H69   H     H_    0.706591 0.768544 0.398944 0.080357
H70   H     H_    0.497773 0.781462 0.390068 0.096470
H71   H     H_    0.585592 0.706550 0.416169 0.133691
H72   H     H_    0.819190 0.796247 0.328184 0.165284
H73   H     H_    0.743997 0.837438 0.273531 0.133162
H74   H     H_    0.647062 0.857053 0.331300 0.127196
H75   H     H_    0.810560 0.184969 0.646833 0.098781
H76   H     H_    0.576805 0.678113 0.235933 0.200691
H77   H     H_    0.637414 0.750559 0.218311 0.169268
H78   H     H_    0.405452 0.286668 0.883196 0.174280
H79   H     H_    0.213308 0.280755 0.867529 0.175912
H80   H     H_    0.800645 0.729441 0.096157 0.076932
H81   H     H_    0.717035 0.677145 0.136783 0.136249
H82   H     H_    0.894097 0.719995 0.155847 0.154937
H83   H     H_    0.084963 0.740397 0.991645 0.113185
H84   H     H_    0.205971 0.691003 0.035035 0.127286
H85   H     H_    0.294036 0.720388 0.984914 0.114637
H86   H     H_    0.700627 0.233249 0.320702 0.090699
H87   H     H_    0.381230 0.268846 0.666771 0.120208
H88   H     H_    0.367988 0.344208 0.632064 0.041074
H89   H     H_    0.367316 0.356633 0.698974 0.151805
H90   H     H_    0.268373 0.724374 0.901954 0.178198
H91   H     H_    0.068395 0.728576 0.898478 0.174404
H92   H     H_    0.003684 0.508840 0.746640 0.180489
H93   H     H_    0.024550 0.592065 0.736492 0.193804
H94   H     H_    0.920133 0.562948 0.436862 0.185878
H95   H     H_    0.779201 0.615146 0.411137 0.049785
H96   H     H_    0.747734 0.527296 0.430361 0.136677
H97   H     H_    0.623437 0.282008 0.614792 0.000237
H98   H     H_    0.383826 0.574168 0.583275 0.124335
H99   H     H_    0.564852 0.532063 0.596492 0.132749
H100  H     H_    0.416076 0.480131 0.566320 0.130588
H101  H     H_    0.395813 0.851051 0.512286 0.197226
H102  H     H_    0.411600 0.800684 0.559429 0.185703
H103  H     H_    0.719283 0.073515 0.632683 0.124060
H104  H     H_    0.564416 0.136860 0.614715 0.115394
H105  H     H_    0.516900 0.056677 0.635450 0.117478
H106  H     H_    0.778026 0.209004 0.449216 0.226397
H107  H     H_    0.827740 0.159281 0.496617 0.214081
N1    N     N_R   0.961312 0.507622 0.205140 -0.421828
N2    N     N_3   0.172007 0.697893 0.888369 -0.435601
N3    N     N_3   0.031755 0.540362 0.719850 -0.460277
N4    N     N_3   0.467076 0.837334 0.542800 -0.509663
N5    N     N_3   0.737882 0.174721 0.471661 -0.505987
N6    N     N_3   0.631900 0.932689 0.416763 -0.514142
N7    N     N_3   0.259580 0.134176 0.553034 -0.479274
N8    N     N_3   0.896415 0.644776 0.513579 -0.469525
N9    N     N_3   0.138412 0.257328 0.736972 -0.485228
N10   N     N_R   0.275182 0.503019 0.798126 -0.440182
N11   N     N_3   0.060783 0.204194 0.419151 -0.513915
N12   N     N_3   0.537076 0.398690 0.356429 -0.423670
N13   N     N_3   0.709147 0.304124 0.267543 -0.510068
N14   N     N_3   0.474362 0.271244 0.299349 -0.480010
N15   N     N_3   0.802930 0.729789 0.710201 -0.500731
N16   N     N_3   0.654862 0.716171 0.245803 -0.442004
N17   N     N_3   0.306766 0.311402 0.866054 -0.434453
O1    O     O_2   0.913240 0.537010 0.617740 -0.444000
O2    O     O_2   0.234896 0.748637 0.461329 -0.496196
O3    O     O_3   0.038441 0.749428 0.385117 -0.632821
O4    O     O_3   0.145240 0.536960 0.557560 -0.495023
O5    O     O_3   0.557280 0.416300 0.475860 -0.497229
O6    O     O_2   0.376710 0.670070 0.522470 -0.456590
O7    O     O_3   0.516756 0.680406 0.609600 -0.681548
O8    O     O_2   0.382099 0.541881 0.325948 -0.483818
O9    O     O_3   0.491067 0.660524 0.323419 -0.631277
O10   O     O_2   0.055192 0.393933 0.200358 -0.604376
O11   O     O_2   0.350473 0.388093 0.796517 -0.582278
O12   O     O_3   0.606966 0.301992 0.400282 -0.646444
O13   O     O_2   0.883402 0.621788 0.205699 -0.610767
O14   O     O_2   0.225182 0.619857 0.806609 -0.574263
O15   O     O_3   0.669960 0.410470 0.588880 -0.499387
O16   O     O_2   0.834716 0.445220 0.671624 -0.487077
O17   O     O_3   0.035090 0.648736 0.616263 -0.658617
O18   O     O_3   0.656571 0.347976 0.679922 -0.611003
O19   O     O_2   0.812980 0.329910 0.477500 -0.468895
O20   O     O_3   0.078660 0.374870 0.564770 -0.482492
O21   O     O_2   0.982285 0.251049 0.538142 -0.485286
O22   O     O_3   0.099993 0.268962 0.629590 -0.598994
O23   O     O_2   0.276450 0.462960 0.382230 -0.427549
O24   O     O_3   0.044470 0.462980 0.442430 -0.515375
O25   O     O_3   0.519740 0.589470 0.411120 -0.466270
O26   O     O_3   0.135024 0.351902 0.370275 -0.639387
O27   O     O_3   0.632420 0.583650 0.524140 -0.479178
O28   O     O_3   0.111040 0.625070 0.435230 -0.493111
P1    P     P_3+3 0.082480 0.557670 0.610090 0.973316
P2    P     P_3+3 0.635220 0.340300 0.462910 0.973445
P3    P     P_3+3 0.118519 0.285826 0.567372 0.964720
P4    P     P_3+3 0.107220 0.442270 0.389900 0.986722
P5    P     P_3+3 0.078327 0.718354 0.443786 0.932155
P6    P     P_3+3 0.667660 0.426942 0.654813 0.931748
P7    P     P_3+3 0.551979 0.670124 0.545171 0.899508
P8    P     P_3+3 0.529452 0.578193 0.345161 0.925763

loop_
_geom_bond_atom_site_label_1
_geom_bond_atom_site_label_2
_ccdc_geom_bond_type
C69   H39   S    
C53   C54   A    
Ba2   O6    S    
C27   N10   Am   
C4    O22   S    
C3    H28   S    
Ba1   O1    S    
C67   C75   S    
C72   H59   S    
C23   O7    S    
C72   H57   S    
O5    P2    S    
C12   H97   S    
H77   N16   S    
C56   C74   S    
C60   P5    S    
H51   N12   S    
Ba1   P1    S    
O15   P6    S    
C27   O11   D    
C78   H21   S    
O6    P7    D    
C24   C25   A    
C35   C36   A    
C15   C31   D    
C60   C65   A    
H101  N4    S    
C4    C80   S    
O8    P8    D    
O21   P3    D    
O7    P7    S    
C12   H1    S    
C64   H64   S    
O2    P5    D    
C76   H73   S    
C8    N1    S    
C75   H70   S    
H50   N12   S    
C32   C33   S    
C76   C78   S    
H79   N17   S    
C55   C57   A    
C53   H30   S    
C74   H66   S    
C83   H103  S    
C54   C63   S    
C44   C50   A    
C74   H67   S    
C54   C55   A    
C81   H95   S    
Ba1   Ba2   S    
C34   N15   S    
O26   P4    S    
C68   H86   S    
C22   C27   A    
C11   C38   A    
C17   C35   A    
C75   H69   S    
H43   N11   S    
C82   H100  S    
Ba1   O20   S    
Ba2   O24   S    
C64   H53   S    
C80   H88   S    
Ba2   O5    S    
C73   H65   S    
C6    C7    D    
O18   P6    S    
Ba1   O5    S    
C21   C22   A    
C16   N9    S    
C69   H40   S    
C79   H83   S    
C77   H82   S    
C34   H13   S    
H7    N8    S    
H41   N11   S    
C16   H32   S    
O25   P8    S    
C37   C43   A    
C57   C58   A    
C6    C14   D    
C45   H16   S    
C62   N4    S    
C30   P6    S    
C59   H34   S    
C65   N8    S    
C82   H99   S    
H61   N15   S    
C9    C13   A    
C4    C16   S    
C25   C42   A    
C40   C70   S    
C46   P2    S    
C19   C24   A    
C76   H72   S    
C70   H46   S    
C44   C46   A    
H93   N3    S    
C51   C53   A    
Ba1   P2    S    
C7    H23   S    
C68   N13   S    
H3    N6    S    
C61   C65   A    
C52   H20   S    
C32   N3    S    
O22   P3    S    
C71   H49   S    
C69   H38   S    
C82   H98   S    
C17   C20   A    
C13   C39   A    
H60   N15   S    
C1    H14   S    
H78   N17   S    
C3    C5    S    
C18   C37   A    
C67   H19   S    
Ba2   O28   S    
H4    N6    S    
Ba1   O27   S    
C68   N14   S    
C79   H84   S    
H106  N5    S    
H92   N3    S    
O28   P5    S    
H90   N2    S    
C14   C81   S    
C29   H25   S    
C61   P7    S    
C81   H96   S    
H9    N9    S    
C16   H15   S    
C9    C36   A    
C2    N1    Am   
C41   C42   A    
H55   N14   S    
C12   O18   S    
C11   H24   S    
C31   P1    S    
Ba1   O19   S    
O23   P4    D    
Ba2   O23   S    
O16   P6    D    
C38   H27   S    
C5    P8    S    
C80   H87   S    
O3    P5    S    
Ba1   O24   S    
C26   O14   D    
O17   P1    S    
C18   C19   A    
C51   C58   A    
C31   C32   D    
O9    P8    S    
O27   P7    S    
C48   C49   A    
H8    N8    S    
C84   O10   D    
H56   N14   S    
C71   H48   S    
O19   P2    D    
H10   N9    S    
C28   H37   S    
Ba2   P4    S    
C1    C12   S    
C34   C72   S    
O24   P4    S    
H102  N4    S    
H5    N7    S    
C81   H94   S    
C23   H11   S    
C46   C47   A    
C21   N17   S    
C71   H47   S    
Ba2   O4    S    
C20   H26   S    
C41   C79   S    
O1    P1    D    
C80   H89   S    
C23   H12   S    
C56   H18   S    
C77   H81   S    
Ba1   O4    S    
C18   C41   A    
C70   H45   S    
C7    C8    S    
Ba1   O15   S    
C72   H58   S    
C5    C14   S    
C42   N2    S    
C57   H33   S    
H91   N2    S    
C17   C19   A    
C1    H2    S    
C67   O9    S    
C26   N10   Am   
C29   C30   S    
C66   O12   S    
C22   C24   A    
C43   H29   S    
H54   N13   S    
C39   C77   S    
C9    C10   A    
H52   N13   S    
Ba2   O27   S    
C70   H44   S    
C52   C64   S    
H76   N16   S    
C73   H62   S    
C35   C38   A    
C2    O13   D    
C40   N11   S    
C10   C84   A    
C15   C82   S    
C48   C58   S    
C62   C63   A    
C2    C13   A    
O4    P1    S    
C66   C71   S    
C45   C73   S    
C49   C50   A    
O20   P3    S    
C39   C43   A    
C50   P3    S    
C84   N1    Am   
C45   C56   S    
C44   H35   S    
C33   N10   S    
C36   C37   A    
C47   N5    S    
C73   H63   S    
C28   H36   S    
C76   H74   S    
O12   P2    S    
C40   C69   S    
C74   H68   S    
C64   H42   S    
C45   O3    S    
C29   C33   D    
C79   H85   S    
C77   H80   S    
C59   C60   A    
C52   O17   S    
C83   H104  S    
C49   N7    S    
C1    H75   S    
C23   C34   S    
C61   C62   A    
C59   C63   A    
Ba2   O25   S    
C3    C8    D    
C10   C11   A    
C66   C68   S    
C47   C48   A    
C52   H31   S    
C66   N12   S    
C83   H105  S    
C15   C30   S    
C4    H22   S    
C20   C21   A    
C28   C40   S    
C67   C78   S    
C51   C83   S    
C56   H17   S    
C28   O26   S    
C6    P4    S    
H6    N7    S    
C55   N6    S    
H107  N5    S    
C75   H71   S    
C78   N16   S    
C25   C26   A    
