data_mof_unit_7912.cif
_audit_creation_date              2012-12-11T15:26:39-0500
_audit_creation_method            fapswitch 2.2
_symmetry_space_group_name_H-M    P1
_symmetry_Int_Tables_number       1
_space_group_crystal_system       triclinic
_cell_length_a                    7.223994
_cell_length_b                    11.99467
_cell_length_c                    29.448908
_cell_angle_alpha                 89.999472
_cell_angle_beta                  90.342926
_cell_angle_gamma                 89.998356
_cell_volume                      2551.68521324

loop_
_atom_site_label
_atom_site_type_symbol
_atom_type_description
_atom_site_fract_x
_atom_site_fract_y
_atom_site_fract_z
_atom_type_partial_charge
O1    O     O_R   0.647170 0.849180 0.201220 -0.534076
O2    O     O_R   0.352830 0.150820 0.798780 -0.534089
O3    O     O_R   0.352830 0.150820 0.701220 -0.535957
O4    O     O_R   0.647170 0.849180 0.298780 -0.535957
O5    O     O_R   0.147170 0.650820 0.298780 -0.535953
O6    O     O_R   0.852830 0.349180 0.701220 -0.535953
O7    O     O_R   0.852830 0.349180 0.798780 -0.534086
O8    O     O_R   0.147170 0.650820 0.201220 -0.534072
O9    O     O_R   0.317430 0.862210 0.298450 -0.536587
O10   O     O_R   0.682570 0.137790 0.701550 -0.536588
O11   O     O_R   0.682570 0.137790 0.798450 -0.538366
O12   O     O_R   0.317430 0.862210 0.201550 -0.538376
O13   O     O_R   0.817430 0.637790 0.201550 -0.538385
O14   O     O_R   0.182570 0.362210 0.798450 -0.538373
O15   O     O_R   0.182570 0.362210 0.701550 -0.536592
O16   O     O_R   0.817430 0.637790 0.298450 -0.536591
C1    C     C_R   0.486046 0.887379 0.313401 0.691585
C2    C     C_R   0.513954 0.112621 0.686599 0.691584
C3    C     C_R   0.514804 0.112434 0.813342 0.691384
C4    C     C_R   0.485196 0.887564 0.186658 0.691381
C5    C     C_R   0.985196 0.612436 0.186658 0.691377
C6    C     C_R   0.014802 0.387564 0.813342 0.691382
C7    C     C_R   0.013951 0.387383 0.686601 0.691578
C8    C     C_R   0.986048 0.612617 0.313399 0.691578
H1    H     H_    0.991259 0.609343 0.689063 0.104751
H2    H     H_    0.008738 0.390657 0.310938 0.104749
H3    H     H_    0.963015 0.390698 0.188908 0.104950
H4    H     H_    0.037057 0.609264 0.811088 0.104960
H5    H     H_    0.536895 0.890710 0.811083 0.104950
H6    H     H_    0.463219 0.109300 0.188904 0.104949
H7    H     H_    0.508839 0.109340 0.310937 0.104749
H8    H     H_    0.491161 0.890660 0.689063 0.104749
O17   O     O_3   0.480630 0.680630 0.250000 -0.379121
O18   O     O_3   0.519370 0.319370 0.750000 -0.379121
O19   O     O_3   0.980630 0.819370 0.250000 -0.379118
O20   O     O_3   0.019370 0.180630 0.750000 -0.379117
V1    V     V_3+5 0.205800 0.762860 0.250000 1.479018
V2    V     V_3+5 0.794200 0.237140 0.750000 1.479016
V3    V     V_3+5 0.705800 0.737140 0.250000 1.478989
V4    V     V_3+5 0.294200 0.262860 0.750000 1.478987
H9    H     H_    0.155360 0.300550 0.529818 0.165490
H10   H     H_    0.844647 0.699454 0.470183 0.165489
H11   H     H_    0.159472 0.697442 0.030656 0.166200
H12   H     H_    0.840186 0.302615 0.969345 0.166212
H13   H     H_    0.340188 0.197381 0.969340 0.166175
H14   H     H_    0.659389 0.802497 0.030649 0.166164
H15   H     H_    0.344492 0.800602 0.470181 0.165509
H16   H     H_    0.655508 0.199398 0.529819 0.165511
C9    C     C_R   0.995185 0.537853 0.352783 -0.056077
C10   C     C_R   0.004815 0.462147 0.647217 -0.056077
C11   C     C_R   0.010293 0.462431 0.852729 -0.057304
C12   C     C_R   0.989685 0.537576 0.147269 -0.057283
C13   C     C_R   0.489701 0.962421 0.147267 -0.057279
C14   C     C_R   0.510291 0.037563 0.852727 -0.057294
C15   C     C_R   0.504815 0.037857 0.647215 -0.056083
C16   C     C_R   0.495185 0.962143 0.352784 -0.056082
C17   C     C_R   0.038070 0.351454 0.381449 -0.162803
C18   C     C_R   0.961931 0.648547 0.618552 -0.162803
C19   C     C_R   0.054120 0.648380 0.881788 -0.162432
C20   C     C_R   0.945742 0.351615 0.118208 -0.162410
C21   C     C_R   0.445934 0.148391 0.118203 -0.162437
C22   C     C_R   0.553972 0.851584 0.881783 -0.162441
C23   C     C_R   0.461799 0.851463 0.618553 -0.162783
C24   C     C_R   0.538201 0.148537 0.381447 -0.162783
C25   C     C_R   0.009586 0.423493 0.345222 -0.194241
C26   C     C_R   0.990414 0.576507 0.654779 -0.194241
C27   C     C_R   0.029831 0.576570 0.845338 -0.193171
C28   C     C_R   0.970160 0.423416 0.154657 -0.193150
C29   C     C_R   0.470302 0.076583 0.154653 -0.193161
C30   C     C_R   0.529727 0.923409 0.845334 -0.193148
C31   C     C_R   0.490341 0.923497 0.654779 -0.194228
C32   C     C_R   0.509659 0.076503 0.345221 -0.194228
C33   C     C_R   0.999178 0.580854 0.397472 -0.067406
C34   C     C_R   0.000824 0.419147 0.602528 -0.067407
C35   C     C_R   0.004991 0.419458 0.897419 -0.066764
C36   C     C_R   0.994837 0.580573 0.102582 -0.066774
C37   C     C_R   0.494839 0.919426 0.102579 -0.066746
C38   C     C_R   0.505029 0.080536 0.897418 -0.066799
C39   C     C_R   0.500841 0.080857 0.602526 -0.067420
C40   C     C_R   0.499159 0.919142 0.397474 -0.067420
C41   C     C_R   0.002738 0.506021 0.435434 0.043036
C42   C     C_R   0.997267 0.493981 0.564566 0.043036
C43   C     C_R   0.007030 0.494239 0.935436 0.042562
C44   C     C_R   0.992750 0.505791 0.064565 0.042567
C45   C     C_R   0.492791 0.994202 0.064561 0.042582
C46   C     C_R   0.507023 0.005744 0.935432 0.042588
C47   C     C_R   0.497249 0.006020 0.564566 0.043012
C48   C     C_R   0.502751 0.993979 0.435434 0.043012
C49   C     C_R   0.039550 0.391827 0.426083 0.122304
C50   C     C_R   0.960454 0.608175 0.573917 0.122303
C51   C     C_R   0.048669 0.607987 0.926377 0.122231
C52   C     C_R   0.951111 0.392030 0.073620 0.122235
C53   C     C_R   0.451221 0.107973 0.073615 0.122211
C54   C     C_R   0.548579 0.891979 0.926373 0.122232
C55   C     C_R   0.460351 0.891835 0.573917 0.122309
C56   C     C_R   0.539649 0.108165 0.426082 0.122309
C57   C     C_R   0.979190 0.538674 0.482111 0.051284
C58   C     C_R   0.020817 0.461329 0.517889 0.051283
C59   C     C_R   0.978985 0.461707 0.981982 0.050797
C60   C     C_R   0.020756 0.538330 0.018019 0.050807
C61   C     C_R   0.520755 0.961649 0.018015 0.050813
C62   C     C_R   0.478998 0.038279 0.981978 0.050787
C63   C     C_R   0.520837 0.038666 0.517889 0.051257
C64   C     C_R   0.479163 0.961334 0.482111 0.051257
C65   C     C_R   0.091937 0.356124 0.505686 -0.166815
C66   C     C_R   0.908070 0.643880 0.494314 -0.166816
C67   C     C_R   0.095923 0.642753 0.006224 -0.166276
C68   C     C_R   0.903777 0.357291 0.993775 -0.166288
C69   C     C_R   0.403806 0.142707 0.993772 -0.166260
C70   C     C_R   0.595854 0.857202 0.006219 -0.166257
C71   C     C_R   0.407954 0.856150 0.494314 -0.166813
C72   C     C_R   0.592047 0.143850 0.505686 -0.166813
C73   C     C_R   0.088559 0.319548 0.461108 -0.196855
C74   C     C_R   0.911447 0.680455 0.538893 -0.196855
C75   C     C_R   0.096891 0.679578 0.961694 -0.196461
C76   C     C_R   0.902812 0.320455 0.038305 -0.196453
C77   C     C_R   0.402894 0.179552 0.038301 -0.196433
C78   C     C_R   0.596767 0.820372 0.961688 -0.196482
C79   C     C_R   0.411289 0.819572 0.538893 -0.196809
C80   C     C_R   0.588712 0.180427 0.461107 -0.196809
H17   H     H_    0.133049 0.235096 0.453781 0.144024
H18   H     H_    0.866957 0.764907 0.546219 0.144024
H19   H     H_    0.144865 0.763481 0.954661 0.143926
H20   H     H_    0.854803 0.236549 0.045339 0.143916
H21   H     H_    0.354896 0.263467 0.045336 0.143909
H22   H     H_    0.644670 0.736449 0.954653 0.143921
H23   H     H_    0.366723 0.735134 0.546221 0.144025
H24   H     H_    0.633277 0.264866 0.453779 0.144025
H25   H     H_    0.061294 0.263797 0.374522 0.129601
H26   H     H_    0.938706 0.736204 0.625478 0.129602
H27   H     H_    0.081408 0.735701 0.875069 0.129497
H28   H     H_    0.918444 0.264275 0.124928 0.129473
H29   H     H_    0.418729 0.235738 0.124922 0.129480
H30   H     H_    0.581165 0.764245 0.875061 0.129485
H31   H     H_    0.438504 0.763809 0.625482 0.129598
H32   H     H_    0.561495 0.236190 0.374518 0.129598
C81   C     C_1   0.972379 0.299971 0.597688 0.284838
N1    N     N_1   0.949615 0.204774 0.594313 -0.370237
C82   C     C_1   0.027622 0.700031 0.402312 0.284838
N2    N     N_1   0.050384 0.795228 0.405686 -0.370237
C83   C     C_1   0.971295 0.700123 0.097582 0.283606
N3    N     N_1   0.952383 0.795609 0.094106 -0.370143
C84   C     C_1   0.028370 0.299912 0.902423 0.283629
N4    N     N_1   0.047149 0.204424 0.905902 -0.370167
C85   C     C_1   0.528466 0.200082 0.902424 0.283631
N5    N     N_1   0.547285 0.295570 0.905904 -0.370177
C86   C     C_1   0.471233 0.799892 0.097581 0.283611
N6    N     N_1   0.452259 0.704418 0.094109 -0.370196
C87   C     C_1   0.527569 0.799960 0.402320 0.284857
N7    N     N_1   0.550305 0.704761 0.405701 -0.370198
C88   C     C_1   0.472431 0.200040 0.597680 0.284858
N8    N     N_1   0.449696 0.295239 0.594299 -0.370199

loop_
_geom_bond_atom_site_label_1
_geom_bond_atom_site_label_2
_ccdc_geom_bond_type
C24   H32   S    
C61   C62   A    
O5    V1    S    
C86   N6    T    
C68   C76   A    
C24   C32   A    
C13   C29   A    
C20   H28   S    
C39   C47   A    
C57   C58   A    
C69   C77   A    
C59   C68   A    
O11   C3    A    
O17   V3    S    
C58   C65   A    
C17   C49   A    
C66   C74   A    
O18   V4    S    
C65   C73   A    
O19   V1    S    
C11   C35   A    
C10   C34   A    
C80   H24   S    
C21   C53   A    
C84   N4    T    
C23   C55   A    
C22   C30   A    
O3    C2    A    
C71   C79   A    
C17   H25   S    
O12   V1    S    
H3    C28   S    
C46   C54   A    
C38   C85   S    
C19   C27   A    
C9    C25   A    
C45   C53   A    
C18   C26   A    
C16   C32   A    
C47   C55   A    
C88   N8    T    
O6    V2    S    
C37   C86   S    
C12   C28   A    
C41   C49   A    
C36   C83   S    
C38   C46   A    
O15   C7    A    
C37   C45   A    
O16   C8    A    
C43   C59   A    
C42   C58   A    
C36   C44   A    
C53   C77   A    
C34   C42   A    
C33   C41   A    
C48   C64   A    
C85   N5    T    
H8    C31   S    
H12   C68   S    
C40   C87   S    
O10   C2    A    
C34   C81   S    
C49   C73   A    
C75   H19   S    
C21   H29   S    
C44   C60   A    
H4    C27   S    
C24   C56   A    
C60   C67   A    
C72   C80   A    
C7    C10   S    
H11   C67   S    
C33   C82   S    
C55   C79   A    
C61   C70   A    
C63   C72   A    
C23   H31   S    
O11   V2    S    
C13   C37   A    
C15   C39   A    
C59   C60   A    
C14   C30   A    
O4    V3    S    
C19   H27   S    
O12   C4    A    
O9    V1    S    
O8    C5    A    
O13   C5    A    
C11   C27   A    
C44   C52   A    
C70   C78   A    
C52   C76   A    
C1    C16   S    
C67   C75   A    
C35   C84   S    
C2    C15   S    
C18   C50   A    
C47   C63   A    
C57   C66   A    
C3    C14   S    
O9    C1    A    
H7    C32   S    
H16   C72   S    
C23   C31   A    
O3    V4    S    
H14   C70   S    
O14   C6    A    
C9    C33   A    
O8    V1    S    
O4    C1    A    
C46   C62   A    
H6    C29   S    
C45   C61   A    
C39   C88   S    
H5    C30   S    
C19   C51   A    
C21   C29   A    
C8    C9    S    
O1    C4    A    
C76   H20   S    
O2    C3    A    
H2    C25   S    
C56   C80   A    
H1    C26   S    
C17   C25   A    
C4    C13   S    
C12   C36   A    
C16   C40   A    
C64   C71   A    
C82   N2    T    
C10   C26   A    
O7    C6    A    
C43   C51   A    
C81   N1    T    
C42   C50   A    
O10   V2    S    
C22   H30   S    
C22   C54   A    
C40   C48   A    
C83   N3    T    
C54   C78   A    
C35   C43   A    
O5    C8    A    
C41   C57   A    
C18   H26   S    
H15   C71   S    
O6    C7    A    
C74   H18   S    
O20   V2    S    
O7    V2    S    
C51   C75   A    
C48   C56   A    
H13   C69   S    
C50   C74   A    
O15   V4    S    
O13   V3    S    
O1    V3    S    
O16   V3    S    
O14   V4    S    
H10   C66   S    
O2    V4    S    
C73   H17   S    
H9    C65   S    
C20   C28   A    
C63   C64   A    
C62   C69   A    
C78   H22   S    
C87   N7    T    
C20   C52   A    
C77   H21   S    
C5    C12   S    
C15   C31   A    
C6    C11   S    
C14   C38   A    
C79   H23   S    
