data_mof_unit_32090.cif
_audit_creation_date              2012-12-10T16:48:43-0500
_audit_creation_method            fapswitch 2.2
_symmetry_space_group_name_H-M    P1
_symmetry_Int_Tables_number       1
_space_group_crystal_system       triclinic
_cell_length_a                    17.120114
_cell_length_b                    8.683176
_cell_length_c                    7.505877
_cell_angle_alpha                 103.48903
_cell_angle_beta                  89.806953
_cell_angle_gamma                 94.255574
_cell_volume                      1081.91782984

loop_
_atom_site_label
_atom_site_type_symbol
_atom_type_description
_atom_site_fract_x
_atom_site_fract_y
_atom_site_fract_z
_atom_type_partial_charge
C1    C     C_R   0.497405 0.199731 0.453279 0.874781
C2    C     C_R   0.502593 0.800269 0.546722 0.874696
C3    C     C_2   0.495413 0.031196 0.427917 -0.315099
C4    C     C_2   0.504577 0.968803 0.572086 -0.314915
C5    C     C_R   0.351092 0.504854 0.527583 0.833569
C6    C     C_R   0.648927 0.495375 0.472455 0.833502
C7    C     C_R   0.266098 0.498379 0.548790 -0.145802
C8    C     C_R   0.733954 0.503024 0.451538 -0.146012
C9    C     C_R   0.220946 0.389044 0.415889 -0.222922
C10   C     C_R   0.778743 0.612356 0.585203 -0.222823
C11   C     C_R   0.140169 0.373594 0.429061 0.188493
C12   C     C_R   0.859499 0.629137 0.572442 0.188228
C13   C     C_R   0.102744 0.471496 0.575242 -0.001214
C14   C     C_R   0.897312 0.532609 0.425832 -0.000714
C15   C     C_R   0.148009 0.570211 0.720347 0.166800
C16   C     C_R   0.852374 0.434049 0.279989 0.166618
C17   C     C_R   0.229997 0.589210 0.703982 0.126358
C18   C     C_R   0.770406 0.413642 0.295946 0.127009
C19   C     C_2   0.017288 0.480039 0.570018 -0.109954
C20   C     C_2   0.982822 0.524868 0.431480 -0.109787
Cu1   Cu    Cu3+1 0.508700 0.517250 0.683000 1.066059
Cu2   Cu    Cu3+1 0.491300 0.482750 0.317000 1.066103
H1    H     H_    0.486098 0.958250 0.289753 0.201550
H2    H     H_    0.513890 0.041749 0.710251 0.201515
N1    N     N_2   0.478180 0.456750 0.041980 0.009347
N2    N     N_2   0.521820 0.543250 0.958020 0.009372
O1    O     O_R   0.505650 0.286040 0.618880 -0.572576
O2    O     O_R   0.494350 0.713960 0.381120 -0.572635
O3    O     O_R   0.490960 0.256910 0.309800 -0.568925
O4    O     O_R   0.509040 0.743090 0.690200 -0.568920
O5    O     O_R   0.394600 0.516230 0.672450 -0.556431
O6    O     O_R   0.605400 0.483770 0.327550 -0.556453
O7    O     O_R   0.379910 0.487100 0.363380 -0.569686
O8    O     O_R   0.620090 0.512900 0.636620 -0.569758
H3    H     H_    0.248880 0.312276 0.302712 0.198109
H4    H     H_    0.750529 0.688109 0.698734 0.198335
I1    I     I_    0.703934 0.236496 0.094517 -0.231545
I2    I     I_    0.297100 0.766352 0.904130 -0.232496
H5    H     H_    0.017259 0.545693 0.316444 0.203748
H6    H     H_    0.982878 0.459098 0.685025 0.203970
I3    I     I_    0.093348 0.681731 0.968515 -0.221358
I4    I     I_    0.907473 0.324866 0.031431 -0.222533
I5    I     I_    0.918287 0.818962 0.765924 -0.186581
I6    I     I_    0.080650 0.183666 0.237124 -0.186630
I7    I     I_    0.388173 0.291809 0.920195 -0.165843
I8    I     I_    0.611807 0.708246 0.079811 -0.166551

loop_
_geom_bond_atom_site_label_1
_geom_bond_atom_site_label_2
_ccdc_geom_bond_type
C7    C17   A    
C2    C4    S    
Cu1   N2    S    
C15   C17   A    
Cu2   O3    S    
N1    I7    S    
C11   C13   A    
Cu1   O4    S    
Cu2   O6    S    
C3    H1    S    
C19   C20   D    
C2    O4    A    
C1    O3    A    
Cu1   O1    S    
C11   I6    S    
C16   C18   A    
Cu2   O2    S    
Cu1   Cu2   S    
Cu1   O5    S    
C9    C11   A    
C10   C12   A    
Cu2   O7    S    
C8    C10   A    
C18   I1    S    
C12   C14   A    
C12   I5    S    
C7    C9    A    
C17   I2    S    
C13   C15   A    
C4    H2    S    
C14   C16   A    
C2    O2    A    
C19   H6    S    
C13   C19   S    
C9    H3    S    
C3    C4    D    
C14   C20   S    
C15   I3    S    
C1    O1    A    
C6    O6    A    
C1    C3    S    
C5    C7    S    
C20   H5    S    
N2    I8    S    
C6    C8    S    
Cu1   O8    S    
C5    O5    A    
N1    N2    D    
C16   I4    S    
C8    C18   A    
C6    O8    A    
C10   H4    S    
Cu2   N1    S    
C5    O7    A    
