data_mof_unit_41776.cif
_audit_creation_date              2013-03-05T15:55:02-0500
_audit_creation_method            fapswitch 2.2
_symmetry_space_group_name_H-M    P1
_symmetry_Int_Tables_number       1
_space_group_crystal_system       triclinic
_cell_length_a                    11.702827
_cell_length_b                    12.401469
_cell_length_c                    13.251826
_cell_angle_alpha                 117.017784
_cell_angle_beta                  76.285122
_cell_angle_gamma                 102.111784
_cell_volume                      1652.89291999

loop_
_atom_site_label
_atom_site_type_symbol
_atom_site_description
_atom_site_fract_x
_atom_site_fract_y
_atom_site_fract_z
_atom_type_partial_charge
O1    O     O_R   0.533340 0.972510 0.318140 -0.503478
O2    O     O_R   0.488570 0.806530 0.359650 -0.585365
C1    C     C_R   0.502790 0.854840 0.287101 0.872072
O3    O     O_R   0.685190 0.083000 0.479260 -0.525823
O4    O     O_R   0.640410 0.917020 0.520770 -0.597418
C2    C     C_R   0.715943 0.000373 0.499510 0.814995
Cu1   Cu    Cu3+1 0.526510 0.098270 0.475420 1.060289
Cu2   Cu    Cu3+1 0.473490 0.901730 0.524580 1.062311
O5    O     O_R   0.511430 0.193470 0.640350 -0.550026
O6    O     O_R   0.466660 0.027490 0.681860 -0.511153
O7    O     O_R   0.359590 0.082980 0.479230 -0.587669
O8    O     O_R   0.314810 0.917000 0.520740 -0.526908
C3    C     C_R   0.484091 0.145151 0.714039 0.887529
C4    C     C_R   0.284029 0.999666 0.500590 0.806466
C5    C     C_1   0.837992 0.001130 0.499161 -0.099863
C6    C     C_1   0.940290 0.000302 0.499369 0.035025
C7    C     C_1   0.059694 0.998943 0.500014 0.029853
C8    C     C_1   0.162000 0.998525 0.500537 -0.115343
C9    C     C_R   0.437474 0.269089 0.040408 0.285343
H1    H     H_    0.351244 0.440562 0.247452 0.202277
C10   C     C_R   0.469345 0.227614 0.837873 -0.334377
C11   C     C_R   0.529680 0.816147 0.079030 0.296741
C12   C     C_R   0.554499 0.732231 0.962702 0.175463
C13   C     C_R   0.546385 0.608146 0.933663 0.419211
C14   C     C_R   0.484755 0.561763 0.014349 -0.092135
C15   C     C_R   0.453832 0.644316 0.130484 -0.165428
C16   C     C_R   0.459019 0.434870 0.984094 -0.048422
C17   C     C_R   0.431902 0.392662 0.070298 -0.154908
C18   C     C_R   0.390439 0.473264 0.182256 -0.146710
C19   C     C_R   0.386241 0.594653 0.207885 0.522631
C20   C     C_R   0.451237 0.348362 0.871301 0.472106
C21   C     C_R   0.467781 0.188787 0.923799 0.197612
C22   C     C_R   0.491739 0.771505 0.164624 -0.229893
C23   C     C_R   0.707808 0.360777 0.347201 0.224195
N1    N     N_R   0.566700 0.246290 0.438210 -0.247703
C24   C     C_R   0.334051 0.752060 0.639751 0.594720
C25   C     C_R   0.298028 0.652631 0.666857 -0.222420
C26   C     C_R   0.361310 0.553163 0.613632 -0.162532
C27   C     C_R   0.462021 0.549956 0.530525 0.047693
C28   C     C_R   0.497085 0.654147 0.505435 0.195920
C29   C     C_R   0.529003 0.447456 0.472296 -0.087875
C30   C     C_R   0.634245 0.454527 0.394450 -0.063071
C31   C     C_R   0.664676 0.555291 0.366399 0.470253
C32   C     C_R   0.594597 0.650615 0.420251 -0.256391
C33   C     C_R   0.495818 0.337869 0.488619 0.082409
C34   C     C_R   0.674537 0.260046 0.373240 0.393400
N2    N     N_R   0.434010 0.754320 0.561170 -0.237112
H2    H     H_    0.415241 0.324352 0.542933 0.151999
H3    H     H_    0.328793 0.480121 0.639128 0.151999
H4    H     H_    0.219144 0.652064 0.729088 0.175055
H5    H     H_    0.618709 0.720217 0.391156 0.200232
N3    N     N_R   0.498651 0.070670 0.893889 0.163939
O9    O     O_R   0.597880 0.036334 0.826811 -0.341734
O10   O     O_R   0.433419 0.001544 0.940901 -0.226049
O11   O     O_3   0.754868 0.553073 0.275851 -0.538389
C35   C     C_3   0.836353 0.660059 0.309727 -0.208548
H6    H     H_    0.852026 0.693509 0.399472 0.170928
H7    H     H_    0.806834 0.732777 0.298434 0.130338
H8    H     H_    0.922743 0.639130 0.252664 0.196661
N4    N     N_R   0.821661 0.369892 0.279209 0.191079
O12   O     O_R   0.908739 0.444531 0.328560 -0.314310
O13   O     O_R   0.843480 0.289261 0.173496 -0.307505
N5    N     N_R   0.259083 0.846824 0.690436 0.123296
O14   O     O_R   0.156293 0.823248 0.658482 -0.350870
O15   O     O_R   0.273251 0.935034 0.790248 -0.300662
N6    N     N_R   0.420576 0.227341 0.128044 0.152319
O16   O     O_R   0.497173 0.265967 0.197414 -0.392835
O17   O     O_R   0.320946 0.165262 0.148824 -0.266045
O18   O     O_3   0.412600 0.378669 0.797396 -0.519573
C36   C     C_3   0.287588 0.366459 0.819714 -0.276325
H9    H     H_    0.255012 0.380466 0.755161 0.169790
H10   H     H_    0.254705 0.436563 0.905995 0.170221
H11   H     H_    0.249321 0.273304 0.812011 0.161380
O19   O     O_3   0.529155 0.939545 0.110666 -0.526126
C37   C     C_3   0.638566 0.992526 0.070510 0.059430
H12   H     H_    0.636347 0.992630 0.987800 0.220921
H13   H     H_    0.715772 0.948050 0.062463 0.142851
H14   H     H_    0.651772 0.089822 0.131229 0.202058
O20   O     O_3   0.597398 0.533541 0.824308 -0.501927
C38   C     C_3   0.709321 0.512903 0.829824 -0.197564
H15   H     H_    0.701377 0.462688 0.883058 0.137000
H16   H     H_    0.768738 0.599825 0.863196 0.172836
H17   H     H_    0.751322 0.455591 0.741712 0.202308
N7    N     N_R   0.589182 0.771007 0.872212 0.160560
O21   O     O_R   0.700298 0.778997 0.826725 -0.342400
O22   O     O_R   0.509165 0.766853 0.816868 -0.279544
O23   O     O_3   0.311694 0.659872 0.306427 -0.556330
C39   C     C_3   0.214764 0.681847 0.275084 -0.254355
H18   H     H_    0.169602 0.595928 0.214944 0.172551
H19   H     H_    0.242562 0.748817 0.237192 0.150911
H20   H     H_    0.149028 0.721582 0.353565 0.202924
N8    N     N_R   0.763258 0.181862 0.343483 0.153461
O24   O     O_R   0.752272 0.069469 0.267589 -0.375273
O25   O     O_R   0.861824 0.226939 0.384863 -0.307174

loop_
_geom_bond_atom_site_label_1
_geom_bond_atom_site_label_2
_geom_bond_distance
_ccdc_geom_bond_type
C28   N2    1.387929 A    
N6    O17   1.300634 A    
O23   C39   1.410506 S    
N5    O15   1.298838 A    
C29   C30   1.422397 A    
C4    C8    1.425346 S    
C23   C30   1.409960 A    
O11   C35   1.414973 S    
Cu1   Cu2   2.714139 S    
C27   C29   1.437319 A    
C26   H3    1.073277 S    
Cu1   O7    1.913349 S    
C10   C20   1.403392 A    
C18   C19   1.393772 A    
C9    N6    1.431876 S    
C24   C25   1.392714 A    
N7    O22   1.299423 A    
C38   H17   1.109332 S    
O4    C2    1.300900 A    
O7    C4    1.301237 A    
C34   N8    1.433386 S    
C1    C22   1.496179 S    
C5    C6    1.200039 T    
C35   H6    1.115072 S    
C24   N2    1.374314 A    
N4    O13   1.300938 A    
O5    C3    1.310744 A    
C21   N3    1.435261 S    
C13   O20   1.384158 S    
C2    C5    1.425300 S    
C6    C7    1.403088 S    
C12   C13   1.393952 A    
C36   H9    1.106679 S    
C23   C34   1.398216 A    
C24   N5    1.427618 S    
N6    O16   1.299442 A    
C23   N4    1.435260 S    
O3    Cu1   1.920430 S    
C9    C21   1.412670 A    
N3    O10   1.300347 A    
H1    C18   1.083354 S    
C10   C21   1.418917 A    
C12   N7    1.430094 S    
C16   C20   1.400030 A    
C13   C14   1.418928 A    
C38   H16   1.113212 S    
O19   C37   1.412757 S    
C27   C28   1.432360 A    
C14   C15   1.416864 A    
N5    O14   1.301275 A    
N4    O12   1.301217 A    
O1    C1    1.316044 A    
C37   H12   1.103094 S    
C25   C26   1.383033 A    
C15   C22   1.429212 A    
C39   H20   1.109208 S    
C28   C32   1.394157 A    
Cu2   O8    1.920430 S    
C36   H11   1.114920 S    
N8    O25   1.301765 A    
C7    C8    1.200051 T    
C3    C10   1.477721 S    
N7    O21   1.301019 A    
C9    C17   1.409912 A    
C37   H13   1.114440 S    
C32   H5    1.059187 S    
O3    C2    1.304571 A    
O8    C4    1.304356 A    
C15   C19   1.428938 A    
C31   C32   1.393638 A    
C30   C31   1.413877 A    
C11   O19   1.391944 S    
N1    C33   1.366561 A    
N3    O9    1.301586 A    
C33   H2    1.075553 S    
C31   O11   1.391505 S    
Cu1   O5    1.939619 S    
C11   C22   1.420847 A    
C17   C18   1.396651 A    
O1    Cu1   1.950098 S    
Cu1   N1    2.045514 S    
O2    Cu2   1.939619 S    
C39   H19   1.111666 S    
C38   H15   1.112597 S    
O6    C3    1.305236 A    
O4    Cu2   1.913349 S    
C14   C16   1.418795 A    
C35   H8    1.109332 S    
O2    C1    1.310166 A    
Cu2   N2    2.033520 S    
C25   H4    1.083469 S    
C26   C27   1.402845 A    
N8    O24   1.297430 A    
C35   H7    1.110348 S    
O18   C36   1.411839 S    
C37   H14   1.107194 S    
O20   C38   1.410508 S    
C20   O18   1.385868 S    
C39   H18   1.114327 S    
Cu2   O6    1.950096 S    
C16   C17   1.407601 A    
C29   C33   1.431910 A    
C11   C12   1.414492 A    
C36   H10   1.113500 S    
C19   O23   1.384498 S    
N1    C34   1.375094 A    
