data_mof_unit_44413.cif
_audit_creation_date              2013-03-05T15:42:05-0500
_audit_creation_method            fapswitch 2.2
_symmetry_space_group_name_H-M    P1
_symmetry_Int_Tables_number       1
_space_group_crystal_system       triclinic
_cell_length_a                    7.82559
_cell_length_b                    8.563865
_cell_length_c                    15.703926
_cell_angle_alpha                 91.205015
_cell_angle_beta                  85.906929
_cell_angle_gamma                 93.26301
_cell_volume                      1047.89632485

loop_
_atom_site_label
_atom_site_type_symbol
_atom_site_description
_atom_site_fract_x
_atom_site_fract_y
_atom_site_fract_z
_atom_type_partial_charge
O1    O     O_R   0.389250 0.738570 0.505570 -0.620637
O2    O     O_R   0.610750 0.261430 0.494430 -0.620645
O3    O     O_R   0.678390 0.711630 0.491020 -0.596400
O4    O     O_R   0.321610 0.288370 0.508980 -0.596317
C1    C     C_R   0.545287 0.794385 0.497872 0.946076
C2    C     C_R   0.454713 0.205615 0.502128 0.946109
O5    O     O_R   0.355460 0.513480 0.630490 -0.588225
O6    O     O_R   0.644540 0.486520 0.369510 -0.588207
O7    O     O_R   0.644600 0.486540 0.615950 -0.581127
O8    O     O_R   0.355400 0.513460 0.384050 -0.581144
C3    C     C_R   0.502100 0.500055 0.661726 0.883224
C4    C     C_R   0.497900 0.499945 0.338274 0.883242
Zn1   Zn    Zn3+2 0.306940 0.517990 0.509710 1.114499
Zn2   Zn    Zn3+2 0.693060 0.482010 0.490290 1.114480
C5    C     C_2   0.569198 0.957784 0.496655 -0.315018
C6    C     C_2   0.430802 0.042216 0.503345 -0.314980
C7    C     C_3   0.439799 0.632260 0.029234 0.377549
C8    C     C_3   0.560201 0.367740 0.970766 0.377549
C9    C     C_3   0.603454 0.621679 0.969685 -0.220684
C10   C     C_3   0.396546 0.378321 0.030315 -0.220683
H1    H     H_    0.685527 0.722268 0.943927 0.221619
H2    H     H_    0.314473 0.277731 0.056073 0.221619
H3    H     H_    0.791377 0.474706 0.046332 0.198940
H4    H     H_    0.208624 0.525293 0.953668 0.198939
C11   C     C_1   0.506280 0.499217 0.750368 -0.045174
C12   C     C_1   0.493720 0.500783 0.249631 -0.045189
C13   C     C_3   0.339214 0.512494 0.975093 -0.261882
C14   C     C_3   0.660786 0.487505 0.024907 -0.261879
C15   C     C_3   0.504397 0.498587 0.916483 0.003872
C16   C     C_3   0.495604 0.501412 0.083517 0.003873
N1    N     N_2   0.950320 0.457950 0.477300 0.032530
N2    N     N_2   0.049680 0.542050 0.522700 0.032519
H5    H     H_    0.700219 0.008072 0.490257 0.209417
H6    H     H_    0.299781 0.991928 0.509743 0.209424
C17   C     C_1   0.507005 0.498640 0.825607 0.098243
C18   C     C_1   0.492995 0.501359 0.174393 0.098242
N3    N     N_R   0.372685 0.779550 0.060789 0.232770
O9    O     O_R   0.329091 0.880978 0.006979 -0.326742
O10   O     O_R   0.355988 0.810777 0.142247 -0.353157
N4    N     N_R   0.627315 0.220449 0.939211 0.232770
O11   O     O_R   0.670909 0.119021 0.993021 -0.326743
O12   O     O_R   0.644013 0.189222 0.857753 -0.353142
N5    N     N_R   0.022871 0.417173 0.397542 0.306267
O13   O     O_R   0.009766 0.508478 0.333430 -0.347397
O14   O     O_R   0.064333 0.273752 0.382645 -0.368656
N6    N     N_R   0.977152 0.582766 0.602471 0.306295
O15   O     O_R   0.990119 0.491340 0.666533 -0.347388
O16   O     O_R   0.935862 0.726207 0.617437 -0.368647

loop_
_geom_bond_atom_site_label_1
_geom_bond_atom_site_label_2
_geom_bond_distance
_ccdc_geom_bond_type
O7    Zn2   1.982694 S    
N3    O9    1.300272 A    
C7    C16   1.523835 S    
C10   C13   1.558774 S    
C13   C15   1.541214 S    
N5    O14   1.300395 A    
C15   C17   1.425813 S    
Zn1   N2    2.030743 S    
N1    N2    1.274913 D    
H4    C13   1.110397 S    
C16   C18   1.425814 S    
Zn2   N1    2.030742 S    
O6    C4    1.291681 A    
C14   C16   1.541214 S    
N3    O10   1.300273 A    
C8    C15   1.523836 S    
C7    N3    1.457546 S    
H3    C14   1.110397 S    
C10   C16   1.540304 S    
O5    C3    1.291681 A    
C9    C14   1.558773 S    
O7    C3    1.292468 A    
O2    C2    1.284152 A    
O3    Zn2   1.976041 S    
O8    C4    1.292469 A    
C11   C17   1.182067 T    
O1    C1    1.284152 A    
N4    O12   1.300273 A    
N4    O11   1.300271 A    
C7    C9    1.536746 S    
C10   H2    1.110307 S    
C8    C10   1.536746 S    
N5    O13   1.300991 A    
O2    Zn2   1.961678 S    
N6    O16   1.300321 A    
C1    C5    1.401535 S    
O1    Zn1   1.961679 S    
C3    C11   1.394927 S    
C2    C6    1.401534 S    
C5    C6    1.332864 D    
C7    C13   1.536684 S    
O3    C1    1.289813 A    
O5    Zn1   1.962337 S    
C8    C14   1.536683 S    
O4    C2    1.289812 A    
C12   C18   1.182066 T    
O4    Zn1   1.976040 S    
C8    N4    1.457547 S    
N6    O15   1.300825 A    
O6    Zn2   1.962338 S    
C6    H6    1.087972 S    
N2    N6    1.384089 S    
C5    H5    1.087972 S    
N1    N5    1.384096 S    
C4    C12   1.394929 S    
C9    H1    1.110307 S    
O8    Zn1   1.982694 S    
C9    C15   1.540305 S    
