data_mof_unit_10962.cif
_audit_creation_date              2012-12-10T18:47:08-0500
_audit_creation_method            fapswitch 2.2
_symmetry_space_group_name_H-M    P1
_symmetry_Int_Tables_number       1
_space_group_crystal_system       triclinic
_cell_length_a                    10.694006
_cell_length_b                    9.815442
_cell_length_c                    15.0111
_cell_angle_alpha                 89.666711
_cell_angle_beta                  89.641878
_cell_angle_gamma                 90.083605
_cell_volume                      1575.60186337

loop_
_atom_site_label
_atom_site_type_symbol
_atom_type_description
_atom_site_fract_x
_atom_site_fract_y
_atom_site_fract_z
_atom_type_partial_charge
C1    C     C_R   0.259840 0.499933 0.500065 0.863279
C2    C     C_R   0.127470 0.499856 0.500162 -0.002384
C3    C     C_R   0.586800 0.072603 0.451549 -0.081701
C4    C     C_R   0.413199 0.927397 0.548450 -0.081700
C5    C     C_R   0.413194 0.071459 0.548442 -0.076182
C6    C     C_R   0.586805 0.928540 0.451557 -0.076184
C7    C     C_R   0.496217 0.500637 0.326797 0.895540
C8    C     C_R   0.503783 0.499363 0.673203 0.895539
C9    C     C_R   0.571844 0.393023 0.815575 -0.075728
C10   C     C_R   0.428157 0.606977 0.184425 -0.075728
C11   C     C_R   0.509168 0.497792 0.768906 -0.118114
C12   C     C_R   0.740160 0.500066 0.499935 0.863277
C13   C     C_R   0.490833 0.502209 0.231094 -0.118114
C14   C     C_R   0.446854 0.601900 0.813335 -0.288254
C15   C     C_R   0.553148 0.398101 0.186665 -0.288254
C16   C     C_R   0.442446 0.603035 0.905032 0.126502
C17   C     C_R   0.557558 0.396966 0.094968 0.126502
C18   C     C_R   0.502672 0.499076 0.953464 0.053190
C19   C     C_R   0.497332 0.500926 0.046536 0.053190
C20   C     C_R   0.568281 0.393621 0.909028 0.069671
C21   C     C_R   0.431722 0.606380 0.090972 0.069671
C22   C     C_R   0.377062 0.706282 0.948605 -0.220805
C23   C     C_R   0.371061 0.707792 0.040730 -0.220885
C24   C     C_R   0.622942 0.293720 0.051395 -0.220805
C25   C     C_R   0.642013 0.285681 0.766787 0.137533
C26   C     C_R   0.591532 0.154077 0.758900 -0.138958
C27   C     C_R   0.655068 0.054823 0.709902 -0.128139
C28   C     C_R   0.769043 0.086314 0.668535 -0.110518
C29   C     C_R   0.819955 0.216936 0.676433 -0.122652
C30   C     C_R   0.756595 0.316653 0.725159 -0.134811
C31   C     C_R   0.357984 0.714316 0.233213 0.137533
C32   C     C_R   0.243400 0.683339 0.274838 -0.134818
C33   C     C_R   0.180036 0.783053 0.323564 -0.122651
C34   C     C_R   0.628942 0.292210 0.959270 -0.220885
C35   C     C_R   0.230946 0.913676 0.331466 -0.110518
C36   C     C_R   0.344922 0.945171 0.290102 -0.128138
C37   C     C_R   0.408462 0.845921 0.241103 -0.138952
C38   C     C_R   0.064125 0.383081 0.472696 -0.216393
C39   C     C_R   0.935875 0.616919 0.527305 -0.216394
C40   C     C_R   0.936031 0.383291 0.472430 -0.214631
C41   C     C_R   0.063968 0.616709 0.527571 -0.214630
C42   C     C_R   0.872530 0.500144 0.499839 -0.002384
H1    H     H_    0.398682 0.680902 0.776073 0.155201
H2    H     H_    0.113021 0.707091 0.549507 0.147943
H3    H     H_    0.656000 0.127804 0.412759 0.117122
H4    H     H_    0.343998 0.872196 0.587238 0.117122
H5    H     H_    0.344087 0.125750 0.587311 0.124216
H6    H     H_    0.655912 0.874249 0.412689 0.124216
H7    H     H_    0.502620 0.129139 0.789901 0.121145
H8    H     H_    0.615601 0.953744 0.703551 0.137686
H9    H     H_    0.817821 0.009544 0.630303 0.114187
H10   H     H_    0.908316 0.241051 0.644532 0.135696
H11   H     H_    0.796101 0.417998 0.729959 0.114795
H12   H     H_    0.601320 0.319099 0.223927 0.155200
H13   H     H_    0.203896 0.581993 0.270035 0.114796
H14   H     H_    0.091674 0.758934 0.355463 0.135698
H15   H     H_    0.182164 0.990443 0.369699 0.114186
H16   H     H_    0.384387 0.046252 0.296456 0.137685
H17   H     H_    0.497375 0.870863 0.210105 0.121143
H18   H     H_    0.330035 0.785844 0.911322 0.142323
H19   H     H_    0.669969 0.214157 0.088678 0.142323
H20   H     H_    0.318590 0.789000 0.071811 0.160292
H21   H     H_    0.681414 0.211001 0.928189 0.160292
H22   H     H_    0.113281 0.292668 0.450768 0.149972
H23   H     H_    0.886719 0.707332 0.549233 0.149972
H24   H     H_    0.886979 0.292909 0.450493 0.147943
N1    N     N_R   0.500000 0.857200 0.500000 -0.072665
N2    N     N_R   0.500000 0.142800 0.500000 -0.072665
O1    O     O_R   0.316770 0.614620 0.499990 -0.621304
O2    O     O_R   0.683230 0.385380 0.500010 -0.621305
O3    O     O_R   0.683230 0.614620 0.500010 -0.634824
O4    O     O_R   0.316770 0.385380 0.499990 -0.634825
O5    O     O_R   0.499980 0.614680 0.367850 -0.603644
O6    O     O_R   0.500020 0.385320 0.632150 -0.603644
O7    O     O_R   0.500020 0.614680 0.632150 -0.631760
O8    O     O_R   0.499980 0.385320 0.367850 -0.631760
Zn1   Zn    Zn3+2 0.500000 0.653120 0.500000 0.948063
Zn2   Zn    Zn3+2 0.500000 0.346880 0.500000 0.948063

loop_
_geom_bond_atom_site_label_1
_geom_bond_atom_site_label_2
_ccdc_geom_bond_type
C24   H19   S    
O2    Zn2   S    
O1    Zn1   S    
C3    N2    A    
N1    Zn1   S    
C3    C6    A    
C9    C25   S    
C39   C41   A    
C4    H4    S    
C5    H5    S    
C26   C27   A    
C6    H6    S    
C28   C29   A    
C19   C21   A    
O8    Zn2   S    
C18   C19   A    
C36   H16   S    
C22   H18   S    
C11   C14   A    
C2    C41   A    
C1    C2    S    
C12   C42   S    
C17   C19   A    
C10   C31   S    
C23   H20   S    
C35   C36   A    
O4    Zn2   S    
C32   H13   S    
C27   H8    S    
C20   C34   A    
C33   H14   S    
C40   C42   A    
C40   H24   S    
C39   H23   S    
C5    N2    A    
C39   C42   A    
C38   H22   S    
C10   C21   A    
N2    Zn2   S    
C30   H11   S    
C1    O4    A    
C17   C24   A    
C15   H12   S    
C7    O5    A    
C26   H7    S    
C25   C26   A    
C3    H3    S    
C8    O7    A    
C1    O1    A    
C31   C37   A    
C29   C30   A    
O7    Zn1   S    
C2    C38   A    
C9    C20   A    
C31   C32   A    
C8    O6    A    
C9    C11   A    
C37   H17   S    
C6    N1    A    
C12   O3    A    
C13   C15   A    
C41   H2    S    
C14   C16   A    
O3    Zn1   S    
C25   C30   A    
C15   C17   A    
C12   O2    A    
C36   C37   A    
C16   C22   A    
C28   H9    S    
C4    C5    A    
C10   C13   A    
C4    N1    A    
C7    O8    A    
C35   H15   S    
C32   C33   A    
C21   C23   A    
C38   C40   A    
C8    C11   S    
C34   H21   S    
C33   C35   A    
C18   C20   A    
C24   C34   A    
C7    C13   S    
C16   C18   A    
O6    Zn2   S    
C27   C28   A    
O5    Zn1   S    
C22   C23   A    
C14   H1    S    
C29   H10   S    
