data_mof_unit_18031.cif
_audit_creation_date              2012-12-11T14:13:08-0500
_audit_creation_method            fapswitch 2.2
_symmetry_space_group_name_H-M    P1
_symmetry_Int_Tables_number       1
_space_group_crystal_system       triclinic
_cell_length_a                    11.63218
_cell_length_b                    18.499233
_cell_length_c                    10.024994
_cell_angle_alpha                 89.801007
_cell_angle_beta                  110.879019
_cell_angle_gamma                 90.242129
_cell_volume                      2015.56475689

loop_
_atom_site_label
_atom_site_type_symbol
_atom_type_description
_atom_site_fract_x
_atom_site_fract_y
_atom_site_fract_z
_atom_type_partial_charge
C1    C     C_R   0.073846 0.646063 0.140542 0.556402
C2    C     C_R   0.925691 0.354085 0.859244 0.556581
C3    C     C_R   0.926187 0.146207 0.859603 0.547535
C4    C     C_R   0.073962 0.853858 0.140355 0.555753
C5    C     C_R   0.393654 0.456007 0.466358 -0.037350
C6    C     C_R   0.605112 0.544072 0.534136 -0.033917
C7    C     C_R   0.599886 0.961781 0.503481 -0.030400
C8    C     C_R   0.390546 0.041922 0.487532 -0.034648
C9    C     C_2   0.405165 0.925817 0.919218 -0.131368
C10   C     C_2   0.636388 0.060802 0.007973 -0.132625
C11   C     C_2   0.603757 0.429998 0.064978 -0.133309
C12   C     C_2   0.408313 0.576789 0.916807 -0.098704
C13   C     C_2   0.519675 0.950579 0.960915 -0.162377
C14   C     C_2   0.539687 0.024383 0.923261 -0.160319
C15   C     C_2   0.528932 0.470537 0.961432 -0.158052
C16   C     C_2   0.515449 0.546124 0.987222 -0.159021
C17   C     C_2   0.012016 0.922677 0.113108 -0.112736
C18   C     C_2   0.988919 0.077623 0.886606 -0.110027
C19   C     C_2   0.987900 0.423017 0.886356 -0.107185
C20   C     C_2   0.009137 0.577832 0.112144 -0.108588
C21   C     C_2   0.023978 0.963842 0.009642 -0.157217
C22   C     C_2   0.979310 0.036829 0.991775 -0.160547
C23   C     C_2   0.969471 0.465404 0.983960 -0.150866
C24   C     C_2   0.022880 0.536422 0.010410 -0.150501
C25   C     C_R   0.468005 0.646578 0.442362 0.548674
C26   C     C_R   0.531799 0.353500 0.557890 0.540064
C27   C     C_R   0.528623 0.147550 0.555416 0.545338
C28   C     C_R   0.469520 0.853355 0.442895 0.544605
C29   C     C_R   0.376601 0.645382 0.963136 0.564629
C30   C     C_R   0.625597 0.356250 0.033516 0.555957
C31   C     C_R   0.648700 0.138142 0.989651 0.564954
C32   C     C_R   0.375255 0.856243 0.965997 0.547433
C33   C     C_R   0.508946 0.425160 0.487905 -0.038999
C34   C     C_R   0.489922 0.575086 0.513112 -0.007667
C35   C     C_R   0.494857 0.925737 0.510755 -0.034579
C36   C     C_R   0.496247 0.076987 0.481383 -0.018225
C37   C     C_R   0.286589 0.412749 0.418347 -0.072943
C38   C     C_R   0.712452 0.587165 0.579632 -0.070828
C39   C     C_R   0.708801 0.923787 0.519183 -0.068825
C40   C     C_R   0.283390 0.082132 0.469705 -0.070068
C41   C     C_R   0.173769 0.439478 0.414742 -0.007185
C42   C     C_R   0.823577 0.560759 0.576858 -0.009542
C43   C     C_R   0.795584 0.952493 0.467286 -0.011150
C44   C     C_R   0.191078 0.054430 0.512708 -0.015201
C45   C     C_R   0.168390 0.509038 0.464500 -0.100449
C46   C     C_R   0.826902 0.491619 0.523992 -0.082633
C47   C     C_R   0.778547 0.022085 0.409208 -0.094945
C48   C     C_R   0.201258 0.984018 0.564476 -0.095903
C49   C     C_R   0.273093 0.553635 0.511064 0.129970
C50   C     C_R   0.722451 0.446725 0.482297 0.134734
C51   C     C_R   0.679669 0.064546 0.411742 0.124752
C52   C     C_R   0.298092 0.938971 0.563988 0.129260
C53   C     C_R   0.385820 0.529612 0.498199 0.045801
C54   C     C_R   0.612226 0.470641 0.501377 0.018944
C55   C     C_R   0.592313 0.035355 0.466226 0.040814
C56   C     C_R   0.394211 0.967345 0.520194 0.028250
Cr1   Cr    Cr6+3 0.187610 0.750000 0.979860 0.993761
Cr2   Cr    Cr6+3 0.812390 0.250000 0.020140 0.986782
Cr3   Cr    Cr6+3 0.245810 0.750000 0.341640 1.030087
Cr4   Cr    Cr6+3 0.754190 0.250000 0.658360 1.049698
Cr5   Cr    Cr6+3 0.485760 0.750000 0.219910 1.014262
Cr6   Cr    Cr6+3 0.514240 0.250000 0.780090 1.011099
H1    H     H_    0.082962 0.528262 0.471168 0.095060
H2    H     H_    0.911315 0.472567 0.514304 0.099473
H3    H     H_    0.840976 0.043132 0.360226 0.098650
H4    H     H_    0.133835 0.964070 0.606881 0.097128
H5    H     H_    0.291533 0.357510 0.385005 0.118843
H6    H     H_    0.708699 0.642195 0.614722 0.117591
H7    H     H_    0.722145 0.869379 0.562534 0.125545
H8    H     H_    0.275068 0.137263 0.430245 0.129608
H9    H     H_    0.468792 0.051302 0.835545 0.169378
H10   H     H_    0.595982 0.919094 0.031773 0.153723
H11   H     H_    0.586423 0.573634 0.073940 0.157306
H12   H     H_    0.474075 0.447626 0.858294 0.170150
H13   H     H_    0.706205 0.033460 0.095964 0.102010
H14   H     H_    0.329561 0.959122 0.852941 0.110974
H15   H     H_    0.336660 0.544870 0.840303 0.102190
H16   H     H_    0.661470 0.454809 0.164402 0.096549
H17   H     H_    0.933130 0.056225 0.062002 0.152673
H18   H     H_    0.071610 0.944667 0.940742 0.159677
H19   H     H_    0.078668 0.553977 0.949204 0.156174
H20   H     H_    0.911502 0.448205 0.042763 0.156978
H21   H     H_    0.029406 0.056845 0.812045 0.094407
H22   H     H_    0.969692 0.943268 0.185860 0.089277
H23   H     H_    0.960655 0.558746 0.180393 0.088221
H24   H     H_    0.038634 0.441628 0.820180 0.090164
O1    O     O_R   0.267710 0.668200 0.902110 -0.530411
O2    O     O_R   0.732290 0.331800 0.097890 -0.529118
O3    O     O_R   0.732290 0.168200 0.097890 -0.545278
O4    O     O_R   0.267710 0.831800 0.902110 -0.540060
O5    O     O_R   0.099480 0.674460 0.038850 -0.504426
O6    O     O_R   0.900520 0.325540 0.961150 -0.506866
O7    O     O_R   0.900520 0.174460 0.961150 -0.520126
O8    O     O_R   0.099480 0.825540 0.038850 -0.506438
O9    O     O_R   0.116720 0.669210 0.267660 -0.538398
O10   O     O_R   0.883280 0.330790 0.732340 -0.492531
O11   O     O_R   0.883280 0.169210 0.732340 -0.511493
O12   O     O_R   0.116720 0.830790 0.267660 -0.501610
O13   O     O_R   0.366710 0.675440 0.427590 -0.476037
O14   O     O_R   0.633290 0.324560 0.572410 -0.454195
O15   O     O_R   0.633290 0.175440 0.572410 -0.455792
O16   O     O_R   0.366710 0.824560 0.427590 -0.452297
O17   O     O_R   0.534870 0.669390 0.371760 -0.523019
O18   O     O_R   0.465130 0.330610 0.628240 -0.523805
O19   O     O_R   0.465130 0.169390 0.628240 -0.540956
O20   O     O_R   0.534870 0.830610 0.371760 -0.523349
O21   O     O_R   0.453080 0.674480 0.075160 -0.499134
O22   O     O_R   0.546920 0.325520 0.924840 -0.489383
O23   O     O_R   0.546920 0.174480 0.924840 -0.492520
O24   O     O_R   0.453080 0.825520 0.075160 -0.489803
O25   O     O_3   0.306390 0.750000 0.180470 -0.249030
O26   O     O_3   0.693610 0.250000 0.819530 -0.271821
C57   C     C_3   0.061219 0.392256 0.369116 -0.395970
H25   H     H_    0.076335 0.341388 0.319218 0.134383
H26   H     H_    0.037078 0.378136 0.463609 0.130310
H27   H     H_    0.982902 0.421369 0.290609 0.124726
C58   C     C_3   0.936564 0.607642 0.620500 -0.401161
H28   H     H_    0.922826 0.658564 0.671215 0.133395
H29   H     H_    0.015267 0.578248 0.697854 0.123854
H30   H     H_    0.959320 0.621707 0.525040 0.121127
C59   C     C_3   0.899480 0.905860 0.463903 -0.410064
H31   H     H_    0.956893 0.889669 0.574269 0.122755
H32   H     H_    0.862135 0.856460 0.400341 0.141124
H33   H     H_    0.957614 0.934552 0.413969 0.133776
C60   C     C_3   0.086389 0.102026 0.510835 -0.409409
H34   H     H_    0.032074 0.117951 0.399239 0.126573
H35   H     H_    0.024907 0.074207 0.557621 0.136067
H36   H     H_    0.122914 0.151467 0.574650 0.142875
N1    N     N_3   0.266843 0.618271 0.587333 -0.594120
H37   H     H_    0.225445 0.605103 0.660731 0.204780
H38   H     H_    0.202976 0.653151 0.518074 0.267381
N2    N     N_3   0.727526 0.379910 0.411424 -0.564119
H39   H     H_    0.643269 0.371724 0.328827 0.219429
H40   H     H_    0.794281 0.383069 0.364189 0.214592
N3    N     N_3   0.659490 0.134004 0.343915 -0.588811
H41   H     H_    0.598988 0.127260 0.239133 0.245869
H42   H     H_    0.742870 0.155947 0.345472 0.254873
N4    N     N_3   0.300225 0.866203 0.615416 -0.575281
H43   H     H_    0.384528 0.855874 0.696011 0.224521
H44   H     H_    0.227653 0.855842 0.650957 0.235430

loop_
_geom_bond_atom_site_label_1
_geom_bond_atom_site_label_2
_ccdc_geom_bond_type
C44   C48   A    
C23   H20   S    
C4    O12   A    
C12   C29   S    
Cr3   O13   S    
C14   H9    S    
C7    C55   A    
C19   H24   S    
C8    C56   A    
N3    H41   S    
Cr6   O19   S    
N1    H38   S    
C50   C54   A    
C40   H8    S    
Cr2   O26   S    
C5    C53   A    
Cr5   O17   S    
Cr2   O7    S    
C22   H17   S    
C38   C42   A    
C5    C37   A    
C58   H29   S    
C42   C46   A    
Cr6   O22   S    
C27   O19   A    
C15   C16   S    
C3    C18   S    
C8    C36   A    
C9    C13   D    
C59   H33   S    
C9    C32   S    
C26   O18   A    
C51   N3    S    
C10   C31   S    
C25   O13   A    
C32   O4    A    
C20   C24   D    
C11   C30   S    
C28   O20   A    
N2    H39   S    
C31   O3    A    
C5    C33   A    
C60   H36   S    
Cr3   O25   S    
C23   C24   S    
C6    C38   A    
C9    H14   S    
C43   C59   S    
C40   C44   A    
C25   C34   S    
C57   H27   S    
C35   C56   A    
C1    O5    A    
C21   C22   S    
C12   H15   S    
Cr3   O9    S    
C6    C54   A    
Cr5   O24   S    
Cr6   O18   S    
C39   H7    S    
C44   C60   S    
C59   H32   S    
Cr1   O4    S    
C16   H11   S    
C12   C16   D    
C28   C35   S    
Cr4   O11   S    
C10   C14   D    
C58   H30   S    
C25   O17   A    
C39   C43   A    
C49   N1    S    
C27   O15   A    
C17   C21   D    
C6    C34   A    
C46   H2    S    
C19   C23   D    
C24   H19   S    
Cr4   O26   S    
C11   H16   S    
C28   O16   A    
C10   H13   S    
C3    O11   A    
C26   C33   S    
C52   N4    S    
C45   C49   A    
C1    O9    A    
C20   H23   S    
C18   H21   S    
C31   O23   A    
C3    O7    A    
C2    O6    A    
Cr5   O20   S    
C59   H31   S    
C50   N2    S    
C4    O8    A    
C4    C17   S    
Cr4   O10   S    
C38   H6    S    
C11   C15   D    
Cr1   O8    S    
C60   H34   S    
C30   O2    A    
Cr4   O15   S    
Cr5   O25   S    
C57   H25   S    
C33   C54   A    
N3    H42   S    
C1    C20   S    
C7    C39   A    
Cr1   O5    S    
C30   O22   A    
C2    C19   S    
C18   C22   D    
Cr3   O16   S    
C7    C35   A    
C41   C57   S    
Cr4   O14   S    
Cr2   O2    S    
C47   C51   A    
C42   C58   S    
N4    H44   S    
C13   H10   S    
C27   C36   S    
C46   C50   A    
C17   H22   S    
C2    O10   A    
N1    H37   S    
C36   C55   A    
C58   H28   S    
Cr1   O25   S    
Cr6   O23   S    
Cr2   O6    S    
C49   C53   A    
C37   H5    S    
C21   H18   S    
C45   H1    S    
C51   C55   A    
C37   C41   A    
Cr5   O21   S    
Cr2   O3    S    
C29   O1    A    
N4    H43   S    
Cr1   O1    S    
C48   C52   A    
C15   H12   S    
Cr6   O26   S    
C34   C53   A    
N2    H40   S    
C32   O24   A    
C60   H35   S    
Cr3   O12   S    
C41   C45   A    
C29   O21   A    
C8    C40   A    
C48   H4    S    
C13   C14   S    
C43   C47   A    
C47   H3    S    
C52   C56   A    
C26   O14   A    
C57   H26   S    
