data_mof_unit_66466.cif
_audit_creation_date              2012-12-10T19:33:02-0500
_audit_creation_method            fapswitch 2.2
_symmetry_space_group_name_H-M    P1
_symmetry_Int_Tables_number       1
_space_group_crystal_system       triclinic
_cell_length_a                    21.62547
_cell_length_b                    21.634836
_cell_length_c                    21.963631
_cell_angle_alpha                 119.37003
_cell_angle_beta                  118.90383
_cell_angle_gamma                 89.87592
_cell_volume                      7458.86462463

loop_
_atom_site_label
_atom_site_type_symbol
_atom_type_description
_atom_site_fract_x
_atom_site_fract_y
_atom_site_fract_z
_atom_type_partial_charge
C1    C     C_R   0.500010 0.119953 0.500074 0.878352
C2    C     C_3   0.755110 0.339151 0.048376 -0.402891
C3    C     C_3   0.791423 0.291638 0.082241 0.284021
C4    C     C_3   0.728100 0.227731 0.050261 -0.454838
C5    C     C_3   0.679306 0.178868 0.953138 -0.391046
C6    C     C_1   0.836876 0.337388 0.173795 -0.074205
C7    C     C_1   0.662070 0.163298 0.826280 -0.101092
C8    C     C_1   0.624543 0.125684 0.751212 -0.181632
C9    C     C_R   0.437726 0.193393 0.448464 0.127265
C10   C     C_R   0.501244 0.186362 0.502080 -0.091533
C11   C     C_R   0.567546 0.245983 0.557717 -0.215295
C12   C     C_R   0.580729 0.081100 0.662197 0.902279
C13   C     C_R   0.567504 0.310960 0.558176 -0.215837
C14   C     C_R   0.501704 0.314911 0.501147 -0.096079
C15   C     C_R   0.438305 0.254460 0.446833 0.127726
C16   C     C_3   0.358212 0.225178 0.378220 -0.477826
C17   C     C_3   0.357759 0.154560 0.379461 -0.486304
C18   C     C_3   0.209879 0.762812 0.051462 -0.368570
C19   C     C_3   0.318326 0.726187 0.047722 -0.469720
C20   C     C_3   0.270489 0.679006 0.950749 -0.443219
C21   C     C_1   0.125457 0.625451 0.751077 -0.145844
C22   C     C_3   0.291133 0.793772 0.082453 0.246804
C23   C     C_R   0.500534 0.880242 0.500734 0.887721
C24   C     C_3   0.159455 0.712669 0.953753 0.068738
C25   C     C_3   0.207123 0.710969 0.917678 0.215247
C26   C     C_3   0.242286 0.791544 0.949156 -0.370840
C27   C     C_3   0.295289 0.839972 0.046855 0.093245
C28   C     C_1   0.162395 0.663700 0.826098 -0.107000
C29   C     C_1   0.337866 0.838232 0.173942 -0.102111
C30   C     C_1   0.375513 0.874961 0.248948 -0.184073
C31   C     C_R   0.437629 0.752005 0.439575 0.006562
C32   C     C_R   0.501189 0.813586 0.499096 -0.068717
C33   C     C_R   0.568052 0.807519 0.551356 -0.204839
C34   C     C_R   0.419297 0.918894 0.337857 0.908750
C35   C     C_R   0.567849 0.743480 0.551864 -0.213026
C36   C     C_R   0.501233 0.685217 0.498160 -0.174024
C37   C     C_R   0.437987 0.687855 0.438275 0.099353
C38   C     C_3   0.360936 0.674368 0.418539 0.491722
C39   C     C_3   0.360587 0.745292 0.420067 -0.516077
C40   C     C_R   0.880537 0.500594 0.501247 0.865914
C41   C     C_R   0.919058 0.419034 0.337826 0.920664
C42   C     C_R   0.119672 0.499271 0.498890 0.974109
C43   C     C_R   0.081321 0.580979 0.662146 0.904348
C44   C     C_R   0.619900 0.502207 0.499217 0.878152
C45   C     C_3   0.707393 0.290737 0.951307 -0.398792
C46   C     C_R   0.500265 0.379941 0.500225 0.885758
C47   C     C_R   0.379907 0.499989 0.500545 0.930559
C48   C     C_R   0.499297 0.620220 0.499760 0.874937
C49   C     C_R   0.758636 0.519348 0.451652 0.090717
C50   C     C_R   0.813007 0.498157 0.498209 -0.091984
C51   C     C_R   0.798980 0.468831 0.536353 -0.213199
C52   C     C_R   0.734941 0.470463 0.536680 -0.206889
C53   C     C_R   0.684071 0.498717 0.496135 -0.124289
C54   C     C_R   0.692783 0.516834 0.447100 0.137932
C55   C     C_3   0.690890 0.586907 0.447965 -0.036624
C56   C     C_3   0.789574 0.208281 0.949248 -0.445021
C57   C     C_3   0.765021 0.590210 0.456254 -0.514483
C58   C     C_R   0.250306 0.557298 0.566614 -0.112975
C59   C     C_R   0.185625 0.498081 0.499414 -0.223420
C60   C     C_R   0.188063 0.433187 0.439150 0.629757
C61   C     C_R   0.252848 0.432976 0.440126 -0.285418
C62   C     C_R   0.315099 0.496811 0.502608 -0.132633
C63   C     C_R   0.314782 0.556400 0.568608 -0.028672
C64   C     C_3   0.337534 0.637832 0.604550 -0.541875
C65   C     C_3   0.265979 0.638728 0.601579 1.182444
C66   C     C_3   0.838946 0.255776 0.046897 0.081206
C67   C     C_1   0.874421 0.374797 0.248847 -0.146045
C68   C     C_3   0.708371 0.209116 0.917732 0.319334
H1    H     H_    0.797946 0.387655 0.071943 0.170407
H2    H     H_    0.649389 0.292792 0.928116 0.176689
H3    H     H_    0.719251 0.362285 0.071499 0.176644
H4    H     H_    0.751689 0.192518 0.073859 0.172871
H5    H     H_    0.618431 0.242616 0.600882 0.157155
H6    H     H_    0.618428 0.357073 0.601563 0.156957
H7    H     H_    0.324847 0.257455 0.399770 0.205278
H8    H     H_    0.349599 0.215835 0.319825 0.213440
H9    H     H_    0.323704 0.145710 0.401155 0.217235
H10   H     H_    0.349407 0.104573 0.322015 0.196955
H11   H     H_    0.138270 0.654516 0.933370 0.139519
H12   H     H_    0.729358 0.314006 0.927789 0.168418
H13   H     H_    0.207843 0.728963 0.076028 0.148119
H14   H     H_    0.377588 0.745488 0.070866 0.183153
H15   H     H_    0.314868 0.690901 0.070257 0.195242
H16   H     H_    0.246886 0.620279 0.926820 0.182553
H17   H     H_    0.306290 0.678606 0.927456 0.199928
H18   H     H_    0.352696 0.851107 0.061479 0.116058
H19   H     H_    0.197644 0.814581 0.924875 0.190237
H20   H     H_    0.189379 0.809602 0.078079 0.194660
H21   H     H_    0.791601 0.149987 0.924910 0.157326
H22   H     H_    0.274820 0.790194 0.921996 0.167585
H23   H     H_    0.619086 0.853474 0.594475 0.152582
H24   H     H_    0.618728 0.740039 0.594958 0.157638
H25   H     H_    0.357380 0.676794 0.468461 0.058350
H26   H     H_    0.320997 0.735576 0.357762 0.233248
H27   H     H_    0.358525 0.790644 0.472653 0.181860
H28   H     H_    0.839152 0.448762 0.569657 0.162816
H29   H     H_    0.725892 0.451459 0.569957 0.151708
H30   H     H_    0.810944 0.229682 0.923914 0.177839
H31   H     H_    0.693185 0.634554 0.502803 0.135741
H32   H     H_    0.763742 0.582570 0.401704 0.208401
H33   H     H_    0.811827 0.637622 0.518499 0.193921
H34   H     H_    0.253690 0.384361 0.391089 0.179379
H35   H     H_    0.388293 0.669422 0.669311 0.202012
H36   H     H_    0.338996 0.649179 0.560986 0.180939
H37   H     H_    0.858674 0.217708 0.067591 0.143060
H38   H     H_    0.620802 0.178640 0.930822 0.180616
H39   H     H_    0.679932 0.120305 0.930082 0.172047
H40   H     H_    0.693035 0.251164 0.074508 0.186984
O1    O     O_R   0.448270 0.091610 0.500010 -0.620610
O2    O     O_R   0.908540 0.448310 0.500030 -0.630842
O3    O     O_R   0.938770 0.490290 0.377140 -0.620531
O4    O     O_R   0.938740 0.386860 0.377150 -0.605287
O5    O     O_R   0.091820 0.551690 0.499970 -0.569732
O6    O     O_R   0.091790 0.448250 0.499980 -0.597204
O7    O     O_R   0.061630 0.613140 0.622850 -0.602693
O8    O     O_R   0.061600 0.509710 0.622860 -0.630552
O9    O     O_R   0.626360 0.534710 0.569400 -0.625543
O10   O     O_R   0.557050 0.465350 0.430680 -0.630709
O11   O     O_R   0.534700 0.443070 0.569360 -0.625441
O12   O     O_R   0.551720 0.091610 0.499980 -0.623780
O13   O     O_R   0.465400 0.373710 0.430650 -0.623069
O14   O     O_R   0.443050 0.534650 0.569320 -0.616517
O15   O     O_R   0.373740 0.465290 0.430600 -0.612826
O16   O     O_R   0.534700 0.626290 0.569350 -0.625774
O17   O     O_R   0.465390 0.556930 0.430640 -0.599098
O18   O     O_R   0.509700 0.061430 0.622870 -0.614541
O19   O     O_R   0.613150 0.061430 0.622840 -0.622021
O20   O     O_R   0.448280 0.908390 0.500020 -0.620185
O21   O     O_R   0.551730 0.908390 0.499990 -0.625019
O22   O     O_R   0.386850 0.938570 0.377160 -0.616024
O23   O     O_R   0.490300 0.938570 0.377130 -0.616075
O24   O     O_R   0.908570 0.551750 0.500020 -0.629777
Zn1   Zn    Zn3+2 0.430930 0.000000 0.500020 0.965243
Zn2   Zn    Zn3+2 0.569070 0.000000 0.499980 0.957349
Zn3   Zn    Zn3+2 0.000200 0.569060 0.500000 1.024654
Zn4   Zn    Zn3+2 0.000160 0.430940 0.500000 0.993046
Zn5   Zn    Zn3+2 0.546320 0.546310 0.592620 0.956354
Zn6   Zn    Zn3+2 0.453780 0.453690 0.407380 0.983741
N1    N     N_2   0.286295 0.913497 0.088358 -0.303962
H41   H     H_    0.325692 0.950163 0.151643 0.224594
C69   C     C_3   0.215887 0.928287 0.055988 -0.761176
H42   H     H_    0.218002 0.980038 0.107113 0.229087
H43   H     H_    0.169536 0.882345 0.030326 0.263569
H44   H     H_    0.205251 0.937142 0.006544 0.243033
N2    N     N_2   0.096208 0.739077 0.922999 -0.310189
H45   H     H_    0.074871 0.728571 0.864360 0.238108
C70   C     C_3   0.038010 0.722021 0.932545 -0.827380
H46   H     H_    0.996754 0.750832 0.915092 0.248362
H47   H     H_    0.060912 0.741363 0.998515 0.251953
H48   H     H_    0.009428 0.660981 0.890812 0.239829
F1    F     F_    0.312014 0.611211 0.339034 -0.626723
N3    N     N_2   0.633370 0.573547 0.367866 -0.289984
H49   H     H_    0.646505 0.612908 0.358877 0.238173
C71   C     C_3   0.558658 0.560811 0.348139 -0.711562
H50   H     H_    0.520392 0.555687 0.288228 0.230007
H51   H     H_    0.555802 0.608244 0.398335 0.234020
H52   H     H_    0.540079 0.507988 0.339656 0.271503
F2    F     F_    0.126823 0.372478 0.376785 -0.662920
F3    F     F_    0.277078 0.680433 0.679996 -0.673388
F4    F     F_    0.215973 0.654666 0.545889 -0.651382
N4    N     N_2   0.903174 0.312278 0.079343 -0.293769
H53   H     H_    0.890993 0.346379 0.057651 0.234907
C72   C     C_3   0.965418 0.287013 0.080183 -0.752458
H54   H     H_    0.012216 0.335220 0.110120 0.255141
H55   H     H_    0.949550 0.245495 0.015143 0.226996
H56   H     H_    0.984546 0.261817 0.117100 0.258842

loop_
_geom_bond_atom_site_label_1
_geom_bond_atom_site_label_2
_ccdc_geom_bond_type
C64   H35   S    
C22   C29   S    
C16   H7    S    
C11   C13   A    
O2    Zn4   S    
C70   H46   S    
O19   Zn2   S    
C56   H30   S    
C65   F3    S    
C3    C6    S    
C47   C62   S    
N4    H53   S    
C7    C8    T    
C14   C46   S    
C12   O19   A    
C53   C54   A    
C25   C28   S    
C4    H40   S    
O15   Zn6   S    
C26   C27   S    
C62   C63   A    
C18   C24   S    
C36   C37   A    
C72   H55   S    
C60   F2    S    
C24   N2    S    
C69   H43   S    
C38   C39   S    
C40   C50   S    
C12   O18   A    
C20   C25   S    
C49   C54   A    
C52   H29   S    
C18   H13   S    
C49   C57   S    
C23   O21   A    
C58   C65   S    
C1    O1    A    
C48   O17   A    
C21   C43   S    
C44   C53   S    
C42   O6    A    
C72   H54   S    
O18   Zn1   S    
C26   H19   S    
C41   O4    A    
C46   O13   A    
C36   C48   S    
C19   C22   S    
C2    H1    S    
C9    C10   A    
C71   H51   S    
C51   H28   S    
C43   O7    A    
C35   H24   S    
O23   Zn2   S    
C40   O24   A    
C59   C60   A    
C16   H8    S    
C13   C14   A    
O20   Zn1   S    
O4    Zn4   S    
C5    C68   S    
C19   H15   S    
N4    C72   S    
N2    H45   S    
C5    H38   S    
C2    C45   S    
C15   C16   S    
N2    C70   S    
O1    Zn1   S    
C51   C52   A    
O11   Zn5   S    
O16   Zn5   S    
C55   N3    S    
C70   H48   S    
C24   C25   S    
C71   H52   S    
C41   C67   S    
C11   H5    S    
C69   H44   S    
C30   C34   S    
C38   H25   S    
C7    C68   S    
C47   O14   A    
C40   O2    A    
C25   C26   S    
C56   C68   S    
C57   H32   S    
C27   N1    S    
C31   C37   A    
C66   N4    S    
C60   C61   A    
C35   C36   A    
O13   Zn6   S    
C27   H18   S    
C39   H26   S    
C37   C38   S    
C43   O8    A    
C24   H11   S    
C47   O15   A    
C31   C32   A    
C44   O10   A    
C8    C12   S    
C20   H17   S    
C72   H56   S    
C45   C68   S    
C17   H9    S    
C50   C51   A    
C13   H6    S    
C39   H27   S    
C71   H50   S    
C9    C17   S    
C56   H21   S    
C21   C28   T    
N3    C71   S    
C34   O23   A    
C22   C27   S    
C55   C57   S    
O5    Zn3   S    
C3    C66   S    
C66   H37   S    
C3    C4    S    
C19   H14   S    
C38   F1    S    
C4    H4    S    
C42   O5    A    
C52   C53   A    
C5    H39   S    
C58   C63   A    
C64   H36   S    
C54   C55   S    
C6    C67   T    
C70   H47   S    
C45   H2    S    
C18   C22   S    
O9    Zn5   S    
C1    C10   S    
O14   Zn5   S    
C4    C5    S    
C42   C59   S    
C48   O16   A    
N1    H41   S    
O8    Zn4   S    
O17   Zn6   S    
C26   H22   S    
C57   H33   S    
C32   C33   A    
C19   C20   S    
C20   H16   S    
C2    C3    S    
C58   C59   A    
C69   H42   S    
C23   C32   S    
C65   F4    S    
N1    C69   S    
O3    Zn3   S    
C16   C17   S    
O7    Zn3   S    
C44   O9    A    
O24   Zn3   S    
C56   C66   S    
C64   C65   S    
C17   H10   S    
C33   C35   A    
C31   C39   S    
C46   O11   A    
C61   H34   S    
C45   H12   S    
O12   Zn2   S    
C9    C15   A    
C61   C62   A    
C18   H20   S    
O21   Zn2   S    
C10   C11   A    
C29   C30   T    
C63   C64   S    
O22   Zn1   S    
N3    H49   S    
C34   O22   A    
C49   C50   A    
C41   O3    A    
C55   H31   S    
O6    Zn4   S    
C14   C15   A    
O10   Zn6   S    
C1    O12   A    
C2    H3    S    
C23   O20   A    
C33   H23   S    
