data_mof_unit_31029.cif
_audit_creation_date              2012-10-26T18:29:54-0400
_audit_creation_method            fapswitch 2.2
_symmetry_space_group_name_H-M    P1
_symmetry_Int_Tables_number       1
_space_group_crystal_system       triclinic
_cell_length_a                    10.82271
_cell_length_b                    12.998573
_cell_length_c                    11.710196
_cell_angle_alpha                 100.016876
_cell_angle_beta                  94.409186
_cell_angle_gamma                 92.445713
_cell_volume                      1614.83753949

loop_
_atom_site_label
_atom_site_type_symbol
_atom_type_description
_atom_site_fract_x
_atom_site_fract_y
_atom_site_fract_z
_atom_type_partial_charge
C1    C     C_R   0.499838 0.299192 0.478512 0.559818
C2    C     C_R   0.477757 0.031722 0.556186 0.023269
C3    C     C_R   0.505067 0.969640 0.450483 0.011056
C4    C     C_R   0.259885 0.497578 0.499534 0.624387
C5    C     C_R   0.506354 0.861955 0.441039 -0.195284
C6    C     C_R   0.456925 0.875229 0.642813 0.162179
C7    C     C_R   0.452993 0.984313 0.652631 0.139493
C8    C     C_R   0.371235 0.407843 0.019692 0.209979
C9    C     C_R   0.391504 0.408887 0.141130 0.289199
C10   C     C_R   0.549382 0.544757 0.157719 0.000379
C11   C     C_R   0.541211 0.537040 0.034536 -0.079127
C12   C     C_3   0.879534 0.510861 0.504730 0.029695
C13   C     C_R   0.454429 0.464518 0.964202 0.012506
C14   C     C_R   0.450725 0.454067 0.840035 0.425018
C15   C     C_R   0.602619 0.593771 0.858204 -0.013503
C16   C     C_R   0.493111 0.700443 0.521884 0.529758
C17   C     C_R   0.615046 0.602336 0.980119 -0.194138
C18   C     C_R   0.740596 0.505515 0.501391 0.549299
C19   C     C_3   0.084422 0.509009 0.628395 0.128274
C20   C     C_3   0.941236 0.513888 0.631282 0.055191
C21   C     C_3   0.078381 0.598846 0.452412 -0.041921
C22   C     C_3   0.056128 0.401198 0.421487 0.071322
C23   C     C_3   0.934145 0.605189 0.451917 0.023492
C24   C     C_3   0.122351 0.499690 0.499906 0.073621
C25   C     C_3   0.144931 0.706157 0.310885 -0.298027
C26   C     C_3   0.315393 0.777635 0.743199 -0.280588
C27   C     C_3   0.297149 0.067428 0.768855 -0.305627
C28   C     C_3   0.331841 0.222636 0.137639 -0.314930
C29   C     C_3   0.979147 0.690185 0.772086 -0.309513
C30   C     C_3   0.781645 0.739137 0.510817 -0.277428
C31   C     C_3   0.914294 0.406610 0.428136 -0.284656
C32   C     C_R   0.484176 0.814069 0.536058 -0.021480
C33   C     C_R   0.501772 0.185939 0.467160 0.002241
C34   C     C_R   0.532486 0.016155 0.355346 -0.135873
C35   C     C_R   0.532230 0.124099 0.364157 -0.150616
C36   C     C_R   0.475410 0.139764 0.562382 -0.118296
Cu1   Cu    Cu3+1 0.509350 0.507730 0.615930 1.004511
Cu2   Cu    Cu3+1 0.490650 0.492270 0.384070 0.935459
H1    H     H_    0.133086 0.581592 0.676863 0.142694
H2    H     H_    0.615095 0.601365 0.211805 0.118606
H3    H     H_    0.906019 0.440151 0.657211 0.123412
H4    H     H_    0.124951 0.666475 0.514504 0.112533
H5    H     H_    0.077391 0.400170 0.329760 0.128073
H6    H     H_    0.877171 0.338416 0.463468 0.136716
H7    H     H_    0.070374 0.552706 0.268684 0.240016
H8    H     H_    0.185355 0.698699 0.225703 0.150406
H9    H     H_    0.213538 0.751727 0.378300 0.154621
H10   H     H_    0.058174 0.748397 0.305988 0.123822
H11   H     H_    0.472420 0.870008 0.821297 0.263803
H12   H     H_    0.869665 0.399336 0.337983 0.105047
H13   H     H_    0.326009 0.700239 0.769396 0.177224
H14   H     H_    0.262542 0.765837 0.656442 0.114086
H15   H     H_    0.261455 0.825748 0.807438 0.112155
H16   H     H_    0.487072 0.108318 0.791856 0.236063
H17   H     H_    0.283834 0.106617 0.858805 0.154659
H18   H     H_    0.236967 0.994195 0.748313 0.153877
H19   H     H_    0.268352 0.120068 0.707669 0.165734
H20   H     H_    0.387092 0.311535 0.797351 0.318011
H21   H     H_    0.078810 0.363161 0.656241 0.365562
H22   H     H_    0.201869 0.347085 0.008218 0.338629
H23   H     H_    0.892898 0.596728 0.360362 0.135065
H24   H     H_    0.299046 0.345375 0.271831 0.306636
H25   H     H_    0.353366 0.176765 0.207240 0.146239
H26   H     H_    0.404947 0.211571 0.075569 0.153115
H27   H     H_    0.240989 0.191253 0.091674 0.141043
H28   H     H_    0.844577 0.573642 0.774910 0.251932
H29   H     H_    0.921195 0.750391 0.817078 0.134030
H30   H     H_    0.028156 0.725926 0.707847 0.158027
H31   H     H_    0.047173 0.667974 0.838269 0.135639
H32   H     H_    0.965973 0.768247 0.495310 0.240390
H33   H     H_    0.779517 0.825778 0.531404 0.119906
H34   H     H_    0.528087 0.815412 0.359590 0.126905
H35   H     H_    0.735519 0.708281 0.579744 0.204423
H36   H     H_    0.732261 0.711637 0.423439 0.142116
H37   H     H_    0.068210 0.250416 0.390634 0.317108
H38   H     H_    0.555245 0.969151 0.274639 0.102667
H39   H     H_    0.556801 0.159191 0.291032 0.124270
H40   H     H_    0.452550 0.189052 0.640962 0.141334
H41   H     H_    0.656744 0.647102 0.817886 0.134022
H42   H     H_    0.680495 0.660956 0.031507 0.097177
N1    N     N_R   0.523430 0.519360 0.790130 -0.223601
N2    N     N_R   0.476570 0.480640 0.209880 -0.238929
N3    N     N_2   0.118605 0.603025 0.336872 -0.509702
N4    N     N_2   0.437120 0.827981 0.741688 -0.481276
N5    N     N_2   0.426226 0.044650 0.760817 -0.540362
N6    N     N_2   0.323470 0.331911 0.188400 -0.517684
N7    N     N_2   0.899860 0.599661 0.716710 -0.484877
N8    N     N_2   0.908172 0.708953 0.513340 -0.527306
O1    O     O_R   0.506640 0.354460 0.582000 -0.468485
O2    O     O_3   0.129943 0.428898 0.684713 -0.609815
O3    O     O_3   0.267611 0.355341 0.955623 -0.699261
O4    O     O_3   0.098439 0.308956 0.454326 -0.717148
O5    O     O_R   0.490840 0.341410 0.386200 -0.508819
O6    O     O_R   0.325590 0.506510 0.597900 -0.431990
O7    O     O_R   0.309790 0.493450 0.402100 -0.502581
O8    O     O_R   0.509160 0.658590 0.613800 -0.493491
O9    O     O_R   0.493360 0.645540 0.418000 -0.522762
O10   O     O_R   0.690210 0.506550 0.597900 -0.512487
O11   O     O_R   0.674410 0.493490 0.402100 -0.525488
O12   O     O_3   0.376866 0.377564 0.767185 -0.570869

loop_
_geom_bond_atom_site_label_1
_geom_bond_atom_site_label_2
_ccdc_geom_bond_type
C6    C32   A    
C8    C13   A    
C2    C7    A    
H32   N8    S    
C30   H33   S    
C1    C33   S    
C15   N1    A    
H24   N6    S    
C12   C23   S    
H11   N4    S    
C5    H34   S    
C4    C24   S    
C27   H17   S    
C16   O9    A    
C4    O7    A    
C20   N7    S    
C33   C36   A    
C10   H2    S    
C34   C35   A    
C27   N5    S    
C29   H29   S    
C15   H41   S    
C19   C20   S    
C8    C9    A    
Cu2   O7    S    
C26   N4    S    
C25   H9    S    
C9    N2    A    
C5    C32   A    
C13   C14   A    
Cu2   N2    S    
Cu1   N1    S    
H7    N3    S    
Cu2   O9    S    
Cu1   O10   S    
C20   H3    S    
C29   H31   S    
C16   O8    A    
C6    N4    S    
C22   C31   S    
C21   N3    S    
H20   O12   S    
C31   H6    S    
H28   N7    S    
C30   H35   S    
C27   H18   S    
C3    C34   A    
C35   H39   S    
C17   H42   S    
Cu1   O8    S    
H21   O2    S    
Cu1   Cu2   S    
C26   H14   S    
C9    N6    S    
C29   H30   S    
C22   H5    S    
C12   C20   S    
C8    O3    S    
C27   H19   S    
C25   H10   S    
C19   H1    S    
H37   O4    S    
C4    O6    A    
C28   H26   S    
C23   N8    S    
C21   C23   S    
C12   C31   S    
C28   N6    S    
C22   C24   S    
C18   O11   A    
C31   H12   S    
C30   N8    S    
C26   H15   S    
H22   O3    S    
C2    C36   A    
C15   C17   A    
C11   C17   A    
C1    O1    A    
C19   C24   S    
Cu2   O11   S    
C3    C5    A    
H16   N5    S    
C14   O12   S    
C6    C7    A    
C16   C32   S    
Cu1   O1    S    
C28   H27   S    
C19   O2    S    
C36   H40   S    
C26   H13   S    
C11   C13   A    
C7    N5    S    
C30   H36   S    
Cu2   O5    S    
C33   C35   A    
C10   N2    A    
Cu1   O6    S    
C2    C3    A    
C29   N7    S    
C10   C11   A    
C21   H4    S    
C28   H25   S    
C23   H23   S    
C1    O5    A    
C21   C24   S    
C12   C18   S    
C25   N3    S    
C22   O4    S    
C18   O10   A    
C14   N1    A    
C25   H8    S    
C34   H38   S    
