data_mof_unit_13968.cif
_audit_creation_date              2012-10-26T20:38:25-0400
_audit_creation_method            fapswitch 2.2
_symmetry_space_group_name_H-M    P1
_symmetry_Int_Tables_number       1
_space_group_crystal_system       triclinic
_cell_length_a                    15.916801
_cell_length_b                    11.071549
_cell_length_c                    9.890472
_cell_angle_alpha                 112.375541
_cell_angle_beta                  98.306394
_cell_angle_gamma                 90.997739
_cell_volume                      1589.79843247

loop_
_atom_site_label
_atom_site_type_symbol
_atom_type_description
_atom_site_fract_x
_atom_site_fract_y
_atom_site_fract_z
_atom_type_partial_charge
C1    C     C_R   0.493077 0.253204 0.438647 0.540327
C2    C     C_3   0.025830 0.593277 0.457534 0.100518
C3    C     C_3   0.018662 0.383771 0.407427 0.101147
C4    C     C_3   0.981337 0.616226 0.592571 0.101133
C5    C     C_1   0.251139 0.500275 0.503015 0.001821
C6    C     C_1   0.748861 0.499724 0.496985 0.001821
C7    C     C_3   0.039479 0.523146 0.636929 0.102165
C8    C     C_3   0.960522 0.476852 0.363069 0.102185
C9    C     C_3   0.084685 0.500205 0.501947 0.054084
C10   C     C_3   0.915315 0.499793 0.498051 0.054095
C11   C     C_1   0.175981 0.500328 0.503224 0.001150
C12   C     C_R   0.506931 0.746796 0.561352 0.540323
C13   C     C_1   0.824019 0.499671 0.496775 0.001163
C14   C     C_2   0.486378 0.111336 0.399960 0.030218
C15   C     C_2   0.513654 0.888663 0.600034 0.030218
C16   C     C_2   0.545014 0.977820 0.756718 0.572848
C17   C     C_2   0.455023 0.022173 0.243272 0.572829
C18   C     C_2   0.508211 0.068201 0.509185 -0.143802
C19   C     C_2   0.491845 0.931798 0.490803 -0.143821
C20   C     C_2   0.507283 0.509430 0.080888 0.106707
C21   C     C_2   0.492687 0.490618 0.919124 0.106726
C22   C     C_R   0.340161 0.499985 0.500967 0.554930
C23   C     C_R   0.659839 0.500015 0.499033 0.554919
C24   C     C_3   0.974170 0.406720 0.542463 0.100526
Cu1   Cu    Cu3+1 0.514700 0.521810 0.644910 0.992038
Cu2   Cu    Cu3+1 0.485300 0.478190 0.355090 0.992011
H1    H     H_    0.462660 0.862168 0.382425 0.189996
H2    H     H_    0.903835 0.238265 0.501310 0.244303
H3    H     H_    0.000443 0.744513 0.393915 0.247450
H4    H     H_    0.096197 0.761699 0.498658 0.244284
H5    H     H_    0.964955 0.445397 0.148388 0.246128
H6    H     H_    0.884741 0.532422 0.217133 0.240886
H7    H     H_    0.035038 0.554646 0.851607 0.246120
H8    H     H_    0.115227 0.467540 0.782870 0.240875
H9    H     H_    0.530815 0.142126 0.930927 0.351433
H10   H     H_    0.469263 0.857901 0.069042 0.351467
H11   H     H_    0.591674 0.733886 0.946315 0.292568
H12   H     H_    0.537403 0.137832 0.617560 0.190022
H13   H     H_    0.658670 0.614362 0.917492 0.260276
H14   H     H_    0.341399 0.385310 0.082438 0.260316
H15   H     H_    0.408545 0.265996 0.053656 0.292581
H16   H     H_    0.442400 0.419096 0.844332 0.164407
H17   H     H_    0.557530 0.581016 0.155698 0.164425
H18   H     H_    0.981093 0.200676 0.254652 0.250280
H19   H     H_    0.066755 0.271513 0.224875 0.243190
H20   H     H_    0.018906 0.799345 0.745289 0.250272
H21   H     H_    0.933277 0.728500 0.775160 0.243190
H22   H     H_    0.999560 0.255526 0.606160 0.247432
N1    N     N_2   0.463210 0.445420 0.137360 -0.194452
N2    N     N_3   0.397942 0.354850 0.042622 -0.538243
N3    N     N_2   0.536790 0.554580 0.862640 -0.194398
N4    N     N_3   0.038790 0.256401 0.307025 -0.611152
N5    N     N_3   0.961210 0.743598 0.692969 -0.611162
N6    N     N_3   0.946349 0.305306 0.589808 -0.614694
N7    N     N_3   0.053647 0.694692 0.410187 -0.614691
N8    N     N_3   0.917727 0.450692 0.213219 -0.609320
N9    N     N_3   0.082272 0.549300 0.786777 -0.609300
N10   N     N_3   0.602154 0.644993 0.957334 -0.538268
O1    O     O_R   0.507840 0.332340 0.577400 -0.517463
O2    O     O_R   0.503663 0.090480 0.824196 -0.701678
O3    O     O_2   0.394715 0.050039 0.171877 -0.498339
O4    O     O_R   0.496405 0.909551 0.175779 -0.701661
O5    O     O_R   0.492160 0.667660 0.422600 -0.517504
O6    O     O_R   0.483020 0.295500 0.332650 -0.467292
O7    O     O_R   0.516980 0.704500 0.667350 -0.467238
O8    O     O_R   0.391490 0.518400 0.622350 -0.501134
O9    O     O_R   0.608510 0.481600 0.377650 -0.501111
O10   O     O_R   0.366660 0.481570 0.377600 -0.491357
O11   O     O_R   0.633340 0.518430 0.622400 -0.491389
O12   O     O_2   0.605299 0.949921 0.828122 -0.498336

loop_
_geom_bond_atom_site_label_1
_geom_bond_atom_site_label_2
_ccdc_geom_bond_type
C22   O10   A    
C2    C9    S    
H8    N9    S    
C2    C4    S    
C3    N4    S    
Cu1   N3    S    
C20   N1    D    
C3    C9    S    
Cu2   O6    S    
C4    N5    S    
C19   H1    S    
C12   O7    A    
C23   O11   A    
H11   N10   S    
C12   C15   S    
H21   N5    S    
Cu2   O10   S    
Cu1   O1    S    
H18   N4    S    
C18   H12   S    
C16   O12   D    
N3    N10   S    
C6    C13   T    
H22   N6    S    
C9    C11   S    
C14   C17   S    
C8    N8    S    
C3    C24   S    
C4    C7    S    
H14   N2    S    
Cu2   O9    S    
H20   N5    S    
Cu1   O8    S    
H7    N9    S    
C5    C11   T    
H5    N8    S    
C2    N7    S    
C1    O1    A    
C16   O2    S    
C17   O4    S    
H10   O4    S    
C3    C8    S    
Cu1   O11   S    
C7    N9    S    
C6    C23   S    
C4    C10   S    
C7    C24   S    
C1    O6    A    
C7    C9    S    
H15   N2    S    
C21   N3    D    
C20   H17   S    
Cu1   O7    S    
C20   C21   S    
C8    C10   S    
C18   C19   S    
H4    N7    S    
Cu2   N1    S    
C23   O9    A    
N1    N2    S    
C12   O5    A    
H2    N6    S    
C22   O8    A    
C10   C24   S    
Cu2   O5    S    
C1    C14   S    
H3    N7    S    
H19   N4    S    
C17   O3    D    
Cu1   Cu2   S    
C15   C19   D    
H13   N10   S    
C24   N6    S    
C14   C18   D    
H6    N8    S    
C15   C16   S    
C2    C8    S    
C5    C22   S    
C21   H16   S    
H9    O2    S    
C10   C13   S    
