data_mof_unit_34757.cif
_audit_creation_date              2013-03-05T16:02:40-0500
_audit_creation_method            fapswitch 2.2
_symmetry_space_group_name_H-M    P1
_symmetry_Int_Tables_number       1
_space_group_crystal_system       triclinic
_cell_length_a                    6.952412
_cell_length_b                    17.117641
_cell_length_c                    19.024199
_cell_angle_alpha                 105.913785
_cell_angle_beta                  89.982539
_cell_angle_gamma                 90.714866
_cell_volume                      2177.09912259

loop_
_atom_site_label
_atom_site_type_symbol
_atom_site_description
_atom_site_fract_x
_atom_site_fract_y
_atom_site_fract_z
_atom_type_partial_charge
O1    O     O_R   0.494360 0.415680 0.413760 -0.622634
O2    O     O_R   0.818810 0.432910 0.557230 -0.548327
O3    O     O_R   0.994290 0.584320 0.586240 -0.573329
C1    C     C_R   0.649953 0.415579 0.580296 0.981592
O4    O     O_R   0.823740 0.406440 0.412520 -0.594791
O5    O     O_R   0.999250 0.557660 0.440500 -0.550947
C2    C     C_R   0.654766 0.384796 0.384606 0.869007
O6    O     O_R   0.489400 0.442340 0.559500 -0.540285
O7    O     O_3   0.662500 0.549650 0.509350 -0.230473
V1    V     V_3+5 0.935340 0.490790 0.498270 1.275613
O8    O     O_R   0.329270 0.567090 0.442770 -0.554502
C3    C     C_R   0.161570 0.580893 0.416851 1.002627
O9    O     O_R   0.324340 0.593560 0.587480 -0.542095
C4    C     C_R   0.156764 0.619959 0.613174 1.048711
V2    V     V_3+5 0.435970 0.509210 0.501730 1.289376
O10   O     O_3   0.158940 0.450350 0.490650 -0.266970
C5    C     C_R   0.094885 0.589773 0.756858 0.285598
C6    C     C_R   0.016420 0.573735 0.820447 -0.318074
C7    C     C_R   0.958802 0.638814 0.879124 0.296841
C8    C     C_R   0.994298 0.718215 0.876470 -0.283203
C9    C     C_R   0.068498 0.736074 0.813513 0.082737
C10   C     C_R   0.103163 0.671188 0.749904 -0.020412
C11   C     C_R   0.111017 0.817639 0.814657 -0.213598
C12   C     C_R   0.168556 0.836635 0.749443 0.020050
C13   C     C_R   0.199937 0.772386 0.683856 -0.048950
C14   C     C_R   0.154465 0.688995 0.682816 -0.275347
C15   C     C_R   0.195899 0.919240 0.747758 -0.073805
C16   C     C_R   0.296992 0.936459 0.690806 -0.298425
C17   C     C_R   0.337024 0.876119 0.627775 -0.139742
C18   C     C_R   0.276904 0.795164 0.622039 0.330633
H1    H     H_    0.957503 0.766196 0.924423 0.162783
H2    H     H_    0.327125 0.999257 0.692230 0.169347
C19   C     C_1   0.111365 0.861604 0.130707 -0.152374
C20   C     C_1   0.118973 0.818336 0.173689 0.172815
C21   C     C_1   0.128709 0.767370 0.224930 0.079185
C22   C     C_1   0.137044 0.724532 0.268269 0.056815
C23   C     C_1   0.146695 0.673926 0.319813 0.147079
C24   C     C_1   0.154149 0.631533 0.363536 -0.122683
C25   C     C_1   0.641434 0.362864 0.631691 -0.137874
C26   C     C_1   0.636880 0.319434 0.674570 0.196106
C27   C     C_1   0.633130 0.268076 0.725520 0.069685
C28   C     C_1   0.630344 0.224835 0.768578 0.049079
C29   C     C_1   0.626710 0.173732 0.819742 0.143089
C30   C     C_1   0.622470 0.130910 0.863134 -0.117361
C31   C     C_R   0.676233 0.419078 0.241926 -0.168222
C32   C     C_R   0.740470 0.434277 0.177878 -0.263938
C33   C     C_R   0.750861 0.372610 0.113924 0.312989
C34   C     C_R   0.697616 0.292793 0.113738 0.189943
C35   C     C_R   0.657262 0.271642 0.180279 -0.044724
C36   C     C_R   0.654463 0.337007 0.246472 0.025570
C37   C     C_R   0.622245 0.188742 0.183160 -0.261477
C38   C     C_R   0.612681 0.172270 0.253473 -0.049439
C39   C     C_R   0.640359 0.237077 0.317974 0.086338
C40   C     C_R   0.644264 0.318817 0.315032 -0.212559
C41   C     C_R   0.581455 0.092502 0.262327 0.316648
C42   C     C_R   0.611869 0.076183 0.330643 -0.236612
C43   C     C_R   0.658413 0.140343 0.392421 -0.110111
C44   C     C_R   0.664458 0.219496 0.385822 -0.140518
H3    H     H_    0.765027 0.496301 0.175718 0.212097
H4    H     H_    0.690469 0.267826 0.435176 0.134620
O11   O     O_R   0.775690 0.057750 0.940570 -0.562786
O12   O     O_R   0.441200 0.093570 0.087490 -0.541645
O13   O     O_R   0.265840 0.942320 0.059480 -0.529023
C45   C     C_R   0.611110 0.118770 0.114259 1.048498
O14   O     O_R   0.446270 0.067110 0.942790 -0.534547
O15   O     O_R   0.270950 0.915660 0.913750 -0.596792
C46   C     C_R   0.614298 0.079821 0.916039 1.020378
O16   O     O_R   0.770580 0.084400 0.086300 -0.570933
O17   O     O_3   0.602640 0.950400 0.990690 -0.272768
V3    V     V_3+5 0.329740 0.009200 0.001730 1.309776
O18   O     O_R   0.940900 0.906360 0.912450 -0.621736
C47   C     C_R   0.108532 0.882494 0.885742 0.860908
O19   O     O_R   0.935830 0.932820 0.057160 -0.564615
C48   C     C_R   0.103868 0.914598 0.079456 1.002107
V4    V     V_3+5 0.829130 0.990680 0.998180 1.258879
O20   O     O_3   0.106100 0.049590 0.009310 -0.229512
C49   C     C_2   0.427145 0.903434 0.567164 0.655366
H5    H     H_    0.490088 0.964045 0.578712 -0.049807
O21   O     O_2   0.429250 0.861082 0.504116 -0.500316
C50   C     C_2   0.609606 0.491520 0.298144 0.575327
H6    H     H_    0.469780 0.490043 0.322455 -0.005425
O22   O     O_2   0.705596 0.554162 0.314841 -0.578135
N1    N     N_R   0.802097 0.393345 0.047839 0.272082
O23   O     O_R   0.936408 0.447460 0.049427 -0.345938
O24   O     O_R   0.696801 0.368341 0.989234 -0.284887
N2    N     N_R   0.679293 0.235534 0.044584 0.200601
O25   O     O_R   0.832973 0.217229 0.004689 -0.375767
O26   O     O_R   0.511426 0.228792 0.013199 -0.391306
N3    N     N_R   0.492199 0.030397 0.205801 0.227212
O27   O     O_R   0.305397 0.027926 0.202843 -0.412177
O28   O     O_R   0.589799 0.967279 0.170838 -0.394347
C51   C     C_2   0.595431 0.991756 0.337633 0.635709
H7    H     H_    0.697255 0.970522 0.371250 -0.012783
O29   O     O_2   0.466370 0.945702 0.307483 -0.516428
N4    N     N_R   0.205586 0.527328 0.708757 0.225407
O30   O     O_R   0.121737 0.466920 0.661578 -0.356286
O31   O     O_R   0.391840 0.528648 0.715533 -0.419321
C52   C     C_2   0.013424 0.490297 0.830067 0.736579
H8    H     H_    0.029502 0.481835 0.884236 0.077544
O32   O     O_2   0.987907 0.430385 0.778588 -0.546945
N5    N     N_R   0.868618 0.625382 0.943070 0.242408
O33   O     O_R   0.736239 0.569366 0.936438 -0.347929
O34   O     O_R   0.899851 0.675692 0.007140 -0.390298
C53   C     C_2   0.095160 0.989029 0.797177 0.544382
H9    H     H_    0.951933 0.980574 0.816391 -0.012433
O35   O     O_2   0.167713 0.057000 0.814505 -0.578764
N6    N     N_R   0.279706 0.739364 0.551631 0.205771
O36   O     O_R   0.132911 0.739143 0.509319 -0.431846
O37   O     O_R   0.444599 0.712836 0.523012 -0.345846
C54   C     C_2   0.687296 0.126986 0.465898 0.534784
H10   H     H_    0.649060 0.069572 0.476186 -0.004060
O38   O     O_2   0.754225 0.180606 0.516534 -0.601487

loop_
_geom_bond_atom_site_label_1
_geom_bond_atom_site_label_2
_geom_bond_distance
_ccdc_geom_bond_type
C41   C42   1.418649 A    
V4    O20   2.145782 S    
N5    O33   1.301570 A    
C32   H3    1.085105 S    
O19   V4    1.848918 S    
O19   C48   1.313017 A    
N4    O30   1.300370 A    
C12   C15   1.433420 A    
C1    O6    1.313294 A    
C53   O35   1.221468 D    
C39   C40   1.415490 A    
O11   V4    1.832545 S    
O16   V4    2.022569 S    
C17   C18   1.417605 A    
C45   O16   1.304824 A    
C16   C17   1.382007 A    
C6    C7    1.405878 A    
O5    C3    1.311763 A    
C18   N6    1.416233 S    
N2    O26   1.300448 A    
C44   H4    1.081260 S    
O14   V3    1.866877 S    
C15   C53   1.485306 S    
C42   C43   1.405603 A    
O12   V3    2.007192 S    
C20   C21   1.477772 S    
C27   C28   1.245535 T    
C54   H10   1.083411 S    
O12   C45   1.306918 A    
O8    V2    1.848874 S    
O15   C47   1.303757 A    
N1    O23   1.301547 A    
O14   C46   1.313414 A    
N6    O36   1.299332 A    
C1    C25   1.502069 S    
C5    N4    1.433874 S    
C33   N1    1.440393 S    
N3    O28   1.301579 A    
O7    V1    2.142142 S    
C38   C41   1.434794 A    
C49   H5    1.086250 S    
N5    O34   1.301662 A    
O9    C4    1.300831 A    
N6    O37   1.301501 A    
C53   H9    1.082268 S    
C19   C20   1.246254 T    
C49   O21   1.219774 D    
C37   C38   1.442066 A    
C33   C34   1.410148 A    
C16   H2    1.085621 S    
C12   C13   1.437800 A    
C50   O22   1.221294 D    
C25   C26   1.245408 T    
O4    C2    1.296526 A    
N2    O25   1.301244 A    
C35   C37   1.452579 A    
C13   C14   1.452995 A    
C31   C32   1.386492 A    
C21   C22   1.246397 T    
O2    C1    1.311927 A    
C29   C30   1.245345 T    
C23   C24   1.246254 T    
O11   C46   1.314209 A    
C43   C54   1.491020 S    
O13   V3    1.841674 S    
C42   C51   1.490151 S    
C11   C12   1.422204 A    
C51   O29   1.220773 D    
C5    C6    1.419295 A    
C36   C40   1.423133 A    
C4    C14   1.514584 S    
O3    C4    1.312411 A    
O1    V2    2.018742 S    
C34   C35   1.435554 A    
N1    O24   1.301202 A    
C35   C36   1.437336 A    
O6    V2    1.832162 S    
C52   O32   1.219489 D    
C9    C11   1.417844 A    
V3    O20   1.699510 S    
C34   N2    1.413362 S    
C28   C29   1.476357 S    
O2    V1    1.866807 S    
C38   C39   1.421877 A    
C13   C18   1.437805 A    
C32   C33   1.377448 A    
C26   C27   1.476403 S    
O1    C2    1.297816 A    
C11   C47   1.496241 S    
C37   C45   1.515117 S    
C50   H6    1.079395 S    
O5    V1    1.841849 S    
C39   C44   1.413882 A    
N4    O31   1.300658 A    
O13   C48   1.312635 A    
C5    C10   1.436014 A    
C7    C8    1.392847 A    
O9    V2    2.020849 S    
O7    V2    1.702503 S    
O4    V1    2.007271 S    
C41   N3    1.424318 S    
O3    V1    2.011651 S    
V1    O10   1.699571 S    
O18   V4    2.020745 S    
C7    N5    1.440561 S    
C43   C44   1.394682 A    
O15   V3    2.011645 S    
C31   C36   1.437139 A    
C51   H7    1.084644 S    
O17   V4    1.701297 S    
C31   C50   1.477453 S    
C3    C24   1.505364 S    
O17   V3    2.142071 S    
C54   O38   1.221342 D    
C19   C48   1.504134 S    
O18   C47   1.296544 A    
C17   C49   1.492870 S    
C8    C9    1.410855 A    
C22   C23   1.477746 S    
C52   H8    1.085252 S    
C10   C14   1.435071 A    
C15   C16   1.387179 A    
C30   C46   1.504131 S    
C6    C52   1.488776 S    
C2    C40   1.486955 S    
N3    O27   1.299619 A    
C9    C10   1.423209 A    
V2    O10   2.145814 S    
O8    C3    1.315082 A    
C8    H1    1.080039 S    
