data_mof_unit_42592.cif
_audit_creation_date              2013-03-05T15:39:28-0500
_audit_creation_method            fapswitch 2.2
_symmetry_space_group_name_H-M    P1
_symmetry_Int_Tables_number       1
_space_group_crystal_system       triclinic
_cell_length_a                    16.931451
_cell_length_b                    16.93116
_cell_length_c                    16.932081
_cell_angle_alpha                 67.213981
_cell_angle_beta                  67.215307
_cell_angle_gamma                 67.21458
_cell_volume                      3961.85420575

loop_
_atom_site_label
_atom_site_type_symbol
_atom_site_description
_atom_site_fract_x
_atom_site_fract_y
_atom_site_fract_z
_atom_type_partial_charge
O1    O     O_R   0.124540 0.978640 0.385460 -0.556232
O2    O     O_R   0.875460 0.021360 0.614540 -0.543320
O3    O     O_R   0.978640 0.385460 0.124540 -0.556163
O4    O     O_R   0.021360 0.614540 0.875460 -0.543341
O5    O     O_R   0.385460 0.124540 0.978640 -0.556284
O6    O     O_R   0.614540 0.875460 0.021360 -0.543339
O7    O     O_R   0.614540 0.021360 0.875460 -0.540029
O8    O     O_R   0.385460 0.978640 0.124540 -0.547316
O9    O     O_R   0.875460 0.614540 0.021360 -0.540082
O10   O     O_R   0.124540 0.385460 0.978640 -0.547325
O11   O     O_R   0.021360 0.875460 0.614540 -0.540016
O12   O     O_R   0.978640 0.124540 0.385460 -0.547297
C1    C     C_R   0.591272 0.034656 0.593923 -0.021218
C2    C     C_R   0.392340 0.986184 0.404075 -0.109563
C3    C     C_R   0.034640 0.593925 0.591296 -0.021138
C4    C     C_R   0.986198 0.404097 0.392325 -0.108552
C5    C     C_R   0.593918 0.591273 0.034652 -0.021232
C6    C     C_R   0.404072 0.392337 0.986189 -0.109598
Cu1   Cu    Cu3+1 0.995180 0.995180 0.424630 1.096364
Cu2   Cu    Cu3+1 0.004820 0.004820 0.575370 1.172321
Cu3   Cu    Cu3+1 0.995180 0.424630 0.995180 1.096254
Cu4   Cu    Cu3+1 0.004820 0.575370 0.004820 1.172192
Cu5   Cu    Cu3+1 0.424630 0.995180 0.995180 1.096300
Cu6   Cu    Cu3+1 0.575370 0.004820 0.004820 1.172295
C7    C     C_R   0.030146 0.828572 0.564328 0.825799
C8    C     C_R   0.980937 0.169657 0.430790 0.880874
C9    C     C_R   0.828571 0.564329 0.030138 0.825664
C10   C     C_R   0.169655 0.430788 0.980937 0.881017
C11   C     C_R   0.564331 0.030133 0.828573 0.825841
C12   C     C_R   0.430787 0.980939 0.169655 0.880941
C13   C     C_R   0.436600 0.171325 0.967263 0.827383
C14   C     C_R   0.566550 0.829255 0.024577 0.854772
C15   C     C_R   0.967273 0.436596 0.171319 0.827333
C16   C     C_R   0.024569 0.566554 0.829260 0.854789
C17   C     C_R   0.171324 0.967268 0.436598 0.827297
C18   C     C_R   0.829256 0.024578 0.566549 0.854699
O13   O     O_R   0.013780 0.867370 0.487190 -0.550924
O14   O     O_R   0.986220 0.132630 0.512810 -0.517232
O15   O     O_R   0.867370 0.487190 0.013780 -0.550972
O16   O     O_R   0.132630 0.512810 0.986220 -0.517248
O17   O     O_R   0.487190 0.013780 0.867370 -0.550978
O18   O     O_R   0.512810 0.986220 0.132630 -0.517272
O19   O     O_R   0.512810 0.132630 0.986220 -0.526806
O20   O     O_R   0.487190 0.867370 0.013780 -0.538709
O21   O     O_R   0.986220 0.512810 0.132630 -0.526849
O22   O     O_R   0.013780 0.487190 0.867370 -0.538698
O23   O     O_R   0.132630 0.986220 0.512810 -0.526840
O24   O     O_R   0.867370 0.013780 0.487190 -0.538743
C19   C     C_R   0.537982 0.026606 0.544577 -0.093525
C20   C     C_R   0.442419 0.998573 0.454369 -0.137108
C21   C     C_R   0.026553 0.544591 0.538018 -0.093469
C22   C     C_R   0.998479 0.454416 0.442451 -0.135927
C23   C     C_R   0.544564 0.537984 0.026612 -0.093563
C24   C     C_R   0.454356 0.442417 0.998588 -0.137257
C25   C     C_R   0.558310 0.052616 0.450568 0.225589
C26   C     C_R   0.409570 0.993146 0.547130 0.237163
C27   C     C_R   0.052447 0.450573 0.558407 0.225468
C28   C     C_R   0.993154 0.547162 0.409569 0.238226
C29   C     C_R   0.450550 0.558333 0.052598 0.225611
C30   C     C_R   0.547111 0.409552 0.993193 0.237134
C31   C     C_R   0.526444 0.017137 0.410304 0.229543
C32   C     C_R   0.468104 0.985954 0.591086 0.253136
C33   C     C_R   0.410289 0.526454 0.017129 0.229554
C34   C     C_R   0.591074 0.468084 0.985992 0.253184
C35   C     C_R   0.016938 0.410357 0.526520 0.229161
C36   C     C_R   0.985976 0.591127 0.468087 0.252640
C37   C     C_R   0.548996 0.051961 0.678312 0.385226
C38   C     C_R   0.412862 0.015658 0.308573 0.379615
C39   C     C_R   0.052023 0.678284 0.549009 0.385402
C40   C     C_R   0.015639 0.308588 0.412889 0.379149
C41   C     C_R   0.678306 0.548992 0.051968 0.385258
C42   C     C_R   0.308570 0.412854 0.015662 0.379634
C43   C     C_R   0.322880 0.943498 0.448823 0.392537
C44   C     C_R   0.684922 0.020331 0.560279 0.345979
C45   C     C_R   0.448828 0.322882 0.943498 0.392595
C46   C     C_R   0.560286 0.684928 0.020306 0.345937
C47   C     C_R   0.943615 0.448839 0.322811 0.392424
C48   C     C_R   0.020275 0.560303 0.684948 0.345817
C49   C     C_R   0.599993 0.047424 0.729992 -0.252439
C50   C     C_R   0.386869 0.977279 0.265078 -0.224374
C51   C     C_R   0.047451 0.729985 0.599998 -0.252550
C52   C     C_R   0.977278 0.265087 0.386877 -0.224102
C53   C     C_R   0.729987 0.599987 0.047433 -0.252503
C54   C     C_R   0.265078 0.386870 0.977273 -0.224387
C55   C     C_R   0.269712 0.947812 0.400363 -0.240943
C56   C     C_R   0.732097 0.034804 0.604652 -0.223683
C57   C     C_R   0.400369 0.269717 0.947800 -0.240851
C58   C     C_R   0.604652 0.732097 0.034800 -0.223631
C59   C     C_R   0.947848 0.400365 0.269694 -0.242396
C60   C     C_R   0.034782 0.604664 0.732112 -0.223716
C61   C     C_R   0.686897 0.054971 0.686925 0.129586
C62   C     C_R   0.311838 0.944032 0.312434 0.126799
C63   C     C_R   0.054970 0.686931 0.686907 0.129591
C64   C     C_R   0.944041 0.312442 0.311841 0.127011
C65   C     C_R   0.686916 0.686887 0.054988 0.129759
C66   C     C_R   0.312439 0.311845 0.944016 0.126794
Br1   Br    Br    0.464496 0.900634 0.705254 -0.543580
Br2   Br    Br    0.612785 0.969338 0.313753 -0.418613
Br3   Br    Br    0.900877 0.705438 0.464271 -0.543381
Br4   Br    Br    0.969070 0.313828 0.612816 -0.418322
Br5   Br    Br    0.705242 0.464461 0.900677 -0.543599
Br6   Br    Br    0.313709 0.612778 0.969356 -0.418366
Br7   Br    Br    0.285825 0.015885 0.616018 -0.384481
Br8   Br    Br    0.612295 0.147514 0.375560 -0.485387
Br9   Br    Br    0.615976 0.285795 0.015972 -0.384403
Br10  Br    Br    0.375522 0.612382 0.147441 -0.485154
Br11  Br    Br    0.016203 0.615958 0.285795 -0.383880
Br12  Br    Br    0.147307 0.375476 0.612424 -0.485206
O25   O     O_3   0.457032 0.075381 0.709384 -0.517708
C67   C     C_3   0.424856 0.169251 0.685727 0.036475
H1    H     H_    0.458637 0.200882 0.615398 0.142196
H2    H     H_    0.434269 0.195410 0.731510 0.164789
C68   C     C_3   0.326044 0.195744 0.694299 -0.553459
H3    H     H_    0.290238 0.160980 0.761548 0.284382
H4    H     H_    0.298526 0.268798 0.684416 0.241339
H5    H     H_    0.315931 0.177873 0.643020 0.248166
O26   O     O_3   0.458949 0.078859 0.256267 -0.508627
C69   C     C_3   0.408570 0.161346 0.274894 0.047846
H6    H     H_    0.398604 0.156869 0.344829 0.156282
H7    H     H_    0.342636 0.184788 0.261374 0.105364
C70   C     C_3   0.459695 0.229735 0.216564 -0.675409
H8    H     H_    0.454985 0.250316 0.147534 0.237201
H9    H     H_    0.431369 0.288676 0.242791 0.178290
H10   H     H_    0.530803 0.201032 0.216607 0.316620
O27   O     O_3   0.075592 0.709284 0.457043 -0.517611
C71   C     C_3   0.169471 0.685653 0.425025 0.036368
H11   H     H_    0.201094 0.615382 0.458965 0.142096
H12   H     H_    0.195512 0.731570 0.434374 0.164781
C72   C     C_3   0.196157 0.693982 0.326254 -0.553263
H13   H     H_    0.161431 0.761159 0.290286 0.284566
H14   H     H_    0.269214 0.684113 0.298851 0.241178
H15   H     H_    0.178390 0.642580 0.316228 0.248092
O28   O     O_3   0.078792 0.256280 0.459036 -0.508641
C73   C     C_3   0.161288 0.274907 0.408722 0.047769
H16   H     H_    0.156824 0.344809 0.398905 0.156321
H17   H     H_    0.184728 0.261521 0.342726 0.105393
C74   C     C_3   0.229676 0.216434 0.459815 -0.675285
H18   H     H_    0.250198 0.147439 0.455018 0.237191
H19   H     H_    0.288652 0.242603 0.431531 0.178253
H20   H     H_    0.200999 0.216396 0.530943 0.316579
O29   O     O_3   0.709376 0.457025 0.075393 -0.517679
C75   C     C_3   0.685762 0.424857 0.169257 0.036382
H21   H     H_    0.615438 0.458636 0.200907 0.142166
H22   H     H_    0.731569 0.434280 0.195378 0.164511
C76   C     C_3   0.694341 0.326040 0.195766 -0.553328
H23   H     H_    0.761578 0.290238 0.160976 0.284368
H24   H     H_    0.684506 0.298526 0.268809 0.241373
H25   H     H_    0.643034 0.315917 0.177945 0.248193
O30   O     O_3   0.256263 0.458907 0.078889 -0.508604
C77   C     C_3   0.274922 0.408492 0.161353 0.047878
H26   H     H_    0.344848 0.398583 0.156866 0.156324
H27   H     H_    0.261458 0.342535 0.184750 0.105411
C78   C     C_3   0.216565 0.459539 0.229796 -0.675563
H28   H     H_    0.147542 0.454812 0.250352 0.237163
H29   H     H_    0.242794 0.431158 0.288739 0.178170
H30   H     H_    0.216593 0.530654 0.201160 0.316642
O31   O     O_3   0.312451 0.888712 0.535194 -0.504899
C79   C     C_3   0.377377 0.805508 0.534564 0.070667
H31   H     H_    0.446204 0.813252 0.502903 0.151029
H32   H     H_    0.365082 0.770647 0.498374 0.140060
C80   C     C_3   0.371940 0.747580 0.630085 -0.648404
H33   H     H_    0.304922 0.736382 0.663465 0.281828
H34   H     H_    0.422939 0.682062 0.630404 0.177229
H35   H     H_    0.384234 0.780726 0.667674 0.281737
O32   O     O_3   0.728017 0.009550 0.475845 -0.521479
C81   C     C_3   0.750901 0.919995 0.477262 0.084115
H36   H     H_    0.690435 0.897019 0.499738 0.150093
H37   H     H_    0.794349 0.875803 0.521977 0.159114
C82   C     C_3   0.801415 0.914320 0.382018 -0.509656
H38   H     H_    0.873143 0.906981 0.368698 0.242421
H39   H     H_    0.794114 0.857261 0.371181 0.237894
H40   H     H_    0.774791 0.975863 0.333089 0.283765
O33   O     O_3   0.535211 0.312440 0.888736 -0.504911
C83   C     C_3   0.534612 0.377408 0.805554 0.070559
H41   H     H_    0.503016 0.446226 0.813331 0.151064
H42   H     H_    0.498373 0.365204 0.770673 0.140081
C84   C     C_3   0.630145 0.371904 0.747632 -0.648135
H43   H     H_    0.663449 0.304904 0.736376 0.281767
H44   H     H_    0.630489 0.422957 0.682144 0.177302
H45   H     H_    0.667792 0.384075 0.780809 0.281797
O34   O     O_3   0.475867 0.728039 0.009477 -0.521501
C85   C     C_3   0.477327 0.750893 0.919918 0.084188
H46   H     H_    0.499814 0.690411 0.896966 0.150108
H47   H     H_    0.522057 0.794330 0.875737 0.159129
C86   C     C_3   0.382095 0.801415 0.914188 -0.509716
H48   H     H_    0.368788 0.873156 0.906791 0.242413
H49   H     H_    0.371278 0.794064 0.857148 0.237733
H50   H     H_    0.333140 0.774833 0.975729 0.283790
O35   O     O_3   0.888995 0.535269 0.312352 -0.504890
C87   C     C_3   0.805160 0.534538 0.376075 0.070557
H51   H     H_    0.811792 0.501159 0.445248 0.149788
H52   H     H_    0.770422 0.499960 0.361455 0.140779
C88   C     C_3   0.747903 0.630098 0.371975 -0.648304
H53   H     H_    0.738410 0.665450 0.304398 0.283671
H54   H     H_    0.681605 0.630329 0.421523 0.177258
H55   H     H_    0.780650 0.665845 0.387286 0.280077
O36   O     O_3   0.009443 0.475886 0.728059 -0.521507
C89   C     C_3   0.919876 0.477352 0.750939 0.084214
H56   H     H_    0.896887 0.499877 0.690474 0.150101
H57   H     H_    0.875717 0.522057 0.794404 0.159126
C90   C     C_3   0.914158 0.382109 0.801424 -0.509658
H58   H     H_    0.906783 0.368767 0.873162 0.242390
H59   H     H_    0.857109 0.371303 0.794075 0.237754
H60   H     H_    0.975695 0.333166 0.774814 0.283778
Br13  Br    Br    0.733858 0.112275 0.731596 -0.415178
Br14  Br    Br    0.272428 0.882043 0.266159 -0.471296
Br15  Br    Br    0.112279 0.731602 0.733864 -0.415213
Br16  Br    Br    0.882030 0.266174 0.272452 -0.471730
Br17  Br    Br    0.731549 0.733810 0.112358 -0.415940
Br18  Br    Br    0.266167 0.272448 0.882017 -0.471442

loop_
_geom_bond_atom_site_label_1
_geom_bond_atom_site_label_2
_geom_bond_distance
_ccdc_geom_bond_type
Cu2   O14   1.964435 S    
C38   C50   1.414757 A    
O6    C14   1.303939 A    
C6    C45   1.422522 A    
C52   C64   1.410321 A    
O28   C73   1.409853 S    
C10   C54   1.481434 S    
O26   C69   1.409843 S    
C90   H59   1.108874 S    
C82   H38   1.110804 S    
Cu1   Cu2   2.689554 S    
C30   Br9   1.930993 S    
C17   O23   1.304023 A    
C80   H35   1.110438 S    
C73   C74   1.514534 S    
C80   H33   1.109001 S    
C23   C29   1.412892 A    
C81   H37   1.113782 S    
C24   C30   1.426805 A    
O34   C85   1.404904 S    
C48   C60   1.421815 A    
C74   H19   1.109367 S    
O1    C17   1.303161 A    
O32   C81   1.404904 S    
C13   O19   1.303983 A    
O7    C11   1.307134 A    
C28   Br11  1.931053 S    
C56   C61   1.408246 A    
C23   C34   1.408161 A    
O9    Cu4   1.964466 S    
C86   H49   1.108879 S    
C3    C48   1.416700 A    
C45   O33   1.380746 S    
C24   C33   1.421982 A    
O3    C15   1.303107 A    
O10   C10   1.293909 A    
O7    Cu6   1.964548 S    
C14   C58   1.481932 S    
C43   O31   1.380736 S    
C83   C84   1.520603 S    
O8    Cu5   1.964546 S    
C15   O21   1.303929 A    
C4    C47   1.422197 A    
C54   C66   1.410320 A    
C59   C64   1.394740 A    
C69   H6    1.105461 S    
C70   H10   1.110368 S    
O5    C13   1.303142 A    
Cu1   O13   1.964436 S    
C87   C88   1.520726 S    
C7    O13   1.299600 A    
C62   Br14  1.935204 S    
C83   H41   1.114729 S    
C37   O25   1.381093 S    
O31   C79   1.412853 S    
C31   Br2   1.929249 S    
C9    O15   1.299516 A    
C84   H44   1.110512 S    
C77   C78   1.514507 S    
C11   C49   1.488034 S    
C5    C46   1.416705 A    
C71   H12   1.112994 S    
Cu5   Cu6   2.689464 S    
C79   H31   1.114731 S    
C89   H56   1.111896 S    
C16   O22   1.297131 A    
C48   O36   1.378610 S    
C3    C21   1.515980 S    
C78   H29   1.109364 S    
C46   C58   1.421819 A    
C49   C61   1.398389 A    
C7    C51   1.488009 S    
C41   O29   1.381084 S    
C68   H5    1.110627 S    
C12   C50   1.481504 S    
C88   H55   1.110739 S    
O27   C71   1.410139 S    
C58   C65   1.408221 A    
O6    Cu6   1.964422 S    
C8    C52   1.481509 S    
Cu3   Cu4   2.689423 S    
C79   H32   1.114168 S    
C82   H39   1.108885 S    
C75   C76   1.517355 S    
O36   C89   1.404894 S    
C61   Br13  1.943571 S    
C33   Br6   1.929262 S    
C80   H34   1.110509 S    
C55   C62   1.394766 A    
C28   C36   1.399500 A    
C76   H23   1.110456 S    
C41   C53   1.413815 A    
O10   Cu3   1.964465 S    
C6    C42   1.434761 A    
C34   Br5   1.908167 S    
C3    C39   1.417588 A    
C74   H20   1.110372 S    
O4    C16   1.303904 A    
O11   Cu2   1.964420 S    
O1    Cu1   1.964472 S    
C29   Br10  1.920384 S    
C66   Br18  1.935192 S    
C76   H24   1.108434 S    
O2    Cu2   1.964472 S    
C65   Br17  1.943505 S    
C2    C43   1.422515 A    
C64   Br16  1.935192 S    
C35   Br4   1.929247 S    
C68   H3    1.110458 S    
Cu1   O24   1.964497 S    
C8    O14   1.306945 A    
C86   H50   1.109998 S    
C73   H17   1.113821 S    
C71   C72   1.517339 S    
C18   C56   1.481969 S    
O33   C83   1.412859 S    
C25   Br8   1.920378 S    
C20   C26   1.426842 A    
Cu5   O20   1.964438 S    
C67   H1    1.117026 S    
O12   C8    1.293997 A    
C21   C36   1.408185 A    
C36   Br3   1.908224 S    
C50   C62   1.410330 A    
C16   C60   1.481890 S    
C87   H51   1.115250 S    
C15   C59   1.483067 S    
C38   O26   1.384105 S    
C40   O28   1.384130 S    
C32   Br1   1.908200 S    
C51   C63   1.398351 A    
O5    Cu5   1.964422 S    
C84   H45   1.110444 S    
Cu4   O16   1.964476 S    
C57   C66   1.394750 A    
C27   Br12  1.920421 S    
C89   C90   1.526296 S    
C88   H54   1.110690 S    
C14   O20   1.297144 A    
C4    C40   1.434790 A    
C53   C65   1.398351 A    
C44   C56   1.421821 A    
C78   H30   1.110369 S    
Cu6   O18   1.964549 S    
C67   C68   1.517372 S    
C43   C55   1.401327 A    
C70   H8    1.108658 S    
C42   C54   1.414719 A    
C22   C28   1.426884 A    
C84   H43   1.109007 S    
C1    C19   1.515976 S    
C69   H7    1.113804 S    
C45   C57   1.401327 A    
C42   O30   1.384127 S    
C81   H36   1.111891 S    
C82   H40   1.109998 S    
C77   H27   1.113805 S    
O3    Cu3   1.964536 S    
C13   C57   1.483201 S    
C46   O34   1.378623 S    
C63   Br15  1.943573 S    
C5    C23   1.515956 S    
C76   H25   1.110627 S    
O9    C9    1.307126 A    
C60   C63   1.408233 A    
Cu3   O22   1.964530 S    
C1    C37   1.417586 A    
O2    C18   1.303965 A    
C20   C31   1.421971 A    
O4    Cu4   1.964538 S    
C87   H52   1.114322 S    
C19   C32   1.408174 A    
C85   H47   1.113785 S    
C11   O17   1.299537 A    
C75   H21   1.117020 S    
Cu3   O15   1.964477 S    
C26   C32   1.399502 A    
C4    C22   1.524264 S    
C26   Br7   1.930990 S    
C27   C35   1.403517 A    
C5    C41   1.417586 A    
C73   H16   1.105479 S    
C47   C59   1.401379 A    
C74   H18   1.108674 S    
C29   C33   1.403514 A    
Cu5   O17   1.964551 S    
C90   H58   1.110799 S    
C30   C34   1.399467 A    
C47   O35   1.380553 S    
C72   H15   1.110635 S    
C9    C53   1.488016 S    
C72   H13   1.110451 S    
O8    C12   1.293944 A    
C19   C25   1.412881 A    
O30   C77   1.409842 S    
C17   C55   1.483210 S    
C86   H48   1.110801 S    
C2    C20   1.524322 S    
C71   H11   1.117030 S    
C25   C31   1.403521 A    
O12   Cu1   1.964420 S    
C90   H60   1.109998 S    
C83   H42   1.114181 S    
C18   O24   1.297192 A    
C75   H22   1.113008 S    
C44   O32   1.378619 S    
C2    C38   1.434800 A    
O35   C87   1.412863 S    
C40   C52   1.414798 A    
C67   H2    1.113011 S    
C70   H9    1.109371 S    
Cu2   O23   1.964497 S    
C39   C51   1.413778 A    
C6    C24   1.524258 S    
C39   O27   1.381081 S    
O11   C7    1.307126 A    
C21   C27   1.412911 A    
C69   C70   1.514546 S    
Cu4   O21   1.964529 S    
C1    C44   1.416713 A    
C81   C82   1.526279 S    
C79   C80   1.520598 S    
C88   H53   1.109412 S    
O25   C67   1.410137 S    
Cu6   O19   1.964438 S    
C10   O16   1.306919 A    
C77   H26   1.105443 S    
C12   O18   1.306942 A    
C89   H57   1.113782 S    
C72   H14   1.108455 S    
C78   H28   1.108664 S    
O29   C75   1.410123 S    
C85   C86   1.526288 S    
C37   C49   1.413831 A    
C22   C35   1.421939 A    
C85   H46   1.111893 S    
C68   H4    1.108446 S    
