data_mof_unit_5254.cif
_audit_creation_date              2012-12-11T15:39:05-0500
_audit_creation_method            fapswitch 2.2
_symmetry_space_group_name_H-M    P1
_symmetry_Int_Tables_number       1
_space_group_crystal_system       triclinic
_cell_length_a                    14.283549
_cell_length_b                    14.788164
_cell_length_c                    33.223843
_cell_angle_alpha                 98.482616
_cell_angle_beta                  90.589766
_cell_angle_gamma                 118.626719
_cell_volume                      6065.99263767

loop_
_atom_site_label
_atom_site_type_symbol
_atom_type_description
_atom_site_fract_x
_atom_site_fract_y
_atom_site_fract_z
_atom_type_partial_charge
C1    C     C_R   0.616675 0.909988 0.436809 0.545582
C2    C     C_R   0.723591 0.366856 0.176994 0.041491
C3    C     C_R   0.742544 0.900351 0.649908 -0.034695
C4    C     C_R   0.651587 0.817442 0.662671 0.005104
C5    C     C_R   0.643175 0.858368 0.583295 0.023816
C6    C     C_R   0.055194 0.783288 0.063515 0.570475
C7    C     C_R   0.742896 0.483018 0.065152 0.572192
C8    C     C_R   0.740521 0.791033 0.065728 0.535830
C9    C     C_R   0.019592 0.730211 0.947056 0.547057
C10   C     C_R   0.710143 0.433805 0.949762 0.557577
C11   C     C_R   0.709370 0.740122 0.950707 0.529026
C12   C     C_R   0.802862 0.367709 0.151662 0.037578
C13   C     C_R   0.804722 0.396578 0.112538 0.015375
C14   C     C_R   0.674459 0.246806 0.229567 -0.014493
C15   C     C_R   0.670074 0.237024 0.271445 -0.030091
C16   C     C_R   0.704685 0.328270 0.301822 0.026130
C17   C     C_R   0.754076 0.428916 0.290847 -0.001749
C18   C     C_R   0.764695 0.436911 0.249764 -0.143849
C19   C     C_R   0.722525 0.348221 0.219318 -0.011753
C20   C     C_R   0.591411 0.311350 0.359963 0.040610
C21   C     C_R   0.595206 0.207599 0.457053 0.520892
C22   C     C_R   0.569797 0.293027 0.400375 0.006706
C23   C     C_R   0.740717 0.294464 0.411006 0.011352
C24   C     C_R   0.764840 0.315573 0.370985 0.035437
C25   C     C_R   0.686988 0.318288 0.345121 0.061352
C26   C     C_R   0.638119 0.271676 0.423819 -0.076767
C27   C     C_R   0.229544 0.868109 0.394332 -0.009065
C28   C     C_R   0.203471 0.943186 0.382769 -0.028650
C29   C     C_R   0.186852 0.944949 0.340609 -0.001173
C30   C     C_R   0.191466 0.868423 0.310972 0.016664
C31   C     C_R   0.199036 0.785642 0.322893 -0.124205
C32   C     C_R   0.291348 0.890208 0.434806 0.569111
C33   C     C_R   0.213596 0.781842 0.364154 -0.010192
C34   C     C_R   0.206180 0.802574 0.160798 -0.007366
C35   C     C_R   0.186259 0.793407 0.117885 0.022368
C36   C     C_R   0.111725 0.912373 0.130358 -0.023619
C37   C     C_R   0.134830 0.923155 0.172428 -0.082756
C38   C     C_R   0.175210 0.864780 0.187713 -0.004633
C39   C     C_1   0.183245 0.869970 0.231425 0.003177
C40   C     C_1   0.187262 0.870896 0.267740 0.041750
C41   C     C_R   0.125237 0.836875 0.103026 -0.015284
C42   C     C_R   0.637257 0.880485 0.394706 -0.014558
C43   C     C_R   0.616756 0.903167 0.550215 0.559329
C44   C     C_R   0.552501 0.807495 0.366018 -0.116455
C45   C     C_R   0.565552 0.800170 0.324080 0.024293
C46   C     C_R   0.665157 0.868579 0.310871 0.054106
C47   C     C_R   0.753543 0.937502 0.339591 0.003782
C48   C     C_R   0.738392 0.940863 0.381403 -0.085106
C49   C     C_R   0.758460 0.948570 0.169956 0.059259
C50   C     C_R   0.765667 0.931555 0.126937 -0.001969
C51   C     C_R   0.615734 0.753280 0.122069 -0.002509
C52   C     C_R   0.612035 0.771302 0.164221 -0.145244
C53   C     C_R   0.686293 0.864515 0.188291 0.010891
C54   C     C_R   0.588899 0.198213 0.571755 0.511886
C55   C     C_1   0.681728 0.871287 0.231800 0.005362
C56   C     C_1   0.675198 0.871206 0.267837 -0.021235
C57   C     C_R   0.704683 0.827434 0.104213 0.029198
C58   C     C_R   0.620575 0.243978 0.616261 -0.021590
C59   C     C_R   0.554836 0.270415 0.642218 -0.001664
C60   C     C_R   0.577690 0.286914 0.684889 -0.106317
C61   C     C_R   0.662830 0.279623 0.702054 -0.020586
C62   C     C_R   0.732991 0.262193 0.676856 0.020272
C63   C     C_R   0.711388 0.245328 0.634269 -0.107286
C64   C     C_R   0.746174 0.296506 0.851043 0.007578
C65   C     C_R   0.291082 0.888655 0.548955 0.552952
C66   C     C_R   0.755081 0.334230 0.893006 -0.147466
C67   C     C_R   0.581257 0.325343 0.886004 0.009241
C68   C     C_R   0.574955 0.294596 0.843059 -0.014504
C69   C     C_R   0.662827 0.290116 0.825627 0.003873
C70   C     C_1   0.669103 0.284877 0.781993 -0.059540
C71   C     C_1   0.670225 0.283447 0.745658 -0.075754
C72   C     C_R   0.678935 0.358874 0.910125 -0.013778
C73   C     C_R   0.066956 0.752439 0.908411 0.015267
C74   C     C_R   0.124636 0.857788 0.904337 -0.132680
C75   C     C_R   0.153395 0.885256 0.866643 -0.137794
C76   C     C_R   0.731539 0.430356 0.100938 0.005675
C77   C     C_R   0.124749 0.807876 0.832230 -0.042335
C78   C     C_R   0.069655 0.700678 0.835314 0.011221
C79   C     C_R   0.041672 0.671947 0.874009 0.006974
C80   C     C_R   0.225201 0.814868 0.771620 0.044188
C81   C     C_R   0.221985 0.807779 0.728985 0.043013
C82   C     C_R   0.168898 0.851790 0.709767 0.032634
C83   C     C_R   0.110873 0.894293 0.732030 0.033868
C84   C     C_R   0.095926 0.880662 0.773162 0.016762
C85   C     C_R   0.152408 0.839517 0.792287 -0.030829
C86   C     C_R   0.270390 0.952873 0.659336 -0.169334
C87   C     C_R   0.651123 0.423167 0.126198 -0.143699
C88   C     C_R   0.301101 0.961761 0.620356 -0.132245
C89   C     C_R   0.158139 0.785521 0.594831 -0.159435
C90   C     C_R   0.124213 0.776082 0.634226 0.021246
C91   C     C_R   0.183272 0.860821 0.666726 0.019360
C92   C     C_R   0.246459 0.878015 0.588102 0.027261
C93   C     C_R   0.659856 0.742814 0.912187 0.024875
C94   C     C_R   0.612301 0.651130 0.882722 -0.127801
C95   C     C_R   0.593228 0.654425 0.841618 0.018568
C96   C     C_R   0.626961 0.752978 0.829923 0.021615
C97   C     C_R   0.662703 0.842391 0.860134 -0.109430
C98   C     C_R   0.647054 0.391454 0.163564 -0.117973
C99   C     C_R   0.677122 0.838386 0.901382 0.014159
C100  C     C_R   0.589301 0.825398 0.772799 -0.098382
C101  C     C_R   0.599019 0.846045 0.732971 0.053880
C102  C     C_R   0.649264 0.803094 0.705839 0.107862
C103  C     C_R   0.698218 0.748559 0.720441 0.034401
C104  C     C_R   0.690494 0.733434 0.761188 -0.100747
C105  C     C_R   0.632281 0.767439 0.786823 0.001312
C106  C     C_R   0.561412 0.748553 0.634465 -0.012803
C107  C     C_R   0.564307 0.761962 0.593194 0.001497
C108  C     C_R   0.738962 0.919359 0.609648 -0.038494
Cr1   Cr    Cr6+3 0.424820 0.846020 0.489780 1.006933
Cr2   Cr    Cr6+3 0.657880 0.078580 0.505700 1.082186
Cr3   Cr    Cr6+3 0.417280 0.075360 0.504550 1.066559
Cr4   Cr    Cr6+3 0.903360 0.812540 0.006510 1.008847
Cr5   Cr    Cr6+3 0.914630 0.587050 0.006280 1.067334
Cr6   Cr    Cr6+3 0.673560 0.582680 0.008540 1.028226
H1    H     H_    0.593615 0.446979 0.118007 0.136347
H2    H     H_    0.193441 0.723177 0.299551 0.150170
H3    H     H_    0.119174 0.976193 0.193820 0.205384
H4    H     H_    0.803406 0.995383 0.404018 0.166406
H5    H     H_    0.474430 0.760221 0.376107 0.155057
H6    H     H_    0.550732 0.711236 0.178729 0.103758
H7    H     H_    0.824863 0.349568 0.912006 0.136512
H8    H     H_    0.763135 0.227532 0.614962 0.177552
H9    H     H_    0.526998 0.301880 0.705671 0.115259
H10   H     H_    0.144273 0.919410 0.930373 0.143364
H11   H     H_    0.196086 0.967279 0.863997 0.166530
H12   H     H_    0.318308 0.016084 0.684270 0.115911
H13   H     H_    0.372104 0.032126 0.615838 0.129409
H14   H     H_    0.116974 0.721035 0.569586 0.100710
H15   H     H_    0.596016 0.577236 0.891208 0.116049
H16   H     H_    0.549003 0.855934 0.793272 0.100527
H17   H     H_    0.730561 0.695288 0.773183 0.106779
H18   H     H_    0.683910 0.916975 0.851220 0.108325
H19   H     H_    0.586299 0.390396 0.183081 0.121365
H20   H     H_    0.803104 0.513691 0.241069 0.119876
O1    O     O_R   0.318160 0.824460 0.443680 -0.538149
O2    O     O_R   0.645130 0.163230 0.552140 -0.507172
O3    O     O_R   0.498360 0.178430 0.555780 -0.533949
O4    O     O_R   0.328690 0.978040 0.538950 -0.490191
O5    O     O_3   0.499990 0.999990 0.500010 -0.251066
O6    O     O_R   0.828710 0.851830 0.052170 -0.524780
O7    O     O_R   0.005980 0.823990 0.047210 -0.520481
O8    O     O_R   0.031900 0.688850 0.050170 -0.475760
O9    O     O_R   0.830940 0.518420 0.048680 -0.471519
O10   O     O_R   0.668160 0.499860 0.053480 -0.519556
O11   O     O_R   0.689170 0.693840 0.050110 -0.507145
O12   O     O_R   0.525040 0.857250 0.449830 -0.505865
O13   O     O_R   0.803860 0.812940 0.962540 -0.515365
O14   O     O_R   0.982950 0.787950 0.964120 -0.497332
O15   O     O_R   0.007050 0.649970 0.960540 -0.511666
O16   O     O_R   0.807910 0.482370 0.965590 -0.502173
O17   O     O_R   0.643310 0.460980 0.963840 -0.472998
O18   O     O_R   0.666140 0.657800 0.967020 -0.510120
O19   O     O_3   0.830520 0.660760 0.007110 -0.250020
O20   O     O_R   0.684760 0.998800 0.456360 -0.476251
O21   O     O_R   0.647540 0.166310 0.470260 -0.479770
O22   O     O_R   0.500960 0.181750 0.467450 -0.504673
O23   O     O_R   0.331100 0.981120 0.457080 -0.440812
O24   O     O_R   0.315560 0.821140 0.532010 -0.523764
O25   O     O_R   0.522630 0.854180 0.531710 -0.518771
O26   O     O_R   0.682160 0.995480 0.544690 -0.468173
C109  C     C_2   0.480305 0.302141 0.419676 0.235978
H21   H     H_    0.493826 0.342418 0.451010 0.113638
O27   O     O_2   0.390734 0.261760 0.401985 -0.556838
C110  C     C_2   0.881405 0.338073 0.166994 0.217195
H22   H     H_    0.897796 0.344902 0.199576 0.117420
O28   O     O_2   0.925871 0.302289 0.143811 -0.534240
C111  C     C_2   0.822740 0.300073 0.440807 0.248250
H23   H     H_    0.831563 0.338826 0.472114 0.094239
O29   O     O_2   0.876195 0.257211 0.431702 -0.523973
C112  C     C_2   0.231314 0.741449 0.088436 0.236555
H24   H     H_    0.249147 0.682510 0.096224 0.090625
O30   O     O_2   0.252343 0.766854 0.054938 -0.500350
C113  C     C_3   0.260024 0.747222 0.178062 -0.284058
C114  C     C_3   0.381760 0.812257 0.180365 -0.427039
H25   H     H_    0.409037 0.824104 0.149472 0.164254
H26   H     H_    0.409368 0.889590 0.200064 0.159061
H27   H     H_    0.418418 0.771080 0.193934 0.131510
H28   H     H_    0.237242 0.731967 0.209182 0.147980
H29   H     H_    0.232263 0.668189 0.159984 0.123990
C115  C     C_2   0.207202 0.684917 0.374698 0.215250
H30   H     H_    0.184739 0.663662 0.404374 0.135377
O31   O     O_2   0.223295 0.625488 0.349833 -0.557648
C116  C     C_2   0.184784 0.013481 0.414607 0.243401
H31   H     H_    0.205651 0.092268 0.411049 0.138155
O32   O     O_2   0.142351 0.982176 0.445122 -0.488444
C117  C     C_2   0.076192 0.982710 0.116231 0.239285
H32   H     H_    0.080788 0.995206 0.084851 0.133227
O33   O     O_2   0.045608 0.031812 0.140177 -0.512388
C118  C     C_2   0.883492 0.392847 0.084536 0.298499
H33   H     H_    0.967511 0.428861 0.095464 0.126787
O34   O     O_2   0.854316 0.347063 0.049258 -0.495877
C119  C     C_2   0.163554 0.025190 0.327721 0.185842
H34   H     H_    0.192952 0.101207 0.346684 0.114647
O35   O     O_2   0.110080 0.007076 0.295689 -0.504736
C120  C     C_3   0.832524 0.023793 0.105380 -0.239452
C121  C     C_3   0.761927 0.038473 0.075062 -0.411271
H35   H     H_    0.721157 0.968619 0.050661 0.139632
H36   H     H_    0.700657 0.051852 0.091113 0.206698
H37   H     H_    0.811947 0.107410 0.060619 0.186163
H38   H     H_    0.877055 0.098595 0.126758 0.199132
H39   H     H_    0.896572 0.015631 0.089826 0.207488
C122  C     C_2   0.824600 0.052823 0.195858 0.242749
H40   H     H_    0.826773 0.121934 0.187557 0.140429
O36   O     O_2   0.877249 0.062214 0.226886 -0.500847
C123  C     C_3   0.860237 0.010065 0.324594 -0.252298
C124  C     C_3   0.952967 0.079061 0.357556 -0.426741
H41   H     H_    0.934359 0.133294 0.378216 0.188883
H42   H     H_    0.970503 0.030120 0.375379 0.163504
H43   H     H_    0.025715 0.127286 0.342811 0.180111
H44   H     H_    0.885551 0.961825 0.303496 0.209628
H45   H     H_    0.847752 0.062379 0.307014 0.194582
C125  C     C_3   0.520809 0.656122 0.097829 -0.267046
C126  C     C_3   0.467399 0.683993 0.065260 -0.407331
H46   H     H_    0.444422 0.742397 0.079542 0.165433
H47   H     H_    0.521675 0.716751 0.041402 0.160339
H48   H     H_    0.394044 0.612665 0.050309 0.146669
H49   H     H_    0.543244 0.596960 0.084305 0.187619
H50   H     H_    0.458330 0.615573 0.118278 0.123673
C127  C     C_3   0.470766 0.722620 0.293947 -0.271437
C128  C     C_3   0.484023 0.628942 0.275564 -0.437648
H51   H     H_    0.556243 0.653893 0.258470 0.148827
H52   H     H_    0.491217 0.588481 0.300106 0.158245
H53   H     H_    0.412832 0.572911 0.254092 0.150253
H54   H     H_    0.395337 0.693139 0.309152 0.197164
H55   H     H_    0.460770 0.761331 0.269274 0.142906
C129  C     C_3   0.870911 0.330849 0.355159 -0.240669
C130  C     C_3   0.965774 0.436955 0.373665 -0.420597
H56   H     H_    0.955959 0.501208 0.364495 0.136561
H57   H     H_    0.974930 0.448492 0.407467 0.165790
H58   H     H_    0.040508 0.441890 0.362195 0.190127
H59   H     H_    0.885635 0.266585 0.360802 0.198765
H60   H     H_    0.869822 0.325230 0.321532 0.142040
C131  C     C_3   0.826911 0.265216 0.834230 -0.264461
C132  C     C_3   0.816347 0.169940 0.850711 -0.426849
H61   H     H_    0.836900 0.188943 0.884312 0.148780
H62   H     H_    0.733188 0.104029 0.843593 0.146487
H63   H     H_    0.871866 0.144955 0.836222 0.183942
H64   H     H_    0.816142 0.244990 0.800408 0.161045
H65   H     H_    0.909343 0.330953 0.842432 0.159386
C133  C     C_2   0.826432 0.257815 0.694542 0.245827
H66   H     H_    0.844303 0.271942 0.727387 0.129558
O37   O     O_2   0.885021 0.238572 0.672626 -0.518048
C134  C     C_3   0.459855 0.277873 0.624705 -0.259799
C135  C     C_3   0.403028 0.317516 0.655448 -0.467676
H67   H     H_    0.361300 0.259896 0.675879 0.147893
H68   H     H_    0.461018 0.394157 0.673872 0.145273
H69   H     H_    0.341690 0.327329 0.638730 0.154818
H70   H     H_    0.488537 0.331503 0.602026 0.158853
H71   H     H_    0.397793 0.199452 0.609062 0.181496
C136  C     C_2   0.477489 0.265925 0.815809 0.178857
H72   H     H_    0.484902 0.282941 0.784978 0.104685
O38   O     O_2   0.387669 0.218994 0.826744 -0.518302
C137  C     C_2   0.487636 0.325613 0.904860 0.309258
H73   H     H_    0.442618 0.356223 0.890729 0.119390
O39   O     O_2   0.458031 0.288158 0.935752 -0.471291
C138  C     C_3   0.980520 0.557191 0.878043 -0.242994
C139  C     C_3   0.057293 0.521552 0.892964 -0.383129
H74   H     H_    0.106609 0.515503 0.868197 0.187912
H75   H     H_    0.112101 0.577441 0.919646 0.181717
H76   H     H_    0.011659 0.444011 0.902279 0.122969
H77   H     H_    0.916079 0.542789 0.898484 0.156974
H78   H     H_    0.935212 0.506307 0.848980 0.169257
C140  C     C_2   0.030276 0.676338 0.640031 0.229359
H79   H     H_    0.992228 0.612415 0.614323 0.103432
O40   O     O_2   0.993363 0.664084 0.673001 -0.527016
C141  C     C_2   0.633614 0.131708 0.282861 0.186245
H80   H     H_    0.644574 0.073116 0.262917 0.103761
O41   O     O_2   0.590769 0.108426 0.314138 -0.504276
C142  C     C_2   0.268263 0.749985 0.703721 0.204534
H81   H     H_    0.308532 0.778280 0.677100 0.088998
O42   O     O_2   0.256381 0.666871 0.711158 -0.497222
C143  C     C_3   0.307163 0.800032 0.795713 -0.246584
C144  C     C_3   0.389830 0.903424 0.821791 -0.450997
H82   H     H_    0.437163 0.960361 0.801845 0.155061
H83   H     H_    0.351274 0.938020 0.842788 0.186302
H84   H     H_    0.444943 0.889915 0.840709 0.133280
H85   H     H_    0.267398 0.740739 0.815584 0.185824
H86   H     H_    0.352474 0.771647 0.775770 0.179879
C145  C     C_3   0.060160 0.947297 0.711127 -0.240360
C146  C     C_3   0.131444 0.066211 0.719321 -0.376694
H87   H     H_    0.154566 0.096763 0.752498 0.224591
H88   H     H_    0.205399 0.088859 0.703531 0.125539
H89   H     H_    0.088213 0.103897 0.707666 0.163486
H90   H     H_    0.044517 0.919598 0.677599 0.135639
H91   H     H_    0.980078 0.926112 0.721479 0.207769
C147  C     C_2   0.017764 0.902714 0.796149 0.213580
H92   H     H_    0.966689 0.848930 0.815407 0.109979
O43   O     O_2   0.012498 0.982384 0.795361 -0.491887
C148  C     C_2   0.039480 0.621120 0.797381 0.214892
H93   H     H_    0.006971 0.631473 0.769817 0.146744
O44   O     O_2   0.056464 0.547324 0.795868 -0.506660
C149  C     C_2   0.621832 0.150871 0.197337 0.195881
H94   H     H_    0.560503 0.077716 0.204798 0.091830
O45   O     O_2   0.645575 0.151510 0.162176 -0.512133
C150  C     C_3   0.711439 0.937050 0.932664 -0.271244
C151  C     C_3   0.625911 0.922571 0.962121 -0.424824
H95   H     H_    0.548487 0.899408 0.944883 0.166254
H96   H     H_    0.614627 0.861808 0.980518 0.144980
H97   H     H_    0.650933 0.997396 0.983287 0.156978
H98   H     H_    0.788884 0.961383 0.949930 0.180977
H99   H     H_    0.724685 0.003669 0.917342 0.135416
C152  C     C_2   0.841206 0.969220 0.678323 0.201396
H100  H     H_    0.918774 0.004062 0.666395 0.096879
O46   O     O_2   0.837436 0.989883 0.715013 -0.496242
C153  C     C_3   0.553300 0.912792 0.720550 -0.283561
C154  C     C_3   0.620851 0.027089 0.740371 -0.412342
H101  H     H_    0.627597 0.035635 0.774186 0.148599
H102  H     H_    0.702026 0.060797 0.729568 0.209690
H103  H     H_    0.581340 0.071012 0.731634 0.140399
H104  H     H_    0.545957 0.908866 0.687010 0.144944
H105  H     H_    0.471512 0.883860 0.730336 0.125805
C155  C     C_3   0.538278 0.552017 0.811618 -0.293540
C156  C     C_3   0.421494 0.486874 0.819778 -0.412372
H106  H     H_    0.383173 0.412426 0.797503 0.161800
H107  H     H_    0.415736 0.468092 0.851077 0.150952
H108  H     H_    0.377310 0.530353 0.816274 0.174688
H109  H     H_    0.537946 0.563654 0.779477 0.150078
H110  H     H_    0.581338 0.507062 0.814264 0.127272
C157  C     C_3   0.764716 0.711392 0.694736 -0.266029
C158  C     C_3   0.714796 0.592203 0.686332 -0.433594
H111  H     H_    0.693318 0.559107 0.714884 0.142217
H112  H     H_    0.642660 0.556791 0.664352 0.142228
H113  H     H_    0.772936 0.570203 0.672415 0.194849
H114  H     H_    0.777796 0.739029 0.664994 0.152899
H115  H     H_    0.845161 0.744843 0.711424 0.166060
C159  C     C_3   0.456103 0.672044 0.649248 -0.264600
C160  C     C_3   0.452868 0.570928 0.655693 -0.432400
H116  H     H_    0.369032 0.512098 0.658806 0.167436
H117  H     H_    0.482341 0.539236 0.629471 0.144033
H118  H     H_    0.501417 0.584330 0.684365 0.156052
H119  H     H_    0.440842 0.708317 0.678123 0.174033
H120  H     H_    0.386779 0.653358 0.627720 0.149217
C161  C     C_3   0.486975 0.671739 0.560016 -0.260883
C162  C     C_3   0.545565 0.647743 0.525269 -0.422139
H121  H     H_    0.584232 0.713605 0.508197 0.170044
H122  H     H_    0.607586 0.631657 0.537672 0.151092
H123  H     H_    0.487457 0.577458 0.503447 0.133600
H124  H     H_    0.443683 0.597972 0.572217 0.141427
H125  H     H_    0.423816 0.686531 0.548041 0.178423
C163  C     C_2   0.835866 0.002653 0.595293 0.237583
H126  H     H_    0.885151 0.077089 0.615147 0.143992
O47   O     O_2   0.862952 0.987240 0.561342 -0.474208
C164  C     C_3   0.798525 0.529646 0.321936 -0.277730
C165  C     C_3   0.738700 0.590639 0.317461 -0.433516
H127  H     H_    0.741759 0.610409 0.286374 0.152890
H128  H     H_    0.653918 0.544984 0.323702 0.140427
H129  H     H_    0.776645 0.664858 0.339871 0.154550
H130  H     H_    0.795609 0.515447 0.353848 0.143257
H131  H     H_    0.884337 0.579818 0.317680 0.150269
C166  C     C_3   0.511083 0.319762 0.332107 -0.244280
C167  C     C_3   0.422904 0.211753 0.311550 -0.353557
H132  H     H_    0.454100 0.177967 0.286689 0.165674
H133  H     H_    0.391975 0.157224 0.333745 0.204315
H134  H     H_    0.355811 0.218737 0.297961 0.149401
H135  H     H_    0.476067 0.364734 0.349248 0.173658
H136  H     H_    0.549237 0.364826 0.307634 0.129802

loop_
_geom_bond_atom_site_label_1
_geom_bond_atom_site_label_2
_ccdc_geom_bond_type
C21   C26   S    
C138  H78   S    
C8    O11   A    
Cr6   O18   S    
C55   C56   T    
Cr3   O5    S    
C161  C162  S    
C44   C45   A    
C9    O15   A    
C28   C116  S    
C83   C145  S    
C100  H16   S    
C106  C107  A    
C113  H29   S    
C136  O38   D    
C153  H104  S    
C144  H84   S    
C135  H67   S    
C34   C35   A    
C157  H114  S    
C66   C72   A    
C143  C144  S    
C4    C102  S    
C159  C160  S    
C51   C57   A    
C87   H1    S    
C61   C71   S    
C67   C137  S    
C5    C43   S    
C59   C60   A    
C33   C115  S    
Cr2   O5    S    
C132  H62   S    
C104  C105  A    
C109  O27   D    
C115  O31   D    
C126  H47   S    
C122  H40   S    
C47   C123  S    
C51   C52   A    
C158  H113  S    
C163  H126  S    
C22   C109  S    
C124  H41   S    
C121  H35   S    
C44   H5    S    
C45   C46   A    
C82   C91   S    
C80   C143  S    
C132  H63   S    
C64   C66   A    
C116  H31   S    
C37   C38   A    
C8    C57   S    
C50   C120  S    
C130  H56   S    
C154  H101  S    
C6    O7    A    
C114  H27   S    
C49   C122  S    
C23   C111  S    
C151  H95   S    
C142  O42   D    
Cr3   O3    S    
C5    C107  A    
C16   C25   S    
C140  O40   D    
C110  H22   S    
C143  H86   S    
C2    C19   S    
C50   C57   A    
C14   C19   A    
C65   O24   A    
C32   O1    A    
C120  H39   S    
C135  H69   S    
C8    O6    A    
C149  O45   D    
C131  H65   S    
C147  O43   D    
C162  H123  S    
C129  H60   S    
C86   C88   A    
C166  C167  S    
Cr1   O12   S    
C120  C121  S    
C37   H3    S    
C125  C126  S    
C134  H70   S    
C125  H49   S    
C35   C112  S    
C123  H45   S    
C117  H32   S    
C119  O35   D    
Cr1   O1    S    
Cr4   O6    S    
Cr2   O2    S    
C167  H132  S    
C15   C141  S    
C7    O9    A    
C156  H106  S    
C167  H134  S    
C111  O29   D    
C27   C33   A    
C36   C37   A    
C43   O25   A    
C38   C39   S    
C49   C53   A    
C156  H107  S    
C101  C153  S    
C112  H24   S    
C161  H125  S    
C155  C156  S    
C139  H74   S    
C118  O34   D    
C114  H25   S    
Cr2   O21   S    
C127  H54   S    
C151  H97   S    
C104  H17   S    
C23   C24   A    
C131  C132  S    
C77   C85   S    
C113  C114  S    
C138  C139  S    
C94   C95   A    
C121  H37   S    
C128  H51   S    
C148  H93   S    
C114  H26   S    
C73   C79   A    
C152  O46   D    
C146  H87   S    
C39   C40   T    
C160  H117  S    
C162  H121  S    
C16   C17   A    
C4    C106  A    
C127  H55   S    
C158  H112  S    
Cr4   O7    S    
C60   H9    S    
C29   C30   A    
C83   C84   A    
C106  C159  S    
C17   C18   A    
C21   O21   A    
C42   C48   A    
C64   C69   A    
C75   C77   A    
C76   C87   A    
C141  O41   D    
C130  H57   S    
C153  C154  S    
C159  H120  S    
C155  H110  S    
C3    C4    A    
Cr1   O25   S    
C63   H8    S    
Cr2   O26   S    
C52   C53   A    
C32   O23   A    
C68   C136  S    
Cr5   O16   S    
Cr6   O11   S    
C7    C76   S    
C3    C108  A    
C9    O14   A    
Cr4   O13   S    
C139  H76   S    
C150  C151  S    
C11   C93   S    
C166  H135  S    
C100  C101  A    
C144  H83   S    
C135  H68   S    
C18   H20   S    
C102  C103  A    
C35   C41   A    
C12   C13   A    
C49   C50   A    
C46   C56   S    
C14   C15   A    
C142  H81   S    
C89   H14   S    
C128  H53   S    
C10   C72   S    
C74   H10   S    
C96   C105  S    
C101  C102  A    
C134  H71   S    
C73   C74   A    
C146  H89   S    
C109  H21   S    
C140  H79   S    
C77   C78   A    
C98   H19   S    
C93   C94   A    
C122  O36   D    
C145  H91   S    
C28   C29   A    
C163  O47   D    
C88   H13   S    
C99   C150  S    
C86   C91   A    
C30   C31   A    
C124  H42   S    
C54   O3    A    
C86   H12   S    
C20   C25   A    
C134  C135  S    
C62   C133  S    
C18   C19   A    
C23   C26   A    
C17   C164  S    
C51   C125  S    
C157  H115  S    
C68   C69   A    
C154  H102  S    
C145  C146  S    
C70   C71   T    
C6    O8    A    
C93   C99   A    
C3    C152  S    
C150  H99   S    
C87   C98   A    
C151  H96   S    
C138  H77   S    
C36   C41   A    
Cr6   O17   S    
C154  H103  S    
C103  C157  S    
C67   C68   A    
C84   C85   A    
C121  H36   S    
C111  H23   S    
C58   C59   A    
C153  H105  S    
Cr5   O9    S    
C60   C61   A    
C75   H11   S    
Cr6   O10   S    
C131  H64   S    
C80   C85   A    
C12   C110  S    
C165  H129  S    
C126  H46   S    
C81   C142  S    
C66   H7    S    
C145  H90   S    
C65   O4    A    
C20   C22   A    
C107  C161  S    
C132  H61   S    
C117  O33   D    
C127  C128  S    
C115  H30   S    
C78   C148  S    
C126  H48   S    
C46   C47   A    
C27   C32   S    
C97   H18   S    
C167  H133  S    
C150  H98   S    
Cr3   O23   S    
C160  H116  S    
C34   C113  S    
C10   O16   A    
C11   O13   A    
C90   C91   A    
C137  H73   S    
C112  O30   D    
C161  H124  S    
C164  H131  S    
C118  H33   S    
C69   C70   S    
C157  C158  S    
C1    C42   S    
C82   C83   A    
C22   C26   A    
C103  C104  A    
C89   C90   A    
C15   C16   A    
Cr3   O4    S    
C5    C108  A    
C65   C92   S    
C164  C165  S    
C42   C44   A    
C143  H85   S    
C95   C96   A    
C2    C12   A    
C128  H52   S    
C81   C82   A    
C123  C124  S    
C100  C105  A    
C62   C63   A    
C113  H28   S    
C149  H94   S    
C108  C163  S    
C146  H88   S    
C67   C72   A    
C116  O32   D    
C147  H92   S    
C10   O17   A    
C162  H122  S    
Cr5   O8    S    
C129  H59   S    
C13   C118  S    
C59   C134  S    
C20   C166  S    
C133  H66   S    
C88   C92   A    
C6    C41   S    
C31   C33   A    
C119  H34   S    
Cr3   O22   S    
Cr6   O19   S    
C164  H130  S    
C1    O12   A    
C61   C62   A    
C9    C73   S    
C24   C129  S    
Cr1   O24   S    
C7    O10   A    
C97   C99   A    
C53   C55   S    
C94   H15   S    
C74   C75   A    
Cr5   O15   S    
C24   C25   A    
C43   O26   A    
C137  O39   D    
C78   C79   A    
C156  H108  S    
C48   H4    S    
Cr4   O14   S    
C139  H75   S    
Cr2   O20   S    
C47   C48   A    
C13   C76   A    
C166  H136  S    
C54   O2    A    
C96   C97   A    
C133  O37   D    
C144  H82   S    
C29   C119  S    
C30   C40   S    
C165  H127  S    
C89   C92   A    
C90   C140  S    
C52   H6    S    
C123  H44   S    
C165  H128  S    
C129  C130  S    
Cr4   O19   S    
C14   C149  S    
C45   C127  S    
C31   H2    S    
C27   C28   A    
C120  H38   S    
C54   C58   S    
C58   C63   A    
C84   C147  S    
C152  H100  S    
C34   C38   A    
Cr5   O19   S    
C80   C81   A    
C160  H118  S    
C1    O20   A    
Cr1   O5    S    
C158  H111  S    
C110  O28   D    
C79   C138  S    
C64   C131  S    
C124  H43   S    
C125  H50   S    
C148  O44   D    
C21   O22   A    
C36   C117  S    
C95   C155  S    
C136  H72   S    
C141  H80   S    
C11   O18   A    
C130  H58   S    
C2    C98   A    
C159  H119  S    
C155  H109  S    
