data_mof_unit_28230.cif
_audit_creation_date              2013-03-05T15:58:44-0500
_audit_creation_method            fapswitch 2.2
_symmetry_space_group_name_H-M    P1
_symmetry_Int_Tables_number       1
_space_group_crystal_system       triclinic
_cell_length_a                    15.920809
_cell_length_b                    15.057192
_cell_length_c                    13.709118
_cell_angle_alpha                 90.123688
_cell_angle_beta                  89.501307
_cell_angle_gamma                 87.935954
_cell_volume                      3284.11979184

loop_
_atom_site_label
_atom_site_type_symbol
_atom_site_description
_atom_site_fract_x
_atom_site_fract_y
_atom_site_fract_z
_atom_type_partial_charge
O1    O     O_R   0.500020 0.370250 0.582280 -0.589818
O2    O     O_R   0.499980 0.629750 0.417720 -0.581280
O3    O     O_R   0.500010 0.370270 0.417740 -0.577136
O4    O     O_R   0.499990 0.629730 0.582260 -0.585187
C1    C     C_R   0.501150 0.328871 0.499939 0.821117
C2    C     C_R   0.498871 0.671120 0.500098 0.821038
O5    O     O_R   0.379080 0.499980 0.582260 -0.581397
O6    O     O_R   0.620920 0.500020 0.417740 -0.586885
O7    O     O_R   0.379070 0.500000 0.417710 -0.579666
O8    O     O_R   0.620930 0.500000 0.582290 -0.572675
C3    C     C_R   0.339771 0.498774 0.500424 0.838577
C4    C     C_R   0.660207 0.501151 0.499575 0.838422
Cu1   Cu    Cu3+1 0.500010 0.499990 0.597420 0.962557
Cu2   Cu    Cu3+1 0.499990 0.500010 0.402580 0.963376
C5    C     C_3   0.967673 0.442295 0.563129 -0.248088
C6    C     C_3   0.032192 0.556383 0.435961 -0.250168
C7    C     C_3   0.029402 0.416896 0.478547 0.008600
C8    C     C_3   0.970507 0.581783 0.520621 0.010280
H1    H     H_    0.940757 0.394836 0.615663 0.148247
H2    H     H_    0.059156 0.603861 0.383463 0.145321
C9    C     C_1   0.250315 0.495752 0.501828 -0.155518
C10   C     C_1   0.749632 0.503797 0.498120 -0.153252
C11   C     C_3   0.022358 0.521493 0.590710 0.010556
C12   C     C_3   0.977457 0.477174 0.408480 0.009723
C13   C     C_3   0.083236 0.495547 0.506331 0.083720
C14   C     C_3   0.916654 0.503156 0.492916 0.082885
C15   C     C_1   0.174947 0.494404 0.504011 -0.076375
C16   C     C_1   0.824985 0.504746 0.495688 -0.074739
C17   C     C_R   0.421074 0.817149 0.512536 -0.052091
C18   C     C_R   0.578997 0.182791 0.488398 -0.051554
C19   C     C_R   0.497142 0.767569 0.500364 -0.079855
C20   C     C_R   0.502887 0.232409 0.499951 -0.080847
C21   C     C_R   0.573023 0.809828 0.488706 -0.238691
C22   C     C_R   0.427043 0.190154 0.512054 -0.241317
C23   C     C_R   0.574598 0.902234 0.489162 0.125474
C24   C     C_R   0.425514 0.097737 0.512181 0.125509
C25   C     C_R   0.499102 0.953221 0.500955 0.056055
C26   C     C_R   0.501028 0.046739 0.500634 0.055940
C27   C     C_R   0.421761 0.910879 0.512669 0.086961
C28   C     C_R   0.578354 0.089073 0.488803 0.086720
C29   C     C_R   0.650776 0.944297 0.477961 -0.193757
C30   C     C_R   0.349346 0.055674 0.523493 -0.194367
C31   C     C_R   0.652940 0.036489 0.477954 -0.183846
C32   C     C_R   0.347180 0.963475 0.523535 -0.184819
H3    H     H_    0.630984 0.770351 0.479612 0.137029
H4    H     H_    0.369064 0.229641 0.520926 0.137325
H5    H     H_    0.708880 0.905728 0.469145 0.141362
H6    H     H_    0.291233 0.094253 0.532193 0.141513
H7    H     H_    0.713581 0.065867 0.469290 0.164322
H8    H     H_    0.286523 0.934114 0.532058 0.163494
C33   C     C_R   0.546530 0.436893 0.792383 0.096222
C34   C     C_R   0.453616 0.563275 0.207645 0.096430
N1    N     N_R   0.499960 0.499930 0.743810 -0.211310
N2    N     N_R   0.500040 0.500070 0.256190 -0.209113
C35   C     C_R   0.454163 0.563725 0.793603 0.083784
C36   C     C_R   0.546547 0.436895 0.206276 0.085418
C37   C     C_R   0.452825 0.565890 0.896919 -0.138891
C38   C     C_R   0.547150 0.434363 0.102985 -0.138163
C39   C     C_R   0.500760 0.500726 0.948181 -0.002730
C40   C     C_R   0.500716 0.500699 0.051760 -0.001301
C41   C     C_R   0.548834 0.435637 0.895585 -0.136452
C42   C     C_R   0.453810 0.566639 0.104408 -0.137367
C43   C     C_R   0.406464 0.632368 0.949742 0.249432
C44   C     C_R   0.593885 0.368230 0.050201 0.244686
C45   C     C_R   0.407312 0.633055 0.053012 0.246413
C46   C     C_R   0.596135 0.369869 0.946980 0.251358
H9    H     H_    0.581365 0.387393 0.749768 0.170086
H10   H     H_    0.416361 0.610775 0.250321 0.166482
H11   H     H_    0.419061 0.613013 0.751911 0.169769
H12   H     H_    0.583308 0.388678 0.247703 0.160237
C47   C     C_R   0.062987 0.322179 0.470152 0.097956
C48   C     C_R   0.047114 0.268795 0.388598 -0.169369
C49   C     C_R   0.075979 0.180006 0.385844 -0.102393
C50   C     C_R   0.120146 0.143522 0.464614 -0.108184
C51   C     C_R   0.135751 0.195907 0.546227 -0.151492
C52   C     C_R   0.107653 0.284821 0.548891 -0.127949
H13   H     H_    0.010834 0.294059 0.328069 0.145849
H14   H     H_    0.063190 0.139142 0.323023 0.144487
H15   H     H_    0.141743 0.074543 0.462665 0.131425
H16   H     H_    0.169085 0.167563 0.607865 0.134827
H17   H     H_    0.119684 0.324339 0.613070 0.135906
C53   C     C_R   0.937072 0.676532 0.529236 0.097577
C54   C     C_R   0.954093 0.730080 0.610301 -0.170745
C55   C     C_R   0.925407 0.818922 0.613243 -0.103545
C56   C     C_R   0.880321 0.855303 0.535105 -0.108842
C57   C     C_R   0.863661 0.802778 0.453923 -0.150815
C58   C     C_R   0.891586 0.713814 0.451084 -0.127693
H18   H     H_    0.991245 0.704901 0.670189 0.144861
H19   H     H_    0.939082 0.859914 0.675673 0.143923
H20   H     H_    0.858873 0.924327 0.537176 0.130981
H21   H     H_    0.829668 0.831054 0.392728 0.135939
H22   H     H_    0.878776 0.674198 0.387213 0.136782
N3    N     N_R   0.360314 0.701352 0.899136 0.131178
O9    O     O_R   0.296009 0.681988 0.846391 -0.428227
O10   O     O_R   0.376876 0.784255 0.913941 -0.289723
N4    N     N_R   0.638268 0.298135 0.100932 0.122682
O11   O     O_R   0.596271 0.239839 0.149146 -0.360384
O12   O     O_R   0.718844 0.285290 0.088035 -0.342633
N5    N     N_R   0.359752 0.701053 0.105047 0.133787
O13   O     O_R   0.397706 0.755848 0.161827 -0.355516
O14   O     O_R   0.279744 0.713340 0.089059 -0.316854
N6    N     N_R   0.645115 0.303038 0.894895 0.135027
O15   O     O_R   0.707754 0.325559 0.839762 -0.390300
O16   O     O_R   0.631333 0.219281 0.908283 -0.280178
C59   C     C_R   0.960491 0.460509 0.301940 0.083849
C60   C     C_R   0.028777 0.451248 0.236510 -0.150727
C61   C     C_R   0.015224 0.436578 0.137259 -0.144345
C62   C     C_R   0.933412 0.431882 0.102178 -0.087791
C63   C     C_R   0.865104 0.441712 0.166385 -0.096820
C64   C     C_R   0.878412 0.455881 0.265807 -0.186048
H23   H     H_    0.092593 0.454785 0.262637 0.143954
H24   H     H_    0.068187 0.428891 0.087556 0.139045
H25   H     H_    0.922945 0.420691 0.025291 0.149190
H26   H     H_    0.801691 0.438445 0.139132 0.165729
H27   H     H_    0.824337 0.462799 0.313316 0.149385
C65   C     C_R   0.038302 0.537242 0.697610 0.073388
C66   C     C_R   0.969237 0.548391 0.761701 -0.147028
C67   C     C_R   0.981650 0.560670 0.861552 -0.136696
C68   C     C_R   0.063054 0.560836 0.898583 -0.103933
C69   C     C_R   0.132064 0.548735 0.835778 -0.079215
C70   C     C_R   0.119971 0.537442 0.735652 -0.173181
H28   H     H_    0.905704 0.547873 0.734094 0.148531
H29   H     H_    0.928137 0.569673 0.910260 0.142443
H30   H     H_    0.072673 0.570057 0.975940 0.144930
H31   H     H_    0.195036 0.547591 0.864846 0.177528
H32   H     H_    0.174563 0.528468 0.689198 0.152689
C71   C     C_R   0.340928 0.771578 0.522571 0.034637
C72   C     C_R   0.296673 0.748279 0.438895 -0.130371
C73   C     C_R   0.215528 0.716943 0.447758 -0.124659
C74   C     C_R   0.178732 0.708535 0.540029 -0.144868
C75   C     C_R   0.223347 0.729469 0.623659 -0.113202
C76   C     C_R   0.304468 0.761059 0.615134 -0.112076
H33   H     H_    0.324007 0.756981 0.367071 0.181388
H34   H     H_    0.180885 0.700276 0.383116 0.147414
H35   H     H_    0.115823 0.685439 0.546898 0.149235
H36   H     H_    0.194307 0.722795 0.694772 0.187735
H37   H     H_    0.337838 0.780030 0.679997 0.189532
C77   C     C_R   0.659018 0.228308 0.476861 0.037230
C78   C     C_R   0.693452 0.239580 0.383471 -0.120011
C79   C     C_R   0.774268 0.271255 0.372645 -0.138707
C80   C     C_R   0.820912 0.291209 0.455083 -0.138607
C81   C     C_R   0.786264 0.281772 0.548371 -0.113125
C82   C     C_R   0.705225 0.250573 0.559402 -0.129451
H38   H     H_    0.658764 0.220946 0.319685 0.202442
H39   H     H_    0.801308 0.278683 0.300554 0.175181
H40   H     H_    0.883695 0.314324 0.446532 0.148614
H41   H     H_    0.822446 0.297532 0.612114 0.154142
H42   H     H_    0.679521 0.241132 0.631906 0.176513

loop_
_geom_bond_atom_site_label_1
_geom_bond_atom_site_label_2
_geom_bond_distance
_ccdc_geom_bond_type
C18   C20   1.408010 A    
C59   C64   1.405535 A    
C43   C45   1.415932 A    
N3    O9    1.299791 A    
C18   C77   1.475685 S    
C66   C67   1.397607 A    
C21   H3    1.085626 S    
C49   C50   1.396533 A    
C46   N6    1.435707 S    
C24   C30   1.395775 A    
C74   H35   1.075432 S    
C8    C14   1.535524 S    
C66   H28   1.083335 S    
O7    Cu2   1.934497 S    
C72   C73   1.395633 A    
C68   H30   1.082180 S    
C62   C63   1.396630 A    
C5    H1    1.109905 S    
C48   H13   1.077392 S    
O1    C1    1.287844 A    
C23   C25   1.410623 A    
C12   C14   1.543144 S    
C57   H21   1.082039 S    
C47   C52   1.405158 A    
C37   C39   1.413286 A    
C60   C61   1.397836 A    
C38   C40   1.412879 A    
C53   C58   1.405080 A    
C4    C10   1.425672 S    
C65   C66   1.406581 A    
C40   C42   1.413694 A    
C61   H24   1.082264 S    
O4    Cu1   1.964978 S    
C71   C76   1.402478 A    
C8    C53   1.508678 S    
C11   C65   1.509207 S    
C67   C68   1.396092 A    
C41   C46   1.415185 A    
C28   C31   1.409897 A    
N5    O13   1.301186 A    
N4    O12   1.300909 A    
C49   H14   1.082373 S    
C19   C21   1.393675 A    
C22   H4    1.085618 S    
C51   H16   1.082055 S    
C34   H10   1.080374 S    
C6    H2    1.110078 S    
C1    C20   1.451722 S    
C5    C11   1.549704 S    
C2    C19   1.451513 S    
C9    C15   1.200932 T    
C39   C40   1.419973 A    
C6    C12   1.549977 S    
C10   C16   1.200462 T    
Cu1   Cu2   2.671087 S    
C29   C31   1.389814 A    
O2    C2    1.288234 A    
C30   C32   1.389928 A    
O2    Cu2   1.964064 S    
C34   N2    1.362179 A    
C37   C43   1.416165 A    
Cu1   N1    2.006873 S    
C60   H23   1.083294 S    
N1    C35   1.363207 A    
C38   C44   1.415267 A    
C82   H42   1.083227 S    
C25   C27   1.414912 A    
C56   H20   1.082448 S    
N2    C36   1.363439 A    
C39   C41   1.414050 A    
C7    C12   1.547223 S    
C50   C51   1.396722 A    
C8    C11   1.546737 S    
C55   C56   1.396561 A    
C45   N5    1.436005 S    
O4    C2    1.288413 A    
C75   H36   1.081760 S    
C65   C70   1.405242 A    
C57   C58   1.396473 A    
C31   H7    1.082064 S    
C5    C14   1.545921 S    
C33   H9    1.080326 S    
C76   H37   1.082887 S    
C56   C57   1.396764 A    
C3    C9    1.426531 S    
C70   H32   1.077389 S    
C33   N1    1.361864 A    
C44   C46   1.415504 A    
C62   H25   1.082361 S    
C52   H17   1.083406 S    
O5    C3    1.289817 A    
C51   C52   1.396484 A    
C72   H33   1.083176 S    
C25   C26   1.409575 A    
C78   H38   1.080229 S    
C54   C55   1.398258 A    
O6    C4    1.289589 A    
N4    O11   1.300590 A    
C17   C27   1.411741 A    
C29   H5    1.080128 S    
C18   C28   1.411563 A    
C30   H6    1.080152 S    
C79   C80   1.395788 A    
C68   C69   1.396468 A    
N6    O16   1.300982 A    
O7    C3    1.290808 A    
C44   N4    1.433493 S    
C35   H11   1.080409 S    
O3    Cu2   1.964981 S    
O8    C4    1.290616 A    
C80   H40   1.075722 S    
C63   H26   1.082292 S    
Cu2   N2    2.006873 S    
C7    C47   1.508771 S    
C36   H12   1.081262 S    
C50   H15   1.082454 S    
C35   C37   1.416631 A    
O1    Cu1   1.964064 S    
C55   H19   1.082370 S    
C61   C62   1.396512 A    
C71   C72   1.401980 A    
C69   C70   1.398591 A    
C73   C74   1.397297 A    
C32   H8    1.081992 S    
C6    C13   1.547265 S    
C5    C7    1.551710 S    
O6    Cu2   1.938290 S    
C42   C45   1.415386 A    
N5    O14   1.301112 A    
C69   H31   1.081642 S    
C81   H41   1.081434 S    
C48   C49   1.398279 A    
O3    C1    1.288925 A    
O8    Cu1   1.934497 S    
C79   H39   1.082184 S    
C78   C79   1.395040 A    
C27   C32   1.409937 A    
C13   C15   1.459667 S    
C59   C60   1.406252 A    
C43   N3    1.434253 S    
C14   C16   1.458940 S    
C77   C82   1.401667 A    
C7    C13   1.535914 S    
C17   C71   1.475929 S    
C74   C75   1.395368 A    
C47   C48   1.405579 A    
C17   C19   1.408068 A    
C34   C42   1.416290 A    
C80   C81   1.397935 A    
C26   C28   1.414820 A    
C33   C41   1.415755 A    
N3    O10   1.300944 A    
C24   C26   1.410587 A    
C21   C23   1.392506 A    
C36   C38   1.416389 A    
C54   H18   1.077634 S    
C22   C24   1.392641 A    
C67   H29   1.082366 S    
C11   C13   1.543169 S    
N6    O15   1.301200 A    
C23   C29   1.395756 A    
C77   C78   1.401395 A    
C73   H34   1.081675 S    
O5    Cu1   1.938290 S    
C6    C8    1.552084 S    
C53   C54   1.405585 A    
C63   C64   1.398278 A    
C81   C82   1.395961 A    
C12   C59   1.509751 S    
C58   H22   1.083388 S    
C64   H27   1.076903 S    
C75   C76   1.396346 A    
C20   C22   1.393791 A    
