data_mof_unit_8850.cif
_audit_creation_date              2012-12-10T17:50:43-0500
_audit_creation_method            fapswitch 2.2
_symmetry_space_group_name_H-M    P1
_symmetry_Int_Tables_number       1
_space_group_crystal_system       triclinic
_cell_length_a                    14.720912
_cell_length_b                    14.586142
_cell_length_c                    15.867247
_cell_angle_alpha                 76.613468
_cell_angle_beta                  103.283642
_cell_angle_gamma                 115.237503
_cell_volume                      2964.65814748

loop_
_atom_site_label
_atom_site_type_symbol
_atom_type_description
_atom_site_fract_x
_atom_site_fract_y
_atom_site_fract_z
_atom_type_partial_charge
C1    C     C_R   0.879680 0.310942 0.513777 0.855947
C2    C     C_R   0.119893 0.688368 0.487782 0.856850
C3    C     C_R   0.782712 0.019348 0.553824 -0.285961
C4    C     C_R   0.225047 0.956578 0.543405 -0.257101
C5    C     C_R   0.850652 0.123033 0.543412 0.449912
C6    C     C_R   0.154374 0.860857 0.522446 0.423348
C7    C     C_R   0.705622 0.171354 0.520517 0.441385
C8    C     C_R   0.291392 0.827594 0.491901 0.447139
C9    C     C_R   0.641867 0.068262 0.546373 -0.024917
C10   C     C_R   0.363921 0.913831 0.529989 -0.030179
C11   C     C_R   0.679817 0.991993 0.555527 -0.054481
C12   C     C_R   0.329238 0.982570 0.548945 -0.061236
C13   C     C_R   0.538712 0.038211 0.555516 -0.104120
C14   C     C_R   0.469815 0.936172 0.546270 -0.103356
C15   C     C_R   0.510107 0.859734 0.560639 0.564476
C16   C     C_R   0.502906 0.103835 0.579337 0.558135
C17   C     C_R   0.614250 0.888664 0.565249 -0.265981
C18   C     C_R   0.398956 0.075513 0.575287 -0.268454
C19   C     C_R   0.709737 0.660522 0.347721 -0.382206
C20   C     C_R   0.291309 0.340589 0.652649 -0.403172
C21   C     C_R   0.796675 0.638497 0.376204 0.712346
C22   C     C_R   0.206292 0.366011 0.627219 0.716289
C23   C     C_R   0.999911 0.499873 0.660040 0.796227
C24   C     C_R   0.000208 0.500302 0.339905 0.810263
C25   C     C_R   0.715062 0.509303 0.488331 -0.002349
C26   C     C_R   0.284274 0.490206 0.510903 0.011805
C27   C     C_R   0.629378 0.536055 0.468304 -0.026898
C28   C     C_R   0.370827 0.464819 0.531398 -0.010002
C29   C     C_R   0.626287 0.608925 0.392812 0.004009
C30   C     C_R   0.374303 0.391997 0.606980 -0.005012
C31   C     C_R   0.545591 0.490972 0.517339 -0.089297
C32   C     C_R   0.454635 0.510257 0.482232 -0.070646
C33   C     C_R   0.451021 0.572407 0.398586 0.494850
C34   C     C_R   0.549609 0.429278 0.601039 0.525572
C35   C     C_R   0.538167 0.626233 0.359379 -0.221733
C36   C     C_R   0.462472 0.374635 0.640078 -0.221593
C37   C     C_3   0.065398 0.462769 0.050172 0.522412
C38   C     C_3   0.935787 0.538618 0.949457 0.520193
C39   C     C_3   0.972870 0.402589 0.986558 -0.384064
C40   C     C_3   0.028304 0.598810 0.013087 -0.382014
C41   C     C_1   0.000054 0.499903 0.749568 -0.161067
C42   C     C_1   0.000444 0.500775 0.250258 -0.128140
C43   C     C_3   0.094332 0.559004 0.980462 -0.078988
C44   C     C_3   0.906831 0.442385 0.019149 -0.075464
C45   C     C_3   0.001790 0.500271 0.916840 -0.011308
C46   C     C_3   0.999372 0.501093 0.082849 -0.013786
C47   C     C_1   0.000655 0.499997 0.825107 0.069859
C48   C     C_1   0.000215 0.501073 0.174662 0.083194
C49   C     C_R   0.811411 0.200151 0.525610 -0.285000
C50   C     C_R   0.187770 0.795700 0.496398 -0.286173
Cu1   Cu    Cu3+1 0.081740 0.475690 0.522610 1.021521
Cu2   Cu    Cu3+1 0.918260 0.524310 0.477390 1.015348
H1    H     H_    0.950256 0.323185 0.974598 0.165056
H2    H     H_    0.050928 0.678238 0.024985 0.167994
H3    H     H_    0.279542 0.553044 0.461948 0.243863
H4    H     H_    0.718363 0.445142 0.536378 0.246197
H5    H     H_    0.706279 0.715855 0.289596 0.151616
H6    H     H_    0.293241 0.281754 0.708190 0.146093
H7    H     H_    0.643443 0.829493 0.575255 0.158362
H8    H     H_    0.373040 0.126730 0.593248 0.160838
H9    H     H_    0.809589 0.959362 0.559647 0.154333
H10   H     H_    0.198460 0.008613 0.559031 0.159037
H11   H     H_    0.534309 0.677675 0.298411 0.165683
H12   H     H_    0.466645 0.323294 0.701060 0.163714
N1    N     N_R   0.795440 0.560790 0.443380 -0.237973
N2    N     N_R   0.204560 0.439210 0.556620 -0.240883
O1    O     O_R   0.977900 0.338120 0.529810 -0.493698
O2    O     O_R   0.022100 0.661880 0.470190 -0.512224
O3    O     O_R   0.839850 0.379180 0.491620 -0.553827
O4    O     O_R   0.160150 0.620820 0.508380 -0.557393
O5    O     O_R   0.069010 0.479460 0.640020 -0.549418
O6    O     O_R   0.930990 0.520540 0.359980 -0.536233
O7    O     O_R   0.930960 0.520530 0.601820 -0.590257
O8    O     O_R   0.069040 0.479470 0.398180 -0.587169
O9    O     O_3   0.121506 0.315014 0.669458 -0.545001
C51   C     C_3   0.148506 0.317445 0.760525 -0.357517
H13   H     H_    0.079548 0.302049 0.787817 0.191167
H14   H     H_    0.205785 0.393809 0.776057 0.164406
H15   H     H_    0.175824 0.255995 0.793536 0.146270
O10   O     O_3   0.879914 0.686117 0.331846 -0.554602
C52   C     C_3   0.912567 0.793868 0.319002 -0.297288
H16   H     H_    0.993354 0.828763 0.309070 0.191783
H17   H     H_    0.908236 0.822590 0.376625 0.189676
H18   H     H_    0.868541 0.820012 0.258917 0.143726
O11   O     O_3   0.363111 0.581783 0.352021 -0.613832
C53   C     C_3   0.311547 0.501489 0.301451 -0.270118
H19   H     H_    0.291334 0.425011 0.343375 0.155164
H20   H     H_    0.357080 0.507497 0.251770 0.176874
H21   H     H_    0.239654 0.507672 0.265830 0.235578
O12   O     O_3   0.638228 0.421906 0.648003 -0.596329
C54   C     C_3   0.689000 0.503757 0.696942 -0.293219
H22   H     H_    0.708308 0.579418 0.653778 0.147949
H23   H     H_    0.643307 0.498456 0.746219 0.176063
H24   H     H_    0.761359 0.499023 0.732929 0.236521
O13   O     O_3   0.134774 0.426310 0.108969 -0.577935
C55   C     C_3   0.168697 0.376009 0.065032 -0.319735
H25   H     H_    0.199002 0.424746 0.004474 0.162171
H26   H     H_    0.106967 0.302032 0.049511 0.159943
H27   H     H_    0.231421 0.358418 0.109157 0.184962
O14   O     O_3   0.866505 0.575014 0.890426 -0.584927
C56   C     C_3   0.832564 0.625603 0.934021 -0.321553
H28   H     H_    0.894366 0.699542 0.949543 0.161563
H29   H     H_    0.801982 0.576987 0.994507 0.173178
H30   H     H_    0.770037 0.643310 0.889644 0.181048
C57   C     C_2   0.801141 0.377394 0.038829 0.857530
O15   O     O_2   0.735215 0.336005 0.981100 -0.589485
O16   O     O_R   0.778367 0.364555 0.122623 -0.779198
H31   H     H_    0.704513 0.319186 0.127570 0.324843
C58   C     C_2   0.199903 0.623953 0.960428 0.851915
O17   O     O_2   0.266054 0.665495 0.017957 -0.583108
O18   O     O_R   0.222306 0.636557 0.876524 -0.790865
H32   H     H_    0.296110 0.681886 0.871316 0.321421
O19   O     O_3   0.320201 0.775179 0.447730 -0.518018
C59   C     C_3   0.325904 0.825110 0.360564 -0.275704
H33   H     H_    0.384869 0.904781 0.357572 0.144976
H34   H     H_    0.250891 0.825321 0.326436 0.134861
H35   H     H_    0.348006 0.782541 0.324933 0.224595
O20   O     O_3   0.663606 0.243155 0.484652 -0.519541
C60   C     C_3   0.630779 0.237972 0.394436 -0.269854
H36   H     H_    0.568957 0.162291 0.383209 0.143308
H37   H     H_    0.694957 0.254045 0.359783 0.155717
H38   H     H_    0.599823 0.297558 0.365504 0.185675
O21   O     O_3   0.052312 0.833141 0.523626 -0.572949
C61   C     C_3   0.034173 0.803862 0.611341 -0.283309
H39   H     H_    0.070676 0.870645 0.647477 0.142877
H40   H     H_    0.060168 0.741570 0.645819 0.160080
H41   H     H_    0.951120 0.773616 0.611597 0.180946
O22   O     O_3   0.952558 0.150904 0.538557 -0.539301
C62   C     C_3   0.996530 0.092982 0.605535 -0.235954
H42   H     H_    0.972194 0.082169 0.669903 0.149891
H43   H     H_    0.080221 0.135025 0.613636 0.192341
H44   H     H_    0.980083 0.018121 0.586687 0.143008
O23   O     O_3   0.450496 0.756013 0.575778 -0.532576
C63   C     C_3   0.435887 0.728237 0.664365 -0.310665
H45   H     H_    0.393675 0.768281 0.680120 0.155854
H46   H     H_    0.509528 0.743457 0.708919 0.141471
H47   H     H_    0.389483 0.644655 0.676408 0.195072
O24   O     O_3   0.568476 0.192584 0.613107 -0.525045
C64   C     C_3   0.598503 0.166381 0.703264 -0.265936
H48   H     H_    0.639759 0.114941 0.714885 0.135874
H49   H     H_    0.532136 0.130445 0.739390 0.142684
H50   H     H_    0.651417 0.237481 0.730305 0.230490

loop_
_geom_bond_atom_site_label_1
_geom_bond_atom_site_label_2
_ccdc_geom_bond_type
C56   H28   S    
C27   C29   A    
C24   C42   S    
O18   H32   S    
C51   H15   S    
O22   C62   S    
C63   H47   S    
C52   H16   S    
O21   C61   S    
C20   C30   A    
C44   C57   S    
C19   H5    S    
C40   C46   S    
C57   O16   S    
C22   O9    S    
C19   C21   A    
C51   H14   S    
C62   H42   S    
C2    O2    A    
C58   O18   S    
C64   H50   S    
C53   H20   S    
C55   H27   S    
C4    H10   S    
C37   O13   S    
C15   C17   A    
C9    C13   A    
O20   C60   S    
C22   N2    A    
C38   C45   S    
C33   O11   S    
Cu2   O3    S    
C2    C50   S    
C1    O1    A    
C40   C43   S    
C21   O10   S    
O13   C55   S    
C55   H26   S    
O16   H31   S    
C25   H4    S    
Cu1   O4    S    
C4    C12   A    
Cu2   O2    S    
C39   C45   S    
C62   H44   S    
C3    H9    S    
C56   H29   S    
C13   C14   A    
C26   H3    S    
C7    O20   S    
C5    C49   A    
Cu1   O5    S    
C6    O21   S    
C23   O7    A    
C52   H17   S    
C44   C46   S    
C59   H33   S    
C45   C47   S    
C46   C48   S    
C27   C31   A    
Cu1   Cu2   S    
C26   N2    A    
C23   O5    A    
C28   C32   A    
C25   N1    A    
C51   H13   S    
C7    C49   A    
C4    C6    A    
Cu2   O7    S    
C10   C14   A    
C54   H22   S    
C53   H19   S    
C42   C48   T    
O11   C53   S    
C1    O3    A    
Cu1   O8    S    
Cu1   N2    S    
C37   C43   S    
O9    C51   S    
C34   O12   S    
C38   C44   S    
Cu2   O6    S    
C54   H23   S    
C9    C11   A    
C31   C32   A    
C64   H48   S    
C55   H25   S    
C41   C47   T    
C31   C34   A    
C16   C18   A    
Cu1   O1    S    
C6    C50   A    
C43   C45   S    
C39   C44   S    
C60   H37   S    
C10   C12   A    
C8    O19   S    
C17   H7    S    
C61   H41   S    
C18   H8    S    
C20   C22   A    
C56   H30   S    
C40   H2    S    
O23   C63   S    
C20   H6    S    
C19   C29   A    
C8    C50   A    
C52   H18   S    
C24   O6    A    
C61   H40   S    
O19   C59   S    
C60   H38   S    
C7    C9    A    
C11   C17   A    
C21   N1    A    
C16   O24   S    
O10   C52   S    
C3    C5    A    
C53   H21   S    
C59   H34   S    
C60   H36   S    
C63   H45   S    
C15   O23   S    
C25   C27   A    
C57   O15   D    
C29   C35   A    
C26   C28   A    
C23   C41   S    
C30   C36   A    
C32   C33   A    
C28   C30   A    
C37   C39   S    
C36   H12   S    
C58   O17   D    
C54   H24   S    
C38   C40   S    
C64   H49   S    
C38   O14   S    
C24   O8    A    
O12   C54   S    
C39   H1    S    
C5    O22   S    
O14   C56   S    
C33   C35   A    
C63   H46   S    
C34   C36   A    
C59   H35   S    
C3    C11   A    
O24   C64   S    
C8    C10   A    
C13   C16   A    
C12   C18   A    
C14   C15   A    
C35   H11   S    
C43   C58   S    
C37   C46   S    
C2    O4    A    
C1    C49   S    
Cu2   N1    S    
C61   H39   S    
C62   H43   S    
