data_mof_unit_15381.cif
_audit_creation_date              2012-12-10T19:10:30-0500
_audit_creation_method            fapswitch 2.2
_symmetry_space_group_name_H-M    P1
_symmetry_Int_Tables_number       1
_space_group_crystal_system       triclinic
_cell_length_a                    10.646336
_cell_length_b                    9.700602
_cell_length_c                    15.743365
_cell_angle_alpha                 90.003722
_cell_angle_beta                  89.941778
_cell_angle_gamma                 90.077573
_cell_volume                      1625.90735732

loop_
_atom_site_label
_atom_site_type_symbol
_atom_type_description
_atom_site_fract_x
_atom_site_fract_y
_atom_site_fract_z
_atom_type_partial_charge
C1    C     C_R   0.257756 0.500093 0.501554 0.938637
C2    C     C_3   0.928474 0.396206 0.570528 0.205983
C3    C     C_3   0.072535 0.474063 0.407422 0.678036
C4    C     C_3   0.121451 0.500625 0.500639 -0.218211
C5    C     C_3   0.878720 0.500892 0.502705 -0.134894
C6    C     C_R   0.500083 0.499994 0.338182 0.935064
C7    C     C_3   0.925237 0.460943 0.410623 0.629398
C8    C     C_3   0.412587 0.081057 0.433271 -0.214353
C9    C     C_3   0.412785 0.918640 0.433143 -0.229038
C10   C     C_3   0.626257 0.081431 0.478902 -0.374968
C11   C     C_3   0.626285 0.918961 0.479040 -0.383983
C12   C     C_3   0.635048 0.500184 0.950971 -0.332920
C13   C     C_3   0.461368 0.081830 0.582295 0.377773
C14   C     C_3   0.461154 0.918086 0.582251 0.377271
C15   C     C_R   0.742310 0.500256 0.502666 1.007292
C16   C     C_R   0.500081 0.500002 0.661779 0.896261
C17   C     C_3   0.428699 0.630402 0.049518 0.172268
C18   C     C_3   0.428715 0.369313 0.049504 0.175648
C19   C     C_3   0.428762 0.369319 0.950488 0.171221
C20   C     C_3   0.428742 0.630401 0.950504 0.175591
C21   C     C_1   0.499578 0.499996 0.750558 -0.166370
C22   C     C_3   0.498115 0.499965 0.082590 0.143617
C23   C     C_3   0.635000 0.500177 0.048851 -0.336203
C24   C     C_3   0.498199 0.499971 0.917359 0.150328
C25   C     C_1   0.498982 0.499981 0.825809 0.056519
C26   C     C_1   0.498830 0.499968 0.174144 0.063794
C27   C     C_1   0.499464 0.499980 0.249397 -0.142244
C28   C     C_3   0.072659 0.643581 0.531650 -0.408027
C29   C     C_3   0.072189 0.390794 0.564859 -0.468204
C30   C     C_3   0.929584 0.648499 0.525159 0.269931
H1    H     H_    0.329304 0.625926 0.927950 0.032155
H2    H     H_    0.659317 0.880101 0.416399 0.209908
H3    H     H_    0.695424 0.119311 0.526410 0.159975
H4    H     H_    0.695143 0.881648 0.526785 0.177519
H5    H     H_    0.111847 0.729826 0.493164 0.201085
H6    H     H_    0.101771 0.284897 0.547126 0.170697
H7    H     H_    0.103282 0.661496 0.598430 0.239251
H8    H     H_    0.114119 0.410099 0.628606 0.244269
H9    H     H_    0.195732 0.583673 0.343566 0.341994
H10   H     H_    0.129670 0.279636 0.410271 0.308414
H11   H     H_    0.888461 0.518484 0.294225 0.389650
H12   H     H_    0.329324 0.373479 0.927932 0.032857
H13   H     H_    0.924421 0.257752 0.424767 0.297211
H14   H     H_    0.531204 0.117031 0.630605 0.038843
H15   H     H_    0.530694 0.882831 0.630679 0.052443
H16   H     H_    0.336288 0.128677 0.667710 0.318264
H17   H     H_    0.335614 0.871065 0.667398 0.317834
H18   H     H_    0.329244 0.625947 0.072175 0.039037
H19   H     H_    0.329258 0.373459 0.072159 0.043017
H20   H     H_    0.422311 0.175074 0.079934 0.340334
H21   H     H_    0.422275 0.824619 0.079969 0.339475
H22   H     H_    0.422324 0.175135 0.919898 0.335445
H23   H     H_    0.903547 0.721381 0.473172 0.143495
H24   H     H_    0.422268 0.824567 0.919935 0.335150
H25   H     H_    0.686444 0.592484 0.072459 0.218358
H26   H     H_    0.686451 0.408025 0.072447 0.219580
H27   H     H_    0.686508 0.592500 0.927330 0.220136
H28   H     H_    0.686523 0.408036 0.927315 0.217093
H29   H     H_    0.896403 0.797429 0.604665 0.320387
H30   H     H_    0.804704 0.404440 0.661653 0.329605
H31   H     H_    0.891592 0.290367 0.558681 0.086518
H32   H     H_    0.439576 0.119136 0.369169 0.167104
H33   H     H_    0.440291 0.881024 0.369049 0.161907
H34   H     H_    0.315625 0.119108 0.444677 0.196631
H35   H     H_    0.315846 0.879842 0.444160 0.198238
H36   H     H_    0.658920 0.120040 0.416094 0.226063
N1    N     N_3   0.499750 0.138610 0.498180 -0.066407
N2    N     N_3   0.499750 0.861390 0.498180 -0.064274
O1    O     O_R   0.314910 0.616040 0.499980 -0.600289
O2    O     O_3   0.126952 0.356298 0.369007 -0.761080
O3    O     O_3   0.871003 0.553947 0.352248 -0.745203
O4    O     O_3   0.883836 0.327038 0.387903 -0.754499
O5    O     O_3   0.342836 0.134461 0.604895 -0.730007
O6    O     O_3   0.342382 0.865458 0.604588 -0.731704
O7    O     O_3   0.486196 0.249668 0.081926 -0.690453
O8    O     O_3   0.486169 0.750224 0.081951 -0.693386
O9    O     O_3   0.486270 0.249678 0.917988 -0.700941
O10   O     O_3   0.486227 0.750228 0.918015 -0.697744
O11   O     O_3   0.878154 0.697103 0.601953 -0.702028
O12   O     O_R   0.314910 0.383960 0.499980 -0.585499
O13   O     O_3   0.892816 0.435247 0.653247 -0.675741
O14   O     O_R   0.500120 0.616090 0.377110 -0.628956
O15   O     O_R   0.500120 0.383910 0.377110 -0.604154
O16   O     O_R   0.685320 0.616040 0.499960 -0.600902
O17   O     O_R   0.685320 0.383960 0.499960 -0.646112
O18   O     O_R   0.500110 0.615990 0.622830 -0.592724
O19   O     O_R   0.500110 0.384010 0.622830 -0.615954
O20   O     O_3   0.104608 0.589024 0.356671 -0.748568
Zn1   Zn    Zn3+2 0.500150 0.654960 0.499960 0.979486
Zn2   Zn    Zn3+2 0.500150 0.345040 0.499960 0.971982

loop_
_geom_bond_atom_site_label_1
_geom_bond_atom_site_label_2
_ccdc_geom_bond_type
C16   C21   S    
C6    O14   A    
C17   H18   S    
C23   H26   S    
C10   N1    S    
C29   H6    S    
C26   C27   T    
H13   O4    S    
O14   Zn1   S    
H10   O2    S    
C2    C29   S    
C14   O6    S    
C3    C7    S    
C7    O3    S    
C17   C20   S    
C18   C19   S    
C19   O9    S    
C20   C24   S    
C28   H5    S    
C8    C9    S    
C29   H8    S    
C16   O19   A    
C18   O7    S    
C4    C29   S    
C19   H12   S    
H11   O3    S    
C12   H28   S    
C18   C22   S    
C13   C14   S    
C16   O18   A    
H9    O20   S    
O1    Zn1   S    
C4    C28   S    
C14   H15   S    
C10   H36   S    
C30   H23   S    
C3    O2    S    
H21   O8    S    
H29   O11   S    
C7    O4    S    
C5    C7    S    
N1    Zn2   S    
C1    O1    A    
C17   O8    S    
H30   O13   S    
C6    C27   S    
C12   C23   S    
N2    Zn1   S    
C24   C25   S    
C8    H34   S    
C12   H27   S    
C13   O5    S    
C11   H2    S    
C2    C5    S    
O16   Zn1   S    
C30   O11   S    
H22   O9    S    
C11   N2    S    
C5    C30   S    
C13   N1    S    
O15   Zn2   S    
C21   C25   T    
C6    O15   A    
C3    O20   S    
C9    H33   S    
C11   H4    S    
H17   O6    S    
O18   Zn1   S    
O17   Zn2   S    
C2    H31   S    
C23   H25   S    
C15   O16   A    
C20   O10   S    
C12   C24   S    
C17   C22   S    
C15   O17   A    
C1    C4    S    
C28   C30   S    
C19   C24   S    
C9    N2    S    
H20   O7    S    
C28   H7    S    
C10   H3    S    
H16   O5    S    
O12   Zn2   S    
C9    H35   S    
C5    C15   S    
C10   C11   S    
C8    N1    S    
C22   C26   S    
O19   Zn2   S    
C1    O12   A    
C14   N2    S    
C22   C23   S    
C2    O13   S    
C13   H14   S    
C3    C4    S    
C18   H19   S    
C8    H32   S    
H24   O10   S    
C20   H1    S    
