data_mof_unit_35481.cif
_audit_creation_date              2012-12-10T16:44:38-0500
_audit_creation_method            fapswitch 2.2
_symmetry_space_group_name_H-M    P1
_symmetry_Int_Tables_number       1
_space_group_crystal_system       triclinic
_cell_length_a                    14.965638
_cell_length_b                    8.669716
_cell_length_c                    7.516132
_cell_angle_alpha                 101.017641
_cell_angle_beta                  95.424492
_cell_angle_gamma                 93.35311
_cell_volume                      950.011487701

loop_
_atom_site_label
_atom_site_type_symbol
_atom_type_description
_atom_site_fract_x
_atom_site_fract_y
_atom_site_fract_z
_atom_type_partial_charge
C1    C     C_R   0.501381 0.202087 0.457353 0.800052
C2    C     C_R   0.497848 0.797885 0.543201 0.797002
C3    C     C_R   0.026770 0.251742 0.274559 0.474968
C4    C     C_R   0.973267 0.747158 0.726125 0.479022
C5    C     C_2   0.520193 0.041872 0.448203 0.215737
C6    C     C_2   0.479659 0.958970 0.555154 0.220650
C7    C     C_R   0.329160 0.498312 0.500539 0.763194
C8    C     C_R   0.670835 0.501428 0.499469 0.766361
C9    C     C_R   0.822849 0.621671 0.614938 -0.217087
C10   C     C_R   0.177171 0.377760 0.385011 -0.238470
C11   C     C_R   0.767281 0.502263 0.497927 -0.055250
C12   C     C_R   0.232716 0.497037 0.502282 -0.061476
C13   C     C_R   0.803491 0.383358 0.380015 -0.211300
C14   C     C_R   0.196492 0.615232 0.621112 -0.232963
C15   C     C_R   0.896471 0.379794 0.382568 0.056841
C16   C     C_R   0.103532 0.618832 0.618482 0.060267
C17   C     C_R   0.953206 0.500548 0.499742 -0.009247
C18   C     C_R   0.046804 0.498258 0.501038 -0.005818
C19   C     C_R   0.916233 0.623893 0.614868 0.021110
C20   C     C_R   0.083791 0.375133 0.385615 0.024781
C21   C     C_R   0.933358 0.256782 0.271037 -0.312475
C22   C     C_R   0.066669 0.741803 0.730097 -0.317431
Cu1   Cu    Cu3+1 0.510010 0.517380 0.684380 1.040355
Cu2   Cu    Cu3+1 0.489990 0.482620 0.315620 1.044285
H1    H     H_    0.792755 0.713671 0.703233 0.161812
H2    H     H_    0.207278 0.286132 0.296212 0.158938
H3    H     H_    0.759160 0.291714 0.289981 0.149327
H4    H     H_    0.240791 0.706411 0.711884 0.145411
H5    H     H_    0.889812 0.163473 0.182109 0.169012
H6    H     H_    0.110231 0.834964 0.819229 0.167680
N1    N     N_2   0.474890 0.456420 0.038520 0.149492
N2    N     N_2   0.525110 0.543580 0.961480 0.145324
O1    O     O_R   0.506510 0.286130 0.619770 -0.522484
O2    O     O_R   0.493490 0.713870 0.380230 -0.552416
O3    O     O_R   0.489600 0.256770 0.308360 -0.584519
O4    O     O_R   0.510400 0.743230 0.691640 -0.623633
O5    O     O_R   0.378710 0.514640 0.655720 -0.553775
O6    O     O_R   0.621290 0.485360 0.344280 -0.517711
O7    O     O_R   0.361800 0.485290 0.344300 -0.638416
O8    O     O_R   0.638200 0.514710 0.655700 -0.609718
O9    O     O_3   0.062031 0.129264 0.163565 -0.581276
C23   C     C_3   0.063052 0.999177 0.251235 -0.290364
H7    H     H_    0.993573 0.953532 0.265608 0.178486
H8    H     H_    0.103749 0.029197 0.386932 0.130810
H9    H     H_    0.094846 0.902900 0.166418 0.195106
O10   O     O_3   0.938003 0.869726 0.836984 -0.578461
C24   C     C_3   0.937650 0.000139 0.749830 -0.290874
H10   H     H_    0.897467 0.970592 0.613570 0.131255
H11   H     H_    0.007337 0.045622 0.736762 0.176346
H12   H     H_    0.905667 0.096367 0.834307 0.196791
O11   O     O_3   0.590127 0.985635 0.352486 -0.603305
C25   C     C_3   0.671659 0.025809 0.468319 -0.369827
H13   H     H_    0.674348 0.958992 0.580965 0.152049
H14   H     H_    0.681962 0.154646 0.525139 0.159301
H15   H     H_    0.728882 0.993991 0.388761 0.179564
O12   O     O_3   0.414809 0.019441 0.663544 -0.553085
C26   C     C_3   0.329491 0.982141 0.561295 -0.346360
H16   H     H_    0.317912 0.854716 0.497419 0.141851
H17   H     H_    0.321037 0.054959 0.454907 0.143922
H18   H     H_    0.276560 0.008954 0.653722 0.180321
O13   O     O_3   0.424082 0.341973 0.918387 -0.440534
C27   C     C_3   0.340558 0.319690 0.983190 -0.042613
H19   H     H_    0.294094 0.246796 0.871268 0.125442
H20   H     H_    0.309399 0.433235 0.020253 0.130108
H21   H     H_    0.346354 0.253375 0.095509 0.152782
O14   O     O_3   0.595308 0.621555 0.075368 -0.472328
C28   C     C_3   0.622062 0.759098 0.016108 -0.029231
H22   H     H_    0.677967 0.822680 0.114215 0.147271
H23   H     H_    0.566203 0.837918 0.013911 0.191326
H24   H     H_    0.650862 0.734900 0.885292 0.138098

loop_
_geom_bond_atom_site_label_1
_geom_bond_atom_site_label_2
_ccdc_geom_bond_type
Cu1   O8    S    
Cu1   O1    S    
Cu2   O6    S    
Cu1   Cu2   S    
C27   H19   S    
C4    C22   A    
O9    C23   S    
N1    O13   S    
N1    N2    D    
C25   H15   S    
C15   C21   A    
C28   H24   S    
C16   C22   A    
Cu1   N2    S    
C10   H2    S    
C13   C15   A    
C17   C18   A    
C7    O5    A    
Cu2   N1    S    
C9    H1    S    
C3    C20   A    
C24   H11   S    
C4    O10   S    
O12   C26   S    
C9    C11   A    
C2    O2    A    
C26   H16   S    
C2    C6    S    
C23   H8    S    
C8    C11   S    
C1    C5    S    
C10   C12   A    
C16   C18   A    
C17   C19   A    
C12   C14   A    
C25   H14   S    
O14   C28   S    
C24   H12   S    
C18   C20   A    
C8    O6    A    
C3    O9    S    
C5    C6    D    
C14   C16   A    
C7    C12   S    
C3    C21   A    
Cu2   O3    S    
C26   H17   S    
O13   C27   S    
C1    O1    A    
C28   H22   S    
C24   H10   S    
C11   C13   A    
Cu2   O7    S    
C2    O4    A    
C25   H13   S    
C1    O3    A    
N2    O14   S    
Cu1   O4    S    
C23   H7    S    
C6    O12   S    
C8    O8    A    
C15   C17   A    
C7    O7    A    
O10   C24   S    
C5    O11   S    
C26   H18   S    
C27   H20   S    
C22   H6    S    
C27   H21   S    
C14   H4    S    
Cu1   O5    S    
C4    C19   A    
C21   H5    S    
C9    C19   A    
C13   H3    S    
O11   C25   S    
C10   C20   A    
C28   H23   S    
C23   H9    S    
Cu2   O2    S    
