data_mof_unit_21686.cif
_audit_creation_date              2012-12-10T18:04:36-0500
_audit_creation_method            fapswitch 2.2
_symmetry_space_group_name_H-M    P1
_symmetry_Int_Tables_number       1
_space_group_crystal_system       triclinic
_cell_length_a                    10.823532
_cell_length_b                    9.623861
_cell_length_c                    15.944924
_cell_angle_alpha                 90.217076
_cell_angle_beta                  92.745181
_cell_angle_gamma                 89.897551
_cell_volume                      1658.96967485

loop_
_atom_site_label
_atom_site_type_symbol
_atom_type_description
_atom_site_fract_x
_atom_site_fract_y
_atom_site_fract_z
_atom_type_partial_charge
C1    C     C_R   0.871690 0.500468 0.503227 -0.025056
C2    C     C_R   0.128637 0.501182 0.505618 -0.004339
C3    C     C_R   0.262532 0.500259 0.502432 0.740417
C4    C     C_R   0.737634 0.499999 0.500892 0.763534
C5    C     C_R   0.499498 0.499794 0.341442 0.800429
C6    C     C_R   0.498118 0.500058 0.658460 0.794322
C7    C     C_R   0.475135 0.623905 0.955766 -0.184040
C8    C     C_R   0.508362 0.374205 0.043652 -0.172368
C9    C     C_R   0.475544 0.623865 0.043284 -0.176007
C10   C     C_R   0.507904 0.374238 0.956151 -0.182924
C11   C     C_R   0.491456 0.499103 0.912298 0.163053
C12   C     C_R   0.492437 0.499045 0.087151 0.150105
C13   C     C_1   0.492744 0.499343 0.822731 -0.079498
C14   C     C_1   0.494699 0.499215 0.176844 -0.065215
C15   C     C_1   0.497003 0.499384 0.252116 -0.138942
C16   C     C_1   0.494749 0.499704 0.747602 -0.208718
C17   C     C_R   0.429777 0.074576 0.440692 0.378555
C18   C     C_R   0.570332 0.925900 0.559018 0.380810
C19   C     C_R   0.579980 0.074511 0.553515 0.356022
C20   C     C_R   0.435921 0.925643 0.437540 0.355206
C21   C     C_R   0.065407 0.378641 0.523129 -0.193637
C22   C     C_R   0.934966 0.624552 0.489634 -0.151003
C23   C     C_R   0.937469 0.377679 0.520453 -0.196996
C24   C     C_R   0.062816 0.624799 0.490822 -0.203367
Cu1   Cu    Cu3+1 0.500000 0.640660 0.500000 0.989200
Cu2   Cu    Cu3+1 0.500000 0.359340 0.500000 0.984127
H1    H     H_    0.463217 0.720795 0.076691 0.143187
H2    H     H_    0.520790 0.277391 0.922771 0.129858
H3    H     H_    0.462595 0.720879 0.922079 0.129151
H4    H     H_    0.521549 0.277319 0.077334 0.144883
H5    H     H_    0.114291 0.283816 0.539474 0.134805
H6    H     H_    0.885940 0.721078 0.477150 0.171303
H7    H     H_    0.890482 0.281197 0.532372 0.198472
H8    H     H_    0.109595 0.721543 0.479753 0.131142
N1    N     N_R   0.500000 0.852070 0.500000 -0.275121
N2    N     N_R   0.500000 0.147930 0.500000 -0.274554
O1    O     O_R   0.319640 0.618740 0.499990 -0.615754
O2    O     O_R   0.680360 0.381260 0.500010 -0.552346
O3    O     O_R   0.680360 0.618740 0.500010 -0.535852
O4    O     O_R   0.319640 0.381260 0.499990 -0.580723
O5    O     O_R   0.499970 0.618750 0.380310 -0.535431
O6    O     O_R   0.500030 0.381250 0.619690 -0.608353
O7    O     O_R   0.500030 0.618750 0.619690 -0.551413
O8    O     O_R   0.499970 0.381250 0.380310 -0.508262
O9    O     O_3   0.379189 0.145176 0.371546 -0.512646
C25   C     C_3   0.249949 0.161532 0.377245 0.113051
H9    H     H_    0.221746 0.176075 0.442523 0.118636
H10   H     H_    0.199913 0.070425 0.351970 0.130217
C26   C     C_3   0.205211 0.283131 0.322774 -0.748252
H11   H     H_    0.104254 0.298294 0.328699 0.197110
H12   H     H_    0.253432 0.380372 0.341790 0.234113
H13   H     H_    0.223146 0.261424 0.255971 0.233645
O10   O     O_3   0.652838 0.854131 0.611917 -0.517232
C27   C     C_3   0.612741 0.858248 0.695223 0.089805
H14   H     H_    0.515264 0.823880 0.699269 0.141548
H15   H     H_    0.616852 0.963312 0.722246 0.112413
C28   C     C_3   0.697121 0.766385 0.750718 -0.757123
H16   H     H_    0.791393 0.811361 0.757057 0.227840
H17   H     H_    0.659840 0.757951 0.814173 0.196109
H18   H     H_    0.704724 0.661109 0.722928 0.246862
O11   O     O_3   0.693981 0.132910 0.576845 -0.547497
C29   C     C_3   0.697122 0.195749 0.657217 0.160884
H19   H     H_    0.612626 0.178986 0.692938 0.099149
H20   H     H_    0.708245 0.309321 0.650118 0.171757
C30   C     C_3   0.812621 0.148442 0.707793 -0.874462
H21   H     H_    0.823328 0.034219 0.704705 0.277314
H22   H     H_    0.896179 0.195956 0.682048 0.238308
H23   H     H_    0.806876 0.181232 0.774348 0.208258
O12   O     O_3   0.409695 0.862323 0.360439 -0.521235
C31   C     C_3   0.286576 0.813595 0.352091 0.159749
H24   H     H_    0.223176 0.862621 0.396367 0.057797
H25   H     H_    0.284439 0.700511 0.362837 0.173580
C32   C     C_3   0.238146 0.832833 0.261458 -0.839299
H26   H     H_    0.288732 0.762512 0.219518 0.244729
H27   H     H_    0.138101 0.807151 0.255779 0.202708
H28   H     H_    0.251805 0.941146 0.240275 0.263504

loop_
_geom_bond_atom_site_label_1
_geom_bond_atom_site_label_2
_ccdc_geom_bond_type
C31   H25   S    
O10   C27   S    
C29   H19   S    
C7    H3    S    
C17   N2    A    
C6    O6    A    
C21   H5    S    
C32   H26   S    
C14   C15   T    
C4    O3    A    
C8    C12   A    
C1    C4    S    
C8    H4    S    
Cu1   O7    S    
C2    C21   A    
C2    C3    S    
Cu2   O8    S    
C1    C22   A    
C30   H21   S    
O9    C25   S    
Cu1   O3    S    
C7    C11   A    
C32   H27   S    
C25   C26   S    
Cu2   O4    S    
C28   H16   S    
O11   C29   S    
C22   H6    S    
Cu1   N1    S    
C6    O7    A    
Cu2   N2    S    
C9    C12   A    
C5    O8    A    
C12   C14   S    
C3    O4    A    
C1    C23   A    
C27   H15   S    
C19   N2    A    
C21   C23   A    
Cu2   O6    S    
C2    C24   A    
O12   C31   S    
C19   O11   S    
C32   H28   S    
C22   C24   A    
C20   O12   S    
C28   H17   S    
C5    C15   S    
C10   C11   A    
C30   H23   S    
C17   O9    S    
Cu1   O5    S    
C25   H10   S    
C11   C13   S    
C31   H24   S    
C9    H1    S    
C8    C10   A    
C26   H11   S    
C18   N1    A    
C13   C16   T    
C10   H2    S    
C7    C9    A    
C26   H12   S    
C5    O5    A    
C27   H14   S    
C18   C19   A    
C28   H18   S    
C29   H20   S    
C30   H22   S    
C29   C30   S    
Cu1   O1    S    
Cu1   Cu2   S    
C25   H9    S    
C31   C32   S    
C6    C16   S    
C17   C20   A    
C20   N1    A    
C26   H13   S    
Cu2   O2    S    
C18   O10   S    
C3    O1    A    
C4    O2    A    
C23   H7    S    
C27   C28   S    
C24   H8    S    
