data_mof_unit_60937.cif
_audit_creation_date              2013-03-05T16:38:20-0500
_audit_creation_method            fapswitch 2.2
_symmetry_space_group_name_H-M    P1
_symmetry_Int_Tables_number       1
_space_group_crystal_system       triclinic
_cell_length_a                    16.007437
_cell_length_b                    14.781258
_cell_length_c                    15.912846
_cell_angle_alpha                 89.972524
_cell_angle_beta                  89.959655
_cell_angle_gamma                 90.011908
_cell_volume                      3765.13793867

loop_
_atom_site_label
_atom_site_type_symbol
_atom_site_description
_atom_site_fract_x
_atom_site_fract_y
_atom_site_fract_z
_atom_type_partial_charge
O1    O     O_R   0.380310 0.575320 0.500040 -0.547578
O2    O     O_R   0.380310 0.424680 0.500040 -0.555573
C1    C     C_R   0.340905 0.499995 0.500156 0.812300
O3    O     O_R   0.500000 0.575380 0.379460 -0.557169
O4    O     O_R   0.500000 0.424620 0.379460 -0.552057
C2    C     C_R   0.499963 0.500021 0.339860 0.804498
Cu1   Cu    Cu3+1 0.500000 0.589220 0.500020 1.110548
Cu2   Cu    Cu3+1 0.500000 0.410780 0.500020 1.109602
O5    O     O_R   0.619690 0.575360 0.500000 -0.560751
O6    O     O_R   0.619690 0.424640 0.500000 -0.552828
O7    O     O_R   0.500000 0.575310 0.620580 -0.551021
O8    O     O_R   0.500000 0.424690 0.620580 -0.558225
C3    C     C_R   0.659097 0.500008 0.499976 0.796997
C4    C     C_R   0.500027 0.499982 0.660186 0.811557
C5    C     C_3   0.462941 0.592029 0.049322 1.036984
C6    C     C_3   0.443543 0.420299 0.049461 1.038364
C7    C     C_3   0.441561 0.422018 0.951148 0.000599
C8    C     C_3   0.460600 0.590802 0.951009 0.000578
H1    H     H_    0.393578 0.591916 0.931919 0.150697
H2    H     H_    0.376261 0.438354 0.932024 0.150239
C9    C     C_1   0.499765 0.499957 0.749637 -0.062110
C10   C     C_3   0.497856 0.500273 0.082874 -0.214143
C11   C     C_3   0.498602 0.500122 0.917118 -0.208997
C12   C     C_3   0.588687 0.488240 0.951869 -0.330894
C13   C     C_3   0.588153 0.488319 0.049050 -0.492161
C14   C     C_1   0.499358 0.499998 0.825006 0.123884
C15   C     C_1   0.498816 0.500163 0.174991 0.221070
C16   C     C_1   0.499452 0.500081 0.250381 -0.042523
H3    H     H_    0.628958 0.543829 0.072422 0.260074
H4    H     H_    0.615390 0.423808 0.072494 0.262106
H5    H     H_    0.630617 0.542342 0.928436 0.249898
H6    H     H_    0.617378 0.424820 0.928503 0.251440
C17   C     C_R   0.955885 0.582203 0.501453 0.538965
C18   C     C_R   0.955801 0.418177 0.508741 0.540578
C19   C     C_R   0.912609 0.500123 0.503499 -0.258452
C20   C     C_R   0.043385 0.417298 0.512011 0.196031
C21   C     C_R   0.043470 0.583352 0.504628 0.195194
C22   C     C_R   0.087281 0.500359 0.509294 -0.272677
C23   C     C_1   0.823103 0.500062 0.501757 0.235145
C24   C     C_1   0.176991 0.500133 0.505324 0.222266
C25   C     C_1   0.251936 0.500013 0.502446 -0.040005
C26   C     C_1   0.748127 0.500028 0.500718 -0.070841
C27   C     C_R   0.548530 0.951732 0.559068 0.233158
C28   C     C_R   0.550435 0.048214 0.557410 0.234597
C29   C     C_R   0.497726 0.902890 0.502003 -0.275308
C30   C     C_R   0.501770 0.097095 0.498484 -0.276045
C31   C     C_R   0.448916 0.951772 0.443205 0.230774
C32   C     C_R   0.450816 0.048253 0.441553 0.230499
C33   C     C_1   0.499166 0.802563 0.500747 0.420732
C34   C     C_1   0.500595 0.197432 0.499500 0.421848
N1    N     N_1   0.499980 0.276710 0.500030 -0.127058
N2    N     N_1   0.499980 0.723290 0.500030 -0.127038
N3    N     N_R   0.399356 0.903522 0.382652 0.171447
O9    O     O_R   0.404272 0.923766 0.303207 -0.198840
O10   O     O_R   0.349829 0.838548 0.406464 -0.265811
N4    N     N_R   0.398153 0.096540 0.383716 0.171954
O11   O     O_R   0.319225 0.076482 0.377684 -0.200677
O12   O     O_R   0.428527 0.161455 0.337639 -0.268797
F1    F     F_    0.382712 0.605857 0.079772 -0.574048
F2    F     F_    0.362593 0.427827 0.079894 -0.577175
F3    F     F_    0.475464 0.339066 0.079183 -0.552665
F4    F     F_    0.512025 0.662565 0.078899 -0.558937
N5    N     N_R   0.461579 0.333383 0.914063 0.202744
O13   O     O_R   0.407222 0.293700 0.865762 -0.246057
O14   O     O_R   0.531656 0.292274 0.930099 -0.231187
N6    N     N_R   0.499708 0.671601 0.913756 0.204697
O15   O     O_R   0.455775 0.724156 0.865295 -0.232500
O16   O     O_R   0.576859 0.693309 0.929735 -0.233729
N7    N     N_R   0.087012 0.668659 0.502717 0.192050
O17   O     O_R   0.152033 0.682162 0.550130 -0.285664
O18   O     O_R   0.058345 0.735548 0.458041 -0.174709
N8    N     N_R   0.086840 0.332157 0.517689 0.189997
O19   O     O_R   0.151829 0.323503 0.566115 -0.293169
O20   O     O_R   0.058114 0.261040 0.479144 -0.176770
F5    F     F_    0.912470 0.661156 0.498370 -0.553038
F6    F     F_    0.912307 0.339294 0.512671 -0.548964
N9    N     N_R   0.599765 0.096465 0.618150 0.170196
O21   O     O_R   0.649419 0.161402 0.594527 -0.278201
O22   O     O_R   0.594409 0.076345 0.697594 -0.202643
N10   N     N_R   0.600958 0.903442 0.617122 0.170115
O23   O     O_R   0.570392 0.838510 0.663056 -0.268424
O24   O     O_R   0.679828 0.923601 0.623599 -0.208960

loop_
_geom_bond_atom_site_label_1
_geom_bond_atom_site_label_2
_geom_bond_distance
_ccdc_geom_bond_type
C5    C8    1.565029 S    
N6    O16   1.301229 A    
C9    C14   1.199346 T    
N5    O14   1.301235 A    
C21   N7    1.440942 S    
Cu1   Cu2   2.637566 S    
N3    O9    1.301315 A    
Cu1   O7    1.929343 S    
C7    C11   1.567811 S    
C4    C9    1.423414 S    
C28   N9    1.438015 S    
Cu1   N2    1.981725 S    
C8    H1    1.115346 S    
O4    C2    1.280060 A    
O7    C4    1.279171 A    
C11   C14   1.465823 S    
C7    H2    1.115353 S    
N4    O11   1.301314 A    
Cu1   O5    1.926894 S    
C18   C19   1.397312 A    
C6    F2    1.387536 S    
C29   C31   1.417246 A    
N7    O18   1.301334 A    
O5    C3    1.280142 A    
C17   F5    1.359294 S    
C5    C10   1.561067 S    
C2    C16   1.423903 S    
C6    C7    1.564984 S    
C10   C13   1.552187 S    
C11   C12   1.554730 S    
C31   N3    1.438047 S    
N9    O22   1.301321 A    
N6    O15   1.301199 A    
O3    Cu1   1.929427 S    
C3    C26   1.425188 S    
C28   C30   1.417300 A    
C23   C26   1.200306 T    
N3    O10   1.301306 A    
C13   H3    1.112920 S    
C30   C32   1.417262 A    
C8    C11   1.567818 S    
C12   C13   1.546448 S    
N8    O20   1.301336 A    
N8    O19   1.301343 A    
C27   N10   1.438041 S    
N9    O21   1.301278 A    
C17   C21   1.403062 A    
O1    C1    1.279542 A    
C19   C23   1.433053 S    
C27   C28   1.426679 A    
C12   H6    1.108245 S    
C21   C22   1.415121 A    
C31   C32   1.426658 A    
C29   C33   1.483286 S    
Cu2   O8    1.929539 S    
C33   N2    1.171888 T    
C34   N1    1.171905 T    
C27   C29   1.417233 A    
Cu2   N1    1.981725 S    
N10   O24   1.301305 A    
C24   C25   1.200508 T    
O8    C4    1.279246 A    
C10   C15   1.465925 S    
O3    C2    1.280055 A    
C6    F3    1.388010 S    
C13   H4    1.112921 S    
C32   N4    1.437998 S    
C1    C25   1.424614 S    
C6    C10   1.561022 S    
O1    Cu1   1.926872 S    
C5    F1    1.387533 S    
O2    Cu2   1.926957 S    
N10   O23   1.301324 A    
O6    C3    1.280115 A    
O4    Cu2   1.929232 S    
C8    N6    1.472473 S    
C30   C34   1.483322 S    
C20   C22   1.415102 A    
O2    C1    1.279647 A    
C12   H5    1.108242 S    
C7    N5    1.472429 S    
C22   C24   1.437378 S    
C17   C19   1.397315 A    
C5    F4    1.387988 S    
N4    O12   1.301285 A    
C18   C20   1.403053 A    
N7    O17   1.301349 A    
N5    O13   1.301179 A    
Cu2   O6    1.926809 S    
C15   C16   1.199718 T    
C20   N8    1.440901 S    
C18   F6    1.359298 S    
