data_mof_unit_36323.cif
_audit_creation_date              2012-12-10T18:13:32-0500
_audit_creation_method            fapswitch 2.2
_symmetry_space_group_name_H-M    P1
_symmetry_Int_Tables_number       1
_space_group_crystal_system       triclinic
_cell_length_a                    12.608361
_cell_length_b                    13.247015
_cell_length_c                    16.98095
_cell_angle_alpha                 90.053505
_cell_angle_beta                  99.204565
_cell_angle_gamma                 97.457166
_cell_volume                      2775.32999914

loop_
_atom_site_label
_atom_site_type_symbol
_atom_type_description
_atom_site_fract_x
_atom_site_fract_y
_atom_site_fract_z
_atom_type_partial_charge
C1    C     C_R   0.560087 0.690947 0.511372 0.915934
C2    C     C_R   0.609190 0.535300 0.231250 -0.029606
C3    C     C_R   0.557010 0.424791 0.862017 -0.221523
C4    C     C_R   0.567164 0.454537 0.785411 -0.127733
C5    C     C_R   0.373326 0.462604 0.756075 -0.313933
C6    C     C_R   0.363119 0.432474 0.833125 0.743202
C7    C     C_R   0.455674 0.416444 0.886529 -0.003093
C8    C     C_2   0.503468 0.498000 0.014153 -0.165422
C9    C     C_2   0.452070 0.416556 0.971109 -0.082103
C10   C     C_R   0.475710 0.475103 0.732278 -0.143880
C11   C     C_R   0.301189 0.058979 0.389352 -0.055602
C12   C     C_R   0.512999 0.500227 0.349659 0.841784
C13   C     C_R   0.402922 0.198938 0.474990 -0.321003
C14   C     C_R   0.665370 0.828191 0.604109 -0.132514
C15   C     C_R   0.657964 0.919924 0.641390 -0.256532
C16   C     C_R   0.581287 0.980930 0.609124 0.762369
C17   C     C_R   0.524112 0.961932 0.530345 -0.039263
C18   C     C_R   0.530744 0.869291 0.491919 -0.006964
C19   C     C_R   0.456279 0.029569 0.490160 -0.006510
C20   C     C_R   0.379933 0.996328 0.421393 -0.016655
C21   C     C_R   0.388284 0.903544 0.384672 -0.199915
C22   C     C_R   0.467663 0.845239 0.416296 -0.113636
C23   C     C_R   0.439589 0.308429 0.489234 0.914537
C24   C     C_R   0.472154 0.132387 0.511311 0.628663
C25   C     C_R   0.311690 0.161140 0.417604 -0.140633
C26   C     C_R   0.594055 0.798664 0.531992 -0.162600
C27   C     C_R   0.896364 0.328679 0.592196 -0.057501
C28   C     C_R   0.208606 0.629728 0.406967 -0.081737
C29   C     C_R   0.105302 0.658556 0.387160 -0.067351
C30   C     C_R   0.020502 0.607811 0.422057 -0.138538
C31   C     C_R   0.038751 0.527969 0.475739 -0.009784
C32   C     C_R   0.145375 0.502166 0.492898 0.250597
C33   C     C_R   0.955891 0.472782 0.512712 -0.007834
C34   C     C_R   0.486353 0.498168 0.650109 0.944637
C35   C     C_R   0.981193 0.390885 0.563984 0.037058
C36   C     C_R   0.090412 0.374101 0.585687 -0.099824
C37   C     C_R   0.168504 0.425706 0.546617 -0.303279
C38   C     C_R   0.848096 0.495130 0.500484 -0.034459
C39   C     C_R   0.798435 0.368191 0.591517 0.059646
C40   C     C_R   0.514568 0.503094 0.264148 -0.119201
C41   C     C_R   0.414594 0.477779 0.214094 -0.259622
C42   C     C_R   0.406141 0.483909 0.132024 -0.006973
C43   C     C_R   0.502110 0.506369 0.099154 0.111705
C44   C     C_R   0.601780 0.533733 0.148359 -0.144717
H1    H     H_    0.341299 0.456062 0.239284 0.181538
H2    H     H_    0.337910 0.876914 0.329247 0.112431
H3    H     H_    0.704040 0.939237 0.700210 0.196306
H4    H     H_    0.475859 0.778080 0.382493 0.130332
H5    H     H_    0.646952 0.462840 0.768373 0.205096
H6    H     H_    0.821206 0.553575 0.461323 0.125177
H7    H     H_    0.275497 0.667740 0.380861 0.132395
H8    H     H_    0.941667 0.631734 0.405884 0.185067
H9    H     H_    0.248972 0.407716 0.562175 0.201748
H10   H     H_    0.301659 0.476832 0.715542 0.193215
H11   H     H_    0.402105 0.356004 0.996351 0.177591
H12   H     H_    0.673850 0.554657 0.121551 0.186881
H13   H     H_    0.629004 0.413992 0.903767 0.191510
H14   H     H_    0.553690 0.556952 0.987195 0.164281
N1    N     N_R   0.774070 0.445420 0.541180 -0.159543
N2    N     N_R   0.226730 0.554050 0.459240 -0.119924
O1    O     O_R   0.631480 0.627510 0.519670 -0.588796
O2    O     O_R   0.455770 0.662400 0.493360 -0.614492
O3    O     O_R   0.598240 0.480510 0.398910 -0.631468
O4    O     O_R   0.422540 0.515400 0.372600 -0.616761
O5    O     O_R   0.544230 0.337600 0.506640 -0.573845
O6    O     O_R   0.368520 0.372490 0.480330 -0.673200
O7    O     O_R   0.577460 0.484600 0.627400 -0.626730
O8    O     O_R   0.401760 0.519490 0.601090 -0.635364
Zn1   Zn    Zn3+2 0.617320 0.476700 0.517570 0.987207
Zn2   Zn    Zn3+2 0.382680 0.523300 0.482430 0.942849
F1    F     F_    0.264865 0.425886 0.857152 -0.587245
C45   C     C_2   0.234577 0.230315 0.381195 0.552531
H15   H     H_    0.196727 0.276057 0.418850 0.068789
O9    O     O_2   0.213768 0.237428 0.308834 -0.554662
C46   C     C_2   0.207665 0.017652 0.327834 0.516225
H16   H     H_    0.219372 0.973563 0.276907 0.045390
O10   O     O_2   0.115646 0.031935 0.334238 -0.514834
F2    F     F_    0.566342 0.171031 0.557836 -0.639085
C47   C     C_2   0.739517 0.762498 0.648580 0.470952
H17   H     H_    0.823872 0.792868 0.667855 0.075550
O11   O     O_2   0.706044 0.677976 0.669736 -0.545301
F3    F     F_    0.555507 0.050584 0.659195 -0.603747
C48   C     C_2   0.727296 0.331679 0.649876 0.620863
H18   H     H_    0.640800 0.327091 0.636374 0.139744
O12   O     O_2   0.766560 0.307266 0.716487 -0.515206
C49   C     C_2   0.130722 0.314190 0.655626 0.381666
H19   H     H_    0.204349 0.279485 0.656576 0.062831
O13   O     O_2   0.086267 0.308218 0.714594 -0.470761
C50   C     C_2   0.901980 0.217398 0.604996 0.551651
H20   H     H_    0.971227 0.183468 0.592171 0.036665
O14   O     O_2   0.827097 0.160605 0.624946 -0.507196
C51   C     C_2   0.087529 0.741270 0.330063 0.490184
H21   H     H_    0.154061 0.777218 0.302271 0.015680
O15   O     O_2   0.998748 0.770236 0.313243 -0.505392
C52   C     C_2   0.713893 0.576346 0.280856 0.439157
H22   H     H_    0.716234 0.607157 0.340273 0.056238
O16   O     O_2   0.799110 0.578577 0.254954 -0.537953
C53   C     C_2   0.295550 0.471506 0.084389 0.429654
H23   H     H_    0.228511 0.429788 0.108576 0.088329
O17   O     O_2   0.276826 0.511913 0.019976 -0.474408

loop_
_geom_bond_atom_site_label_1
_geom_bond_atom_site_label_2
_ccdc_geom_bond_type
C22   H4    S    
C41   C42   A    
C52   H22   S    
C18   C26   A    
C8    C43   S    
C15   H3    S    
C43   C44   A    
C1    O2    A    
O6    Zn2   S    
O2    Zn2   S    
C23   O6    A    
C28   C29   A    
C3    C7    A    
C42   C53   S    
C30   C31   A    
C12   O4    A    
C28   H7    S    
C49   O13   D    
C11   C25   A    
C15   C16   A    
C13   C23   S    
C8    H14   S    
O3    Zn1   S    
C27   C39   A    
C8    C9    D    
C36   C37   A    
C31   C33   A    
C9    H11   S    
O4    Zn2   S    
C50   O14   D    
C37   H9    S    
C21   C22   A    
C13   C25   A    
C51   O15   D    
C28   N2    A    
C6    F1    S    
C11   C20   A    
C5    H10   S    
C45   O9    D    
C34   O8    A    
C47   O11   D    
C12   O3    A    
C49   H19   S    
C16   C17   A    
C27   C35   A    
C14   C47   S    
C47   H17   S    
C13   C24   A    
O7    Zn1   S    
C35   C36   A    
C12   C40   S    
C46   H16   S    
C29   C30   A    
C44   H12   S    
C48   H18   S    
N2    Zn2   S    
C39   N1    A    
C16   F3    S    
C17   C18   A    
C10   C34   S    
C25   C45   S    
C32   C37   A    
C14   C26   A    
C46   O10   D    
N1    Zn1   S    
C3    H13   S    
C24   F2    S    
C40   C41   A    
C48   O12   D    
C53   O17   D    
C1    C26   S    
C42   C43   A    
C32   N2    A    
C4    C10   A    
C3    C4    A    
C2    C44   A    
C21   H2    S    
O1    Zn1   S    
C7    C9    S    
C30   H8    S    
C2    C52   S    
C18   C22   A    
C31   C32   A    
C45   H15   S    
C1    O1    A    
C34   O7    A    
C52   O16   D    
C6    C7    A    
C38   H6    S    
C33   C38   A    
C4    H5    S    
C36   C49   S    
C23   O5    A    
C19   C20   A    
C19   C24   A    
C39   C48   S    
C5    C10   A    
C11   C46   S    
C33   C35   A    
C5    C6    A    
O5    Zn1   S    
C51   H21   S    
C17   C19   A    
C27   C50   S    
C38   N1    A    
C2    C40   A    
C20   C21   A    
O8    Zn2   S    
C53   H23   S    
C41   H1    S    
C14   C15   A    
C50   H20   S    
C29   C51   S    
