data_mof_unit_49715.cif
_audit_creation_date              2012-10-26T18:40:21-0400
_audit_creation_method            fapswitch 2.2
_symmetry_space_group_name_H-M    P1
_symmetry_Int_Tables_number       1
_space_group_crystal_system       triclinic
_cell_length_a                    8.721586
_cell_length_b                    15.114254
_cell_length_c                    13.928618
_cell_angle_alpha                 89.195308
_cell_angle_beta                  97.453458
_cell_angle_gamma                 91.25931
_cell_volume                      1820.00458577

loop_
_atom_site_label
_atom_site_type_symbol
_atom_type_description
_atom_site_fract_x
_atom_site_fract_y
_atom_site_fract_z
_atom_type_partial_charge
C1    C     C_R   0.500929 0.329953 0.500677 0.544949
C2    C     C_R   0.559443 0.569909 0.896384 -0.145494
C3    C     C_R   0.506268 0.496956 0.055312 -0.038937
C4    C     C_R   0.503800 0.495919 0.945569 -0.038751
C5    C     C_R   0.204010 0.499250 0.475398 0.559639
C6    C     C_R   0.796030 0.499852 0.524657 0.556697
C7    C     C_2   0.038449 0.497604 0.461838 -0.125822
C8    C     C_2   0.961689 0.500038 0.538375 -0.125564
C9    C     C_R   0.570664 0.091529 0.574794 -0.118742
C10   C     C_R   0.406483 0.904894 0.555302 -0.119576
C11   C     C_R   0.574699 0.183509 0.579058 -0.017843
C12   C     C_R   0.497203 0.669926 0.499283 0.549914
C13   C     C_R   0.404966 0.812836 0.558077 -0.021188
C14   C     C_R   0.498625 0.233073 0.501201 -0.015348
C15   C     C_R   0.492918 0.766594 0.497798 -0.019060
C16   C     C_R   0.418224 0.189429 0.421114 -0.095084
C17   C     C_R   0.579955 0.813394 0.435358 -0.091608
C18   C     C_R   0.412061 0.096991 0.417068 0.003833
C19   C     C_R   0.583833 0.905990 0.433301 0.004429
C20   C     C_R   0.491543 0.048252 0.494428 -0.045972
C21   C     C_R   0.494590 0.951502 0.493596 -0.046719
C22   C     C_1   0.662544 0.224912 0.662195 0.238975
C23   C     C_R   0.635029 0.530100 0.118256 -0.014699
C24   C     C_1   0.307947 0.767712 0.620627 0.227342
C25   C     C_2   0.321521 0.052375 0.332915 0.252027
C26   C     C_2   0.682956 0.954062 0.369776 0.245990
C27   C     C_2   0.785841 0.547404 0.080261 0.198957
C28   C     C_2   0.404439 0.338163 0.936770 0.215860
C29   C     C_1   0.726706 0.598250 0.276436 0.332496
C30   C     C_1   0.327988 0.370437 0.726730 0.339928
C31   C     C_R   0.442062 0.423395 0.888421 -0.018797
C32   C     C_R   0.620720 0.539677 0.218505 0.140899
C33   C     C_R   0.428068 0.431467 0.785421 0.145582
C34   C     C_R   0.378631 0.464438 0.199258 0.051195
C35   C     C_R   0.564135 0.568660 0.795875 0.046894
C36   C     C_R   0.375875 0.467126 0.098071 -0.138906
Cu1   Cu    Cu3+1 0.500000 0.499990 0.596430 1.001813
Cu2   Cu    Cu3+1 0.500000 0.500010 0.403570 0.985144
H1    H     H_    0.979544 0.494274 0.388248 0.146023
H2    H     H_    0.602925 0.628306 0.935967 0.137213
H3    H     H_    0.309951 0.980824 0.330838 0.138902
H4    H     H_    0.692562 0.025703 0.370546 0.127618
H5    H     H_    0.807264 0.517716 0.012966 0.127473
H6    H     H_    0.460345 0.323043 0.009122 0.132764
H7    H     H_    0.020795 0.502678 0.612021 0.147429
H8    H     H_    0.630994 0.053072 0.633789 0.141852
H9    H     H_    0.338001 0.940805 0.600937 0.143474
H10   H     H_    0.358038 0.227919 0.362213 0.174114
H11   H     H_    0.647847 0.777336 0.389807 0.190875
H12   H     H_    0.280468 0.436270 0.229805 0.146941
H13   H     H_    0.615475 0.624364 0.761337 0.145050
H14   H     H_    0.272410 0.443878 0.053403 0.136681
N1    N     N_R   0.500000 0.500020 0.258690 -0.260349
N2    N     N_R   0.500000 0.499980 0.741310 -0.257023
N3    N     N_1   0.732853 0.258073 0.728791 -0.246320
N4    N     N_1   0.230235 0.731528 0.670658 -0.271890
N5    N     N_1   0.811927 0.646079 0.321743 -0.257691
N6    N     N_1   0.246243 0.321513 0.680468 -0.253048
O1    O     O_R   0.500010 0.371450 0.581430 -0.494660
O2    O     O_2   0.756032 0.914094 0.315741 -0.463617
O3    O     O_2   0.888783 0.593266 0.123199 -0.484246
O4    O     O_2   0.311941 0.283947 0.897600 -0.468335
O5    O     O_R   0.499990 0.628550 0.418570 -0.496411
O6    O     O_R   0.500010 0.371460 0.418560 -0.509498
O7    O     O_R   0.499990 0.628540 0.581440 -0.503501
O8    O     O_R   0.274840 0.499990 0.562640 -0.499670
O9    O     O_R   0.725160 0.500010 0.437360 -0.510481
O10   O     O_R   0.274840 0.500000 0.399770 -0.501345
O11   O     O_R   0.725160 0.500000 0.600230 -0.490435
O12   O     O_2   0.257918 0.095124 0.264623 -0.472339

loop_
_geom_bond_atom_site_label_1
_geom_bond_atom_site_label_2
_ccdc_geom_bond_type
C2    C35   A    
C6    O11   A    
C2    C4    A    
C31   C33   A    
C28   O4    D    
C22   N3    T    
C1    C14   S    
Cu1   O11   S    
C24   N4    T    
C5    C7    S    
C12   O7    A    
C11   C22   S    
Cu2   O6    S    
C36   H14   S    
C12   C15   S    
C9    C20   A    
C23   C32   A    
C16   H10   S    
C13   C15   A    
C9    H8    S    
Cu1   O8    S    
C35   N2    A    
C9    C11   A    
Cu2   N1    S    
Cu1   O1    S    
C18   C25   S    
C26   O2    D    
C3    C36   A    
C5    O10   A    
Cu1   N2    S    
C30   N6    T    
C6    O9    A    
C17   C19   A    
Cu1   Cu2   S    
C29   N5    T    
C29   C32   S    
C34   C36   A    
C23   C27   S    
C1    O1    A    
C10   C21   A    
C35   H13   S    
C11   C14   A    
C14   C16   A    
C34   H12   S    
C4    C31   A    
C17   H11   S    
C3    C4    S    
Cu2   O9    S    
C1    O6    A    
C2    H2    S    
C32   N1    A    
C7    C8    D    
C20   C21   S    
C26   H4    S    
C34   N1    A    
C16   C18   A    
Cu2   O5    S    
C18   C20   A    
C25   H3    S    
C33   N2    A    
C15   C17   A    
C19   C26   S    
C7    H1    S    
C8    H7    S    
C6    C8    S    
C25   O12   D    
C27   O3    D    
C30   C33   S    
C19   C21   A    
C27   H5    S    
C12   O5    A    
C10   H9    S    
C3    C23   A    
C28   H6    S    
C28   C31   S    
C13   C24   S    
Cu2   O10   S    
C5    O8    A    
C10   C13   A    
Cu1   O7    S    
