data_mof_unit_16176.cif
_audit_creation_date              2012-12-10T17:25:23-0500
_audit_creation_method            fapswitch 2.2
_symmetry_space_group_name_H-M    P1
_symmetry_Int_Tables_number       1
_space_group_crystal_system       triclinic
_cell_length_a                    27.761236
_cell_length_b                    10.858433
_cell_length_c                    9.589233
_cell_angle_alpha                 88.528526
_cell_angle_beta                  89.876406
_cell_angle_gamma                 93.15364
_cell_volume                      2885.26439498

loop_
_atom_site_label
_atom_site_type_symbol
_atom_type_description
_atom_site_fract_x
_atom_site_fract_y
_atom_site_fract_z
_atom_type_partial_charge
C1    C     C_R   0.495998 0.262214 0.501950 0.813963
C2    C     C_R   0.277672 0.472284 0.382941 -0.090976
C3    C     C_R   0.253420 0.503707 0.504327 0.337940
C4    C     C_R   0.101194 0.504959 0.508988 -0.045787
C5    C     C_R   0.125293 0.429727 0.604101 -0.014337
C6    C     C_R   0.098932 0.364441 0.708734 -0.215157
C7    C     C_R   0.128414 0.585296 0.417805 -0.024168
C8    C     C_R   0.354553 0.501478 0.501147 -0.032546
C9    C     C_R   0.644651 0.496857 0.497447 -0.137905
C10   C     C_R   0.971909 0.415849 0.593395 0.074181
C11   C     C_R   0.975489 0.561947 0.390706 -0.025835
C12   C     C_R   0.407514 0.500028 0.500192 0.773678
C13   C     C_R   0.948424 0.487852 0.490745 0.037847
C14   C     C_R   0.943396 0.326474 0.670951 -0.113450
C15   C     C_R   0.893367 0.325732 0.669940 -0.102561
C16   C     C_R   0.869857 0.406171 0.580796 -0.027841
C17   C     C_R   0.897191 0.482128 0.485439 -0.044687
C18   C     C_R   0.873164 0.550658 0.383534 -0.084618
C19   C     C_R   0.822512 0.548370 0.384396 0.600135
C20   C     C_R   0.819374 0.408854 0.580633 0.610678
C21   C     C_R   0.715105 0.380986 0.452406 0.343579
C22   C     C_R   0.665087 0.387638 0.458781 -0.260049
C23   C     C_R   0.495342 0.736712 0.498092 0.840355
C24   C     C_R   0.674546 0.601635 0.526458 0.226872
C25   C     C_R   0.724547 0.594179 0.523158 -0.123981
C26   C     C_R   0.745136 0.484249 0.487150 0.206865
C27   C     C_R   0.023053 0.427934 0.607239 0.036947
C28   C     C_R   0.049979 0.501449 0.506482 0.052018
C29   C     C_R   0.026415 0.575244 0.405975 0.062616
C30   C     C_R   0.049018 0.372838 0.719472 -0.036236
C31   C     C_R   0.104705 0.669456 0.333710 -0.134442
C32   C     C_R   0.950074 0.613664 0.275717 0.237561
C33   C     C_R   0.899894 0.613625 0.278129 -0.128346
C34   C     C_R   0.592229 0.500825 0.499579 0.867011
C35   C     C_R   0.054635 0.667243 0.332052 -0.135657
C36   C     C_R   0.440551 0.111916 0.723174 -0.245173
C37   C     C_R   0.417569 0.040713 0.830229 0.050541
C38   C     C_R   0.417001 0.912422 0.825267 -0.074267
C39   C     C_R   0.438680 0.855928 0.714797 -0.186007
C40   C     C_R   0.464499 0.925907 0.609542 0.068209
C41   C     C_R   0.465488 0.056763 0.614044 0.114898
C42   C     C_R   0.488871 0.127426 0.504016 -0.158622
C43   C     C_R   0.502596 0.069030 0.383801 -0.191816
C44   C     C_R   0.498566 0.942872 0.374594 0.288946
C45   C     C_R   0.175844 0.428570 0.598851 0.550466
C46   C     C_R   0.485991 0.869229 0.494040 -0.169195
C47   C     C_R   0.568286 0.653472 0.139768 -0.135839
C48   C     C_R   0.602537 0.726848 0.065671 0.297141
C49   C     C_R   0.601691 0.729504 0.921961 -0.187140
C50   C     C_R   0.567237 0.657397 0.851837 -0.167352
C51   C     C_R   0.533455 0.576103 0.923081 0.205107
C52   C     C_R   0.533701 0.575170 0.072595 0.175345
C53   C     C_R   0.467696 0.428894 0.076208 -0.030632
C54   C     C_R   0.467643 0.429352 0.928295 -0.050508
C55   C     C_R   0.178957 0.583936 0.418325 0.544006
C56   C     C_R   0.279978 0.534579 0.623844 -0.089493
C57   C     C_R   0.330139 0.532773 0.622632 -0.225564
C58   C     C_R   0.327921 0.471805 0.381026 -0.196199
Cu1   Cu    Cu3+1 0.500000 0.499990 0.640660 0.949847
Cu2   Cu    Cu3+1 0.500000 0.500010 0.359340 0.978140
H1    H     H_    0.345856 0.446946 0.286190 0.158649
H2    H     H_    0.261685 0.560172 0.717765 0.155583
H3    H     H_    0.124721 0.739094 0.270779 0.194858
H4    H     H_    0.881645 0.656948 0.191610 0.220899
H5    H     H_    0.747641 0.674615 0.546489 0.196257
H6    H     H_    0.038608 0.742327 0.277120 0.187609
H7    H     H_    0.515999 0.122171 0.293224 0.203965
H8    H     H_    0.436328 0.209755 0.723474 0.140121
H9    H     H_    0.257520 0.447822 0.290184 0.154271
H10   H     H_    0.397923 0.855227 0.903963 0.181578
H11   H     H_    0.432155 0.757308 0.710265 0.167398
H12   H     H_    0.441191 0.370586 0.133215 0.134224
H13   H     H_    0.568406 0.667770 0.248821 0.230054
H14   H     H_    0.627194 0.790140 0.864104 0.223325
H15   H     H_    0.568214 0.670747 0.742064 0.237711
H16   H     H_    0.440801 0.372978 0.874800 0.110564
H17   H     H_    0.117808 0.316374 0.790781 0.182296
H18   H     H_    0.642056 0.307830 0.432390 0.188314
H19   H     H_    0.873172 0.259428 0.736780 0.198862
H20   H     H_    0.959056 0.253941 0.731532 0.148643
H21   H     H_    0.349807 0.557029 0.716340 0.156772
N1    N     N_R   0.201639 0.504565 0.506270 -0.468448
N2    N     N_R   0.796748 0.479795 0.483592 -0.454450
N3    N     N_R   0.500460 0.501210 0.147910 -0.188526
N4    N     N_R   0.500480 0.501290 0.852040 -0.194092
O1    O     O_R   0.500000 0.319640 0.618810 -0.575406
O2    O     O_2   0.793134 0.342006 0.677325 -0.485140
O3    O     O_2   0.205227 0.662069 0.332552 -0.526841
O4    O     O_2   0.799159 0.613813 0.286707 -0.487179
O5    O     O_R   0.500000 0.319660 0.381240 -0.582800
O6    O     O_R   0.430260 0.500010 0.618770 -0.606739
O7    O     O_R   0.430270 0.500030 0.381200 -0.579095
O8    O     O_R   0.500000 0.680340 0.618760 -0.611459
O9    O     O_R   0.500000 0.680360 0.381190 -0.554143
O10   O     O_R   0.569730 0.499970 0.618800 -0.577740
O11   O     O_R   0.569740 0.499990 0.381230 -0.592107
O12   O     O_2   0.199003 0.351817 0.685357 -0.534447
Br1   Br    Br    0.977692 0.656848 0.094880 -0.445267
Br2   Br    Br    0.648915 0.758601 0.559642 -0.476809
C59   C     C_2   0.392443 0.101543 0.943664 0.392766
H22   H     H_    0.390235 0.200903 0.941568 0.031063
O13   O     O_2   0.373864 0.041532 0.041003 -0.515327
Br3   Br    Br    0.505282 0.885287 0.188516 -0.487060
Br4   Br    Br    0.648599 0.830696 0.161724 -0.336910
Br5   Br    Br    0.740993 0.231709 0.390157 -0.348627
C60   C     C_2   0.028471 0.342438 0.859900 0.370681
H23   H     H_    0.043225 0.269811 0.923963 0.073315
O14   O     O_2   0.997115 0.403170 0.908895 -0.469671

loop_
_geom_bond_atom_site_label_1
_geom_bond_atom_site_label_2
_ccdc_geom_bond_type
C10   C27   A    
C21   C26   A    
C38   H10   S    
C1    O5    A    
C24   Br2   S    
C11   C13   A    
C41   C42   A    
C12   O6    A    
C45   N1    A    
C7    C55   A    
C51   N4    A    
C53   C54   A    
C40   C46   A    
C26   N2    S    
C53   N3    A    
C28   C29   A    
C34   O11   A    
C5    C6    A    
C9    C22   A    
C60   H23   S    
C15   C16   A    
C48   Br4   S    
C20   O2    S    
C56   C57   A    
C18   C19   A    
C55   O3    S    
C52   N3    A    
C8    C58   A    
C15   H19   S    
C16   C17   A    
C14   H20   S    
C2    H9    S    
C16   C20   A    
C56   H2    S    
C58   H1    S    
Cu1   Cu2   S    
C23   C46   S    
C21   C22   A    
C30   C60   S    
C27   C30   A    
C36   C41   A    
Cu1   O10   S    
C4    C7    A    
C19   N2    A    
C4    C28   A    
C44   Br3   S    
C44   C46   A    
C50   C51   A    
Cu2   O7    S    
C7    C31   A    
C51   C52   A    
C31   H3    S    
C25   H5    S    
C24   C25   A    
C47   H13   S    
C10   C14   A    
C39   C40   A    
C6    H17   S    
C35   H6    S    
C25   C26   A    
C5    C45   A    
C23   O8    A    
C43   C44   A    
Cu1   N4    S    
C37   C38   A    
C19   O4    S    
C8    C57   A    
C3    C56   A    
C47   C48   A    
C8    C12   S    
C36   H8    S    
C3    N1    S    
C59   O13   D    
C17   C18   A    
Cu1   O6    S    
C34   O10   A    
C55   N1    A    
C22   H18   S    
C54   H16   S    
Cu2   O11   S    
C43   H7    S    
C48   C49   A    
C6    C30   A    
C11   C32   A    
C9    C34   S    
C31   C35   A    
C42   C43   A    
C1    O1    A    
C40   C41   A    
C49   H14   S    
C12   O7    A    
C4    C5    A    
C10   C13   A    
C54   N4    A    
C2    C58   A    
C9    C24   A    
C47   C52   A    
Cu2   O5    S    
C29   C35   A    
C23   O9    A    
C13   C17   A    
C32   C33   A    
C2    C3    A    
Cu1   O1    S    
C45   O12   S    
C50   H15   S    
Cu2   N3    S    
C38   C39   A    
C60   O14   D    
C33   H4    S    
C59   H22   S    
C32   Br1   S    
C57   H21   S    
C18   C33   A    
C1    C42   S    
C11   C29   A    
C36   C37   A    
C49   C50   A    
C20   N2    A    
C27   C28   A    
C39   H11   S    
C14   C15   A    
Cu1   O8    S    
C53   H12   S    
C37   C59   S    
C21   Br5   S    
Cu2   O9    S    
