data_mof_unit_58219.cif
_audit_creation_date              2012-10-26T18:54:12-0400
_audit_creation_method            fapswitch 2.2
_symmetry_space_group_name_H-M    P1
_symmetry_Int_Tables_number       1
_space_group_crystal_system       triclinic
_cell_length_a                    14.700621
_cell_length_b                    14.658369
_cell_length_c                    23.511898
_cell_angle_alpha                 76.597887
_cell_angle_beta                  102.795564
_cell_angle_gamma                 115.10164
_cell_volume                      4419.24427355

loop_
_atom_site_label
_atom_site_type_symbol
_atom_type_description
_atom_site_fract_x
_atom_site_fract_y
_atom_site_fract_z
_atom_type_partial_charge
C1    C     C_R   0.880283 0.312080 0.508684 0.543359
C2    C     C_R   0.070401 0.471169 0.312347 -0.151302
C3    C     C_R   0.926053 0.524047 0.747188 -0.060083
C4    C     C_R   0.070711 0.471175 0.253084 -0.062712
C5    C     C_R   0.000773 0.504392 0.790472 0.239836
C6    C     C_R   0.002324 0.500676 0.209350 0.241436
C7    C     C_R   0.812859 0.203499 0.513464 0.009862
C8    C     C_R   0.187344 0.796338 0.486062 0.001012
C9    C     C_R   0.779527 0.028569 0.559287 -0.137126
C10   C     C_R   0.221379 0.970758 0.439575 -0.136826
C11   C     C_R   0.845484 0.130795 0.551505 -0.147472
C12   C     C_R   0.119641 0.687885 0.491242 0.539862
C13   C     C_R   0.154570 0.869142 0.448442 -0.144302
C14   C     C_R   0.714217 0.171553 0.481249 -0.015043
C15   C     C_R   0.287155 0.826890 0.516616 -0.013931
C16   C     C_R   0.999949 0.500481 0.608950 0.547668
C17   C     C_R   0.000637 0.500459 0.391005 0.544876
C18   C     C_R   0.641229 0.075255 0.502028 0.039561
C19   C     C_R   0.360283 0.922646 0.494663 0.045352
C20   C     C_R   0.676967 0.000467 0.535680 0.038830
C21   C     C_R   0.324410 0.997913 0.461670 0.038900
C22   C     C_R   0.534823 0.050443 0.491137 0.022730
C23   C     C_R   0.075387 0.483911 0.774099 -0.063443
C24   C     C_R   0.466643 0.947381 0.504739 0.025189
C25   C     C_R   0.506894 0.871943 0.524970 -0.141237
C26   C     C_R   0.494790 0.126123 0.470481 -0.149899
C27   C     C_R   0.609999 0.898515 0.544082 -0.137579
C28   C     C_R   0.391583 0.099639 0.452329 -0.134988
C29   C     C_R   0.716322 0.669474 0.401922 -0.156880
C30   C     C_R   0.283770 0.330667 0.598164 -0.157108
C31   C     C_R   0.797548 0.639410 0.417308 0.039862
C32   C     C_R   0.202431 0.360559 0.582673 0.040283
C33   C     C_R   0.714453 0.508683 0.491730 0.028744
C34   C     C_R   0.933811 0.530534 0.225128 -0.067166
C35   C     C_R   0.285654 0.491479 0.508367 0.030320
C36   C     C_R   0.628758 0.535129 0.478062 0.000838
C37   C     C_R   0.371460 0.465202 0.522138 0.000301
C38   C     C_R   0.632041 0.618125 0.432296 0.039774
C39   C     C_R   0.368174 0.382203 0.567902 0.039717
C40   C     C_R   0.081685 0.572994 0.120574 0.399837
C41   C     C_R   0.921797 0.431682 0.879532 0.398715
C42   C     C_R   0.541250 0.483469 0.508160 0.020277
C43   C     C_R   0.459051 0.516986 0.492116 0.019775
C44   C     C_R   0.467325 0.601133 0.446737 -0.142787
C45   C     C_R   0.075268 0.482826 0.714975 -0.156924
C46   C     C_R   0.533052 0.399431 0.553610 -0.142324
C47   C     C_R   0.551811 0.650032 0.417389 -0.124222
C48   C     C_R   0.448524 0.350472 0.582919 -0.124704
C49   C     C_R   0.923169 0.428915 0.119320 0.397507
C50   C     C_R   0.079563 0.576698 0.880547 0.397620
C51   C     C_R   0.921132 0.428140 0.059499 0.029805
C52   C     C_R   0.081788 0.577204 0.940436 0.029519
C53   C     C_R   0.001796 0.502139 0.030100 -0.029087
C54   C     C_R   0.001301 0.503028 0.969883 -0.028926
C55   C     C_R   0.082939 0.575272 0.060770 0.027966
C56   C     C_R   0.933606 0.530999 0.284289 -0.159769
C57   C     C_R   0.920341 0.429708 0.939267 0.028691
C58   C     C_R   0.840722 0.355411 0.028530 -0.126238
C59   C     C_R   0.162240 0.649901 0.971420 -0.126154
C60   C     C_R   0.840375 0.356130 0.969045 -0.126314
C61   C     C_R   0.162859 0.648884 0.030984 -0.126282
C62   C     C_3   0.304546 0.769983 0.578996 -0.242440
C63   C     C_3   0.354302 0.841407 0.625717 -0.311089
C64   C     C_3   0.357924 0.780983 0.687932 -0.437900
C65   C     C_3   0.694546 0.227856 0.419290 -0.261059
C66   C     C_3   0.769922 0.239636 0.379260 -0.296232
C67   C     C_R   0.000184 0.501985 0.671376 -0.000745
C68   C     C_3   0.743133 0.287009 0.316231 -0.430642
C69   C     C_R   0.001634 0.500896 0.328487 -0.002097
C70   C     C_R   0.925626 0.522797 0.688007 -0.147482
Cu1   Cu    Cu3+1 0.081740 0.475680 0.515360 0.917660
Cu2   Cu    Cu3+1 0.918260 0.524320 0.484640 0.919542
H1    H     H_    0.777852 0.297701 0.050131 0.165537
H2    H     H_    0.719773 0.448250 0.526566 0.121445
H3    H     H_    0.136774 0.320336 0.605604 0.124040
H4    H     H_    0.863126 0.679508 0.394303 0.122962
H5    H     H_    0.719680 0.732973 0.366760 0.095869
H6    H     H_    0.280407 0.267160 0.633320 0.095774
H7    H     H_    0.409633 0.631692 0.432702 0.098695
H8    H     H_    0.590839 0.369010 0.567737 0.097870
H9    H     H_    0.777259 0.298914 0.946507 0.165896
H10   H     H_    0.226066 0.705980 0.053554 0.165926
H11   H     H_    0.133205 0.468329 0.807320 0.132788
H12   H     H_    0.225022 0.707725 0.949795 0.165343
H13   H     H_    0.880986 0.553713 0.191441 0.129869
H14   H     H_    0.133826 0.466794 0.703504 0.129007
H15   H     H_    0.880038 0.554665 0.295362 0.126735
H16   H     H_    0.866936 0.537997 0.655391 0.130153
H17   H     H_    0.123703 0.447646 0.345429 0.130693
H18   H     H_    0.868332 0.540308 0.759482 0.131502
H19   H     H_    0.123784 0.447909 0.241083 0.127987
H20   H     H_    0.637610 0.839028 0.564425 0.115231
H21   H     H_    0.364085 0.159134 0.431735 0.114796
H22   H     H_    0.077064 0.847700 0.426543 0.126684
H23   H     H_    0.807280 0.972484 0.586360 0.113901
H24   H     H_    0.922303 0.152774 0.574522 0.126183
H25   H     H_    0.279973 0.730565 0.697933 0.172538
H26   H     H_    0.402264 0.733818 0.692204 0.156804
H27   H     H_    0.394944 0.834459 0.720608 0.161995
H28   H     H_    0.433036 0.893437 0.618390 0.179634
H29   H     H_    0.310231 0.888449 0.622723 0.171561
H30   H     H_    0.230379 0.715132 0.592955 0.162667
H31   H     H_    0.346943 0.722302 0.580956 0.143072
H32   H     H_    0.667479 0.236444 0.296463 0.161274
H33   H     H_    0.742254 0.362506 0.315925 0.160039
H34   H     H_    0.193650 0.027145 0.412925 0.113026
H35   H     H_    0.800552 0.297525 0.288888 0.183075
H36   H     H_    0.848218 0.288999 0.396070 0.173115
H37   H     H_    0.768639 0.163542 0.378470 0.167688
H38   H     H_    0.618403 0.184014 0.396826 0.148646
H39   H     H_    0.696586 0.303505 0.421492 0.169380
H40   H     H_    0.459792 0.792095 0.525976 0.115441
H41   H     H_    0.542882 0.206460 0.466716 0.112456
H42   H     H_    0.554532 0.714079 0.382703 0.116933
H43   H     H_    0.445842 0.286481 0.617641 0.115189
H44   H     H_    0.280337 0.551900 0.473520 0.122951
N1    N     N_R   0.002563 0.500665 0.148440 -0.397447
N2    N     N_R   0.000549 0.504472 0.851468 -0.397208
N3    N     N_R   0.795430 0.560810 0.461550 -0.234388
N4    N     N_R   0.204570 0.439190 0.538450 -0.233568
O1    O     O_R   0.977900 0.338110 0.520250 -0.505072
O2    O     O_2   0.845699 0.360842 0.849851 -0.502915
O3    O     O_2   0.846827 0.358306 0.148304 -0.513762
O4    O     O_2   0.155331 0.648176 0.851455 -0.510177
O5    O     O_R   0.022100 0.661890 0.479750 -0.501269
O6    O     O_R   0.839850 0.379180 0.494310 -0.507461
O7    O     O_R   0.160150 0.620820 0.505690 -0.508670
O8    O     O_R   0.069020 0.479430 0.595090 -0.507946
O9    O     O_R   0.930980 0.520570 0.404910 -0.505977
O10   O     O_R   0.930970 0.520500 0.569150 -0.499949
O11   O     O_R   0.069030 0.479500 0.430850 -0.501722
O12   O     O_2   0.158370 0.642926 0.150558 -0.499550

loop_
_geom_bond_atom_site_label_1
_geom_bond_atom_site_label_2
_ccdc_geom_bond_type
C11   H24   S    
C47   H42   S    
C66   C68   S    
C34   C56   A    
C8    C13   A    
C23   C45   A    
C17   O11   A    
C14   C18   A    
C36   C42   A    
C63   H29   S    
C70   H16   S    
C32   H3    S    
Cu2   O9    S    
C12   O7    A    
C53   C54   A    
C15   C19   A    
C64   H27   S    
C63   H28   S    
C23   H11   S    
Cu1   N4    S    
C3    H18   S    
C35   C37   A    
C61   H10   S    
C58   C60   A    
C49   O3    S    
C33   C36   A    
C42   C46   A    
Cu2   O5    S    
C65   H39   S    
C25   H40   S    
C1    C7    S    
C14   C65   S    
C7    C14   A    
C49   N1    A    
C49   C51   A    
C29   C38   A    
C45   C67   A    
C50   C52   A    
C68   H35   S    
C41   N2    A    
C2    C69   A    
C16   O10   A    
C42   C43   A    
C9    H23   S    
C6    N1    S    
C44   C47   A    
C4    H19   S    
C64   H26   S    
C40   N1    A    
C40   O12   S    
C50   N2    A    
Cu1   O7    S    
C35   N4    A    
C32   N4    A    
C52   C54   A    
C53   C55   A    
C10   C21   A    
C46   C48   A    
C59   C61   A    
C17   O9    A    
C27   H20   S    
C3    C70   A    
C50   O4    S    
C59   H12   S    
C4    C6    A    
C16   C67   S    
C56   H15   S    
C12   O5    A    
C6    C34   A    
Cu2   O6    S    
C28   H21   S    
C51   C53   A    
C34   H13   S    
C41   O2    S    
C37   C43   A    
C2    H17   S    
C7    C11   A    
C43   C44   A    
C62   C63   S    
C52   C59   A    
C9    C11   A    
C60   H9    S    
C9    C20   A    
C5    C23   A    
C8    C12   S    
C40   C55   A    
C35   H44   S    
C51   C58   A    
C24   C25   A    
C16   O8    A    
C31   N3    A    
C38   C47   A    
C48   H43   S    
C64   H25   S    
C21   C28   A    
C33   N3    A    
C8    C15   A    
C1    O6    A    
C22   C24   A    
Cu1   O8    S    
C10   H34   S    
C68   H33   S    
C62   H31   S    
C17   C69   S    
C19   C21   A    
C18   C22   A    
Cu1   O1    S    
C44   H7    S    
C68   H32   S    
C66   H36   S    
C3    C5    A    
C10   C13   A    
Cu2   O10   S    
C20   C27   A    
C25   C27   A    
C5    N2    S    
C26   C28   A    
C13   H22   S    
C67   C70   A    
C36   C38   A    
C45   H14   S    
C26   H41   S    
C41   C57   A    
Cu1   Cu2   S    
C37   C39   A    
C30   C32   A    
C31   H4    S    
C2    C4    A    
C55   C61   A    
Cu2   N3    S    
C15   C62   S    
C30   C39   A    
C19   C24   A    
C18   C20   A    
C65   C66   S    
C66   H37   S    
C1    O1    A    
C65   H38   S    
Cu1   O11   S    
C63   C64   S    
C30   H6    S    
C33   H2    S    
C57   C60   A    
C29   H5    S    
C29   C31   A    
C56   C69   A    
C22   C26   A    
C46   H8    S    
C58   H1    S    
C39   C48   A    
C62   H30   S    
C54   C57   A    
