data_mof_unit_66968.cif
_audit_creation_date              2012-12-11T17:40:57-0500
_audit_creation_method            fapswitch 2.2
_symmetry_space_group_name_H-M    P1
_symmetry_Int_Tables_number       1
_space_group_crystal_system       triclinic
_cell_length_a                    8.365474
_cell_length_b                    12.744379
_cell_length_c                    14.196798
_cell_angle_alpha                 92.658782
_cell_angle_beta                  90.389539
_cell_angle_gamma                 98.30615
_cell_volume                      1495.93137798

loop_
_atom_site_label
_atom_site_type_symbol
_atom_type_description
_atom_site_fract_x
_atom_site_fract_y
_atom_site_fract_z
_atom_type_partial_charge
Ba1   Ba    Ba6+2 0.855630 0.555280 0.454520 1.663766
Ba2   Ba    Ba6+2 0.334200 0.444810 0.545490 1.657927
C1    C     C_3   0.636772 0.936573 0.129051 0.349805
C2    C     C_R   0.180041 0.497675 0.196070 0.043489
C3    C     C_R   0.331908 0.548399 0.226373 -0.291375
C4    C     C_3   0.113515 0.790771 0.196029 0.404221
C5    C     C_R   0.444342 0.592169 0.162492 0.005629
C6    C     C_R   0.403379 0.591446 0.066854 -0.062053
C7    C     C_R   0.248424 0.545922 0.034158 0.008063
C8    C     C_R   0.136311 0.494975 0.098098 -0.045579
C9    C     C_R   0.053728 0.502635 0.902167 -0.041401
C10   C     C_R   0.941618 0.451325 0.966030 -0.004908
C11   C     C_R   0.009503 0.501950 0.804346 0.034910
C12   C     C_3   0.626256 0.847603 0.198882 0.755823
C13   C     C_R   0.857381 0.451573 0.774095 -0.296709
C14   C     C_R   0.744283 0.408331 0.837883 0.029251
C15   C     C_R   0.786338 0.406424 0.933330 -0.131923
C16   C     C_3   0.130122 0.820720 0.091027 0.621449
C17   C     C_R   0.205606 0.550693 0.938293 -0.023482
C18   C     C_R   0.758772 0.176455 0.536391 -0.223523
C19   C     C_R   0.425214 0.814706 0.469680 -0.313040
C20   C     C_R   0.401815 0.995314 0.435272 -0.080198
C21   C     C_R   0.337568 0.888179 0.432025 -0.008299
C22   C     C_R   0.573362 0.847288 0.516297 0.059924
C23   C     C_3   0.420876 0.277988 0.256142 0.703889
C24   C     C_R   0.637113 0.957696 0.524133 -0.029162
C25   C     C_R   0.550074 0.032159 0.482044 -0.047012
C26   C     C_R   0.613984 0.141655 0.488083 -0.006717
C27   C     C_R   0.848637 0.104661 0.573920 0.047927
C28   C     C_3   0.210652 0.767233 0.659070 0.275730
C29   C     C_R   0.786369 0.996279 0.570123 -0.095734
C30   C     C_3   0.131389 0.866227 0.670742 -0.349160
C31   C     C_3   0.928823 0.237041 0.328940 0.681611
C32   C     C_3   0.846768 0.133134 0.282334 -0.344926
C33   C     C_3   0.714341 0.672686 0.736655 0.322920
C34   C     C_3   0.504151 0.326131 0.169400 -0.416224
C35   C     C_3   0.747550 0.701364 0.840804 0.189443
C36   C     C_3   0.516934 0.012748 0.153732 -0.425395
C37   C     C_3   0.112366 0.239139 0.859966 -0.273340
C38   C     C_3   0.845091 0.155784 0.795012 -0.336547
C39   C     C_3   0.006115 0.749278 0.027225 -0.375288
C40   C     C_3   0.017524 0.137863 0.814207 0.379994
C41   C     C_3   0.009358 0.049210 0.885255 -0.309673
C42   C     C_3   0.477166 0.149245 0.751857 0.316624
C43   C     C_3   0.459877 0.036293 0.784850 -0.347848
C44   C     C_R   0.985093 0.445174 0.061739 -0.042475
H1    H     H_    0.179700 0.913061 0.734191 0.130424
H2    H     H_    0.760438 0.981938 0.133335 0.021599
H3    H     H_    0.862749 0.756394 0.846290 0.076706
H4    H     H_    0.759147 0.629808 0.880490 -0.026394
H5    H     H_    0.496248 0.814254 0.206588 -0.073696
H6    H     H_    0.386758 0.344915 0.301058 0.024119
H7    H     H_    0.555482 0.265165 0.125694 0.099913
H8    H     H_    0.416646 0.360552 0.125392 0.084327
H9    H     H_    0.603778 0.389325 0.192030 0.109215
H10   H     H_    0.131532 0.037340 0.908887 0.139901
H11   H     H_    0.941890 0.068882 0.949399 0.087953
H12   H     H_    0.151400 0.914307 0.607718 0.104172
H13   H     H_    0.948064 0.972855 0.852547 0.123218
H14   H     H_    0.580134 0.162015 0.703385 -0.023280
H15   H     H_    0.370562 0.160431 0.709987 0.128422
H16   H     H_    0.559919 0.025083 0.833071 0.131399
H17   H     H_    0.458058 0.979380 0.723134 0.070798
H18   H     H_    0.992593 0.746256 0.208312 0.060858
H19   H     H_    0.348455 0.019527 0.825684 0.129303
H20   H     H_    0.366351 0.549569 0.300086 0.062608
H21   H     H_    0.492459 0.626766 0.018465 0.110397
H22   H     H_    0.698306 0.369318 0.981701 0.076599
H23   H     H_    0.001037 0.843633 0.683159 0.129497
H24   H     H_    0.823323 0.450014 0.700299 0.068471
H25   H     H_    0.898728 0.401836 0.107083 0.100800
H26   H     H_    0.291791 0.593027 0.892720 0.093626
H27   H     H_    0.333265 0.048651 0.401253 0.110367
H28   H     H_    0.856131 0.943822 0.603065 0.090098
H29   H     H_    0.806902 0.260112 0.540151 0.079510
H30   H     H_    0.203513 0.737375 0.211110 -0.049079
H31   H     H_    0.375677 0.731347 0.464470 0.065330
H32   H     H_    0.343140 0.790289 0.655501 0.007352
H33   H     H_    0.165735 0.725641 0.591656 0.062392
H34   H     H_    0.834698 0.282484 0.356209 0.011718
H35   H     H_    0.650757 0.842013 0.333847 0.291984
H36   H     H_    0.093570 0.162807 0.380864 0.332824
H37   H     H_    0.523292 0.704911 0.871468 0.303875
H38   H     H_    0.528697 0.039135 0.229077 0.130746
H39   H     H_    0.538884 0.082138 0.108884 0.099007
H40   H     H_    0.391771 0.974266 0.142251 0.220152
H41   H     H_    0.310519 0.153515 0.184997 0.314102
H42   H     H_    0.647514 0.949984 0.993616 0.309821
H43   H     H_    0.301766 0.836411 0.998249 0.356023
H44   H     H_    0.130715 0.302411 0.808593 0.136384
H45   H     H_    0.774614 0.151768 0.221262 0.088036
H46   H     H_    0.046694 0.266931 0.921641 0.057600
H47   H     H_    0.230118 0.223723 0.887141 0.157387
H48   H     H_    0.782978 0.083402 0.757199 0.075176
H49   H     H_    0.782154 0.170090 0.862050 0.104193
H50   H     H_    0.842010 0.225884 0.752038 0.039674
H51   H     H_    0.984395 0.667480 0.051633 0.100720
H52   H     H_    0.889621 0.780710 0.024763 0.178075
H53   H     H_    0.051960 0.745419 0.954263 0.098955
H54   H     H_    0.005154 0.938271 0.106945 0.304046
H55   H     H_    0.768408 0.087634 0.333008 0.116810
H56   H     H_    0.937793 0.083863 0.255884 0.153431
H57   H     H_    0.823584 0.646464 0.705072 -0.063004
H58   H     H_    0.610581 0.607770 0.728933 0.030979
O1    O     O_2   0.887370 0.460630 0.272300 -0.488316
O2    O     O_2   0.174943 0.112053 0.557343 -0.476374
O3    O     O_3   0.098084 0.103461 0.732885 -0.628513
O4    O     O_3   0.129410 0.451380 0.388510 -0.457708
O5    O     O_3   0.575400 0.626570 0.547370 -0.487117
O6    O     O_2   0.344320 0.238700 0.455090 -0.424702
O7    O     O_3   0.526613 0.219779 0.301677 -0.690530
O8    O     O_2   0.411790 0.410013 0.837572 -0.503681
O9    O     O_3   0.495776 0.220492 0.831005 -0.621419
O10   O     O_3   0.670210 0.653170 0.329170 -0.482678
O11   O     O_2   0.769201 0.577273 0.165416 -0.506117
O12   O     O_3   0.678695 0.763697 0.695046 -0.626744
O13   O     O_3   0.020543 0.291122 0.260060 -0.604126
O14   O     O_3   0.718896 0.771336 0.163784 -0.609837
O15   O     O_2   0.845380 0.761330 0.544970 -0.482082
O16   O     O_3   0.088930 0.704860 0.376040 -0.501888
O17   O     O_2   0.002174 0.892122 0.423868 -0.452127
O18   O     O_3   0.692686 0.891266 0.285314 -0.777191
O19   O     O_3   0.028621 0.217847 0.403733 -0.708987
O20   O     O_3   0.625974 0.754011 0.879855 -0.663902
O21   O     O_3   0.279940 0.209751 0.228842 -0.723119
O22   O     O_3   0.606916 0.893396 0.036914 -0.671595
O23   O     O_3   0.137424 0.881706 0.257750 -0.610595
O24   O     O_3   0.284976 0.805437 0.061009 -0.730533
O25   O     O_3   0.111413 0.927774 0.080821 -0.728517
O26   O     O_2   0.302330 0.539400 0.727760 -0.467919
O27   O     O_3   0.060300 0.548700 0.611500 -0.491723
O28   O     O_3   0.519500 0.346920 0.670840 -0.488725
O29   O     O_3   0.176523 0.709349 0.739730 -0.642421
O30   O     O_3   0.614310 0.373510 0.452640 -0.483413
O31   O     O_3   0.100780 0.295230 0.623970 -0.451058
P1    P     P_3+3 0.054400 0.427280 0.286870 1.019895
P2    P     P_3+3 0.668300 0.742890 0.573060 0.975652
P3    P     P_3+3 0.140036 0.842356 0.374803 0.965420
P4    P     P_3+3 0.135310 0.572810 0.713130 0.966988
P5    P     P_3+3 0.052067 0.155595 0.623772 0.974847
P6    P     P_3+3 0.647645 0.646878 0.206052 0.941040
P7    P     P_3+3 0.525106 0.241822 0.424318 0.935219
P8    P     P_3+3 0.542894 0.349977 0.793586 0.918542

loop_
_geom_bond_atom_site_label_1
_geom_bond_atom_site_label_2
_ccdc_geom_bond_type
O11   P6    D    
Ba2   O5    S    
C31   O13   S    
C12   O18   S    
C43   H16   S    
C21   P3    S    
C30   H12   S    
O14   P6    S    
Ba1   O4    S    
C1    O22   S    
C5    C6    A    
C9    C17   A    
C24   C25   A    
Ba2   O30   S    
C36   H40   S    
Ba2   P4    S    
C11   P4    S    
O8    P8    D    
C33   C35   S    
C22   C24   A    
C4    O23   S    
O4    P1    S    
C33   H57   S    
Ba1   O10   S    
C13   C14   A    
C1    H2    S    
O5    P2    S    
Ba1   Ba2   S    
Ba1   O15   S    
C4    H18   S    
O3    P5    S    
O6    P7    D    
C23   O21   S    
C32   H45   S    
C37   H47   S    
H42   O22   S    
C34   H7    S    
O7    P7    S    
Ba1   O5    S    
C7    C17   A    
C1    C36   S    
C6    C7    A    
C12   O14   S    
C10   C15   A    
C8    C44   A    
Ba2   O28   S    
C39   H53   S    
O23   P3    S    
H37   O20   S    
Ba1   P1    S    
C40   O3    S    
C37   H44   S    
C27   P5    S    
C41   H13   S    
C2    P1    S    
C16   O24   S    
O28   P8    S    
C38   C40   S    
C24   C29   A    
C17   H26   S    
C38   H50   S    
O26   P4    D    
Ba2   O27   S    
C37   C40   S    
C18   C27   A    
O31   P5    S    
C4    C16   S    
C32   H55   S    
C36   H39   S    
O15   P2    D    
O10   P6    S    
C14   P8    S    
O27   P4    S    
C10   C44   A    
C33   H58   S    
C16   C39   S    
C3    C5    A    
C41   H11   S    
H54   O25   S    
C3    H20   S    
C29   H28   S    
C18   C26   A    
C43   H17   S    
O9    P8    S    
C18   H29   S    
Ba1   O16   S    
O17   P3    D    
O30   P7    S    
C35   O20   S    
C35   H3    S    
O2    P5    D    
C12   H5    S    
C28   O29   S    
C31   C32   S    
C33   O12   S    
C32   H56   S    
C44   H25   S    
C1    C12   S    
O1    P1    D    
C28   H33   S    
C42   O9    S    
O29   P4    S    
C20   C25   A    
C19   C21   A    
C43   H19   S    
C42   H15   S    
C30   H1    S    
C39   H51   S    
C26   P7    S    
C40   C41   S    
C38   H49   S    
C2    C8    A    
Ba1   O30   S    
C37   H46   S    
C5    P6    S    
Ba1   P2    S    
C42   C43   S    
H36   O19   S    
C7    C8    A    
C13   H24   S    
Ba2   O6    S    
C15   H22   S    
H41   O21   S    
C36   H38   S    
C39   H52   S    
C38   H48   S    
C2    C3    A    
Ba1   O27   S    
C9    C10   A    
C31   H34   S    
C4    H30   S    
C30   H23   S    
C22   P2    S    
Ba2   O31   S    
H35   O18   S    
C11   C13   A    
C23   H6    S    
C27   C29   A    
C34   H9    S    
C28   C30   S    
C35   H4    S    
C9    C11   A    
C14   C15   A    
C42   H14   S    
Ba2   O4    S    
Ba2   O26   S    
C34   H8    S    
C23   O7    S    
C23   C34   S    
C28   H32   S    
C41   H10   S    
O16   P3    S    
C6    H21   S    
O12   P2    S    
C19   C22   A    
C19   H31   S    
C25   C26   A    
C31   O19   S    
C20   C21   A    
C16   O25   S    
C20   H27   S    
O13   P1    S    
Ba1   O1    S    
H43   O24   S    
