data_mof_unit_57679.cif
_audit_creation_date              2012-12-10T17:43:35-0500
_audit_creation_method            fapswitch 2.2
_symmetry_space_group_name_H-M    P1
_symmetry_Int_Tables_number       1
_space_group_crystal_system       triclinic
_cell_length_a                    14.978379
_cell_length_b                    10.718513
_cell_length_c                    9.906101
_cell_angle_alpha                 89.589482
_cell_angle_beta                  90.650669
_cell_angle_gamma                 92.238002
_cell_volume                      1589.03287966

loop_
_atom_site_label
_atom_site_type_symbol
_atom_type_description
_atom_site_fract_x
_atom_site_fract_y
_atom_site_fract_z
_atom_type_partial_charge
C1    C     C_R   0.504535 0.259723 0.501597 0.882912
C2    C     C_R   0.908856 0.577170 0.394160 0.062191
C3    C     C_R   0.950268 0.399469 0.713187 -0.246840
C4    C     C_R   0.043161 0.395332 0.714871 0.099352
C5    C     C_R   0.091565 0.449458 0.606579 0.116529
C6    C     C_R   0.046826 0.507768 0.497369 -0.009603
C7    C     C_R   0.095164 0.560152 0.387058 0.106281
C8    C     C_R   0.050037 0.618324 0.279099 0.186988
C9    C     C_R   0.957585 0.626975 0.284592 -0.221209
C10   C     C_R   0.184117 0.447620 0.605624 -0.251041
C11   C     C_R   0.231203 0.499475 0.497484 -0.085226
C12   C     C_R   0.326867 0.498982 0.499303 0.866911
C13   C     C_R   0.187695 0.553558 0.388314 -0.249673
C14   C     C_R   0.522116 0.106996 0.758146 -0.150731
C15   C     C_R   0.496474 0.044406 0.876328 -0.155020
C16   C     C_R   0.448153 0.931396 0.868438 -0.168539
C17   C     C_R   0.433591 0.875373 0.743419 -0.127324
C18   C     C_R   0.466687 0.933128 0.624005 0.056510
C19   C     C_R   0.498395 0.057321 0.629454 0.091821
C20   C     C_R   0.503703 0.125310 0.505737 -0.147588
C21   C     C_R   0.491117 0.064892 0.382093 -0.280006
C22   C     C_R   0.476745 0.937750 0.377559 0.100554
C23   C     C_R   0.488508 0.738190 0.499455 0.890055
C24   C     C_R   0.471590 0.870147 0.499519 -0.145724
C25   C     C_R   0.382430 0.335529 0.139340 -0.154540
C26   C     C_R   0.324921 0.253781 0.068737 -0.205151
C27   C     C_R   0.325141 0.253407 0.928989 -0.173982
C28   C     C_R   0.382885 0.334737 0.859029 -0.143572
C29   C     C_R   0.442251 0.418567 0.927180 0.112226
C30   C     C_R   0.442204 0.418744 0.071813 0.147804
C31   C     C_R   0.554535 0.578175 0.073627 -0.124462
C32   C     C_R   0.555533 0.578710 0.930926 0.225542
C33   C     C_R   0.673093 0.506779 0.500582 0.894619
C34   C     C_R   0.815787 0.588115 0.401141 0.160551
C35   C     C_R   0.769096 0.519604 0.502188 -0.080437
C36   C     C_R   0.814071 0.458612 0.605513 -0.303158
C37   C     C_R   0.906113 0.458143 0.606815 0.103591
C38   C     C_R   0.953929 0.514127 0.499120 0.006067
H1    H     H_    0.562376 0.191944 0.770330 0.166382
H2    H     H_    0.512531 0.084954 0.973852 0.139029
H3    H     H_    0.424590 0.884772 0.959123 0.138110
H4    H     H_    0.395850 0.787228 0.740944 0.164250
H5    H     H_    0.598489 0.641872 0.129813 0.158654
H6    H     H_    0.377965 0.331051 0.246439 0.205819
H7    H     H_    0.279853 0.190436 0.122951 0.148440
H8    H     H_    0.280442 0.189538 0.874241 0.145869
H9    H     H_    0.379356 0.328667 0.751932 0.202315
H10   H     H_    0.776980 0.409293 0.684350 0.167303
H11   H     H_    0.912292 0.356802 0.795112 0.141424
H12   H     H_    0.220219 0.405243 0.688302 0.172660
H13   H     H_    0.227132 0.593331 0.306645 0.178485
H14   H     H_    0.923906 0.670933 0.200720 0.165088
H15   H     H_    0.492551 0.115806 0.287100 0.174262
N1    N     N_R   0.499150 0.498800 0.142780 -0.136896
N2    N     N_R   0.499120 0.498720 0.857170 -0.130121
O1    O     O_R   0.500000 0.316780 0.614690 -0.653029
O2    O     O_R   0.499990 0.316750 0.385360 -0.638153
O3    O     O_R   0.367850 0.499980 0.614680 -0.644064
O4    O     O_R   0.367840 0.499960 0.385350 -0.640555
O5    O     O_R   0.500010 0.683250 0.614640 -0.640673
O6    O     O_R   0.500000 0.683220 0.385310 -0.591461
O7    O     O_R   0.632160 0.500040 0.614650 -0.634681
O8    O     O_R   0.632150 0.500020 0.385320 -0.605088
Zn1   Zn    Zn3+2 0.500010 0.500020 0.653130 0.915624
Zn2   Zn    Zn3+2 0.499990 0.499980 0.346870 0.936659
C39   C     C_3   0.768442 0.677678 0.307486 -0.917279
H16   H     H_    0.702325 0.703330 0.345377 0.249496
H17   H     H_    0.807458 0.767684 0.300436 0.230988
H18   H     H_    0.760506 0.636300 0.205435 0.239536
N3    N     N_3   0.465526 0.878561 0.248741 -0.428412
H19   H     H_    0.522543 0.899224 0.191519 0.178011
H20   H     H_    0.410916 0.917281 0.199565 0.169475
C40   C     C_3   0.621271 0.670069 0.867336 -0.843023
H21   H     H_    0.621682 0.668033 0.757333 0.298182
H22   H     H_    0.606029 0.766332 0.897951 0.221950
H23   H     H_    0.689827 0.650001 0.903058 0.208349
N4    N     N_3   0.088385 0.336081 0.825552 -0.462835
H24   H     H_    0.111955 0.252009 0.789963 0.171035
H25   H     H_    0.043679 0.312820 0.902903 0.186670
C41   C     C_3   0.098561 0.672072 0.157642 -0.927055
H26   H     H_    0.134730 0.597559 0.106536 0.252745
H27   H     H_    0.052032 0.712408 0.082490 0.241949
H28   H     H_    0.146738 0.747758 0.189776 0.237889

loop_
_geom_bond_atom_site_label_1
_geom_bond_atom_site_label_2
_ccdc_geom_bond_type
C8    C9    A    
C39   H17   S    
O8    Zn2   S    
C28   H9    S    
C40   H21   S    
C35   C36   A    
C34   C39   S    
C3    H11   S    
C7    C8    A    
N1    Zn2   S    
N4    H24   S    
C30   N1    A    
C26   C27   A    
C29   C30   A    
C31   H5    S    
C18   C24   A    
C36   C37   A    
C1    O1    A    
C18   C19   A    
C5    C6    A    
C39   H18   S    
C15   C16   A    
C34   C35   A    
C17   H4    S    
O7    Zn1   S    
C26   H7    S    
C14   H1    S    
C13   H13   S    
C12   O4    A    
C19   C20   A    
C16   C17   A    
C23   C24   S    
C6    C38   A    
N3    H19   S    
C32   N2    A    
C12   O3    A    
C2    C34   A    
C39   H16   S    
C21   C22   A    
C40   H22   S    
C9    H14   S    
C41   H28   S    
C25   H6    S    
N4    H25   S    
O3    Zn1   S    
C23   O5    A    
C41   H27   S    
C32   C40   S    
C41   H26   S    
C4    N4    S    
C29   N2    A    
C25   C26   A    
C33   O7    A    
C37   C38   A    
C1    O2    A    
C2    C38   A    
C31   C32   A    
C7    C13   A    
C33   O8    A    
N2    Zn1   S    
O1    Zn1   S    
C17   C18   A    
C27   H8    S    
C40   H23   S    
C22   C24   A    
C3    C4    A    
C10   H12   S    
C25   C30   A    
C28   C29   A    
C1    C20   S    
C14   C19   A    
O2    Zn2   S    
C4    C5    A    
C11   C12   S    
C6    C7    A    
O5    Zn1   S    
C5    C10   A    
O4    Zn2   S    
C21   H15   S    
C11   C13   A    
C33   C35   S    
C36   H10   S    
C31   N1    A    
C15   H2    S    
C10   C11   A    
O6    Zn2   S    
C23   O6    A    
C20   C21   A    
C3    C37   A    
C27   C28   A    
C8    C41   S    
C14   C15   A    
N3    H20   S    
C2    C9    A    
C16   H3    S    
C22   N3    S    
