data_mof_unit_33262.cif
_audit_creation_date              2012-12-10T17:15:13-0500
_audit_creation_method            fapswitch 2.2
_symmetry_space_group_name_H-M    P1
_symmetry_Int_Tables_number       1
_space_group_crystal_system       triclinic
_cell_length_a                    15.827791
_cell_length_b                    13.032282
_cell_length_c                    11.816022
_cell_angle_alpha                 99.941652
_cell_angle_beta                  92.941166
_cell_angle_gamma                 93.049334
_cell_volume                      2392.78105124

loop_
_atom_site_label
_atom_site_type_symbol
_atom_type_description
_atom_site_fract_x
_atom_site_fract_y
_atom_site_fract_z
_atom_type_partial_charge
C1    C     C_R   0.503587 0.299810 0.478251 0.859239
C2    C     C_R   0.500081 0.701129 0.522032 0.827385
C3    C     C_R   0.536433 0.017670 0.352997 0.186156
C4    C     C_R   0.507527 0.988782 0.656031 0.155924
C5    C     C_R   0.537028 0.127033 0.362555 0.393710
C6    C     C_R   0.500628 0.879682 0.646481 0.454526
C7    C     C_R   0.501059 0.140317 0.562234 -0.247055
C8    C     C_R   0.506774 0.862721 0.438763 -0.288143
C9    C     C_R   0.507654 0.033687 0.556108 0.014939
C10   C     C_R   0.515330 0.970841 0.447919 0.024308
C11   C     C_R   0.410846 0.409882 0.025075 0.325131
C12   C     C_R   0.604644 0.556142 0.966514 0.330335
C13   C     C_R   0.418694 0.420364 0.145704 0.290502
C14   C     C_R   0.586368 0.568266 0.852007 0.303639
C15   C     C_R   0.547979 0.524116 0.152882 0.544050
C16   C     C_R   0.454269 0.472218 0.846591 0.547154
C17   C     C_R   0.540455 0.517132 0.029763 -0.277196
C18   C     C_R   0.466985 0.467836 0.967109 -0.309928
C19   C     C_R   0.340151 0.500824 0.500927 0.822685
C20   C     C_R   0.659795 0.500197 0.499130 0.830004
C21   C     C_3   0.971753 0.448925 0.579194 0.257597
C22   C     C_3   0.027663 0.557796 0.420967 0.257074
C23   C     C_3   0.023256 0.404744 0.476782 0.247291
C24   C     C_3   0.976329 0.602154 0.524009 0.246742
C25   C     C_1   0.250688 0.503355 0.503112 -0.152815
C26   C     C_1   0.749181 0.500339 0.496924 -0.123105
C27   C     C_3   0.030698 0.549165 0.606334 0.241802
C28   C     C_3   0.968799 0.457585 0.394103 0.252119
C29   C     C_3   0.083542 0.505087 0.503685 -0.136440
C30   C     C_3   0.916164 0.501851 0.496763 -0.139693
C31   C     C_1   0.175229 0.504925 0.504326 0.133435
C32   C     C_1   0.824614 0.500796 0.495810 0.144473
C33   C     C_R   0.501189 0.815991 0.536546 -0.194155
C34   C     C_R   0.512021 0.186925 0.465602 -0.189576
Cu1   Cu    Cu3+1 0.506200 0.507730 0.615930 1.023856
Cu2   Cu    Cu3+1 0.493800 0.492270 0.384070 1.012665
H1    H     H_    0.503102 0.814730 0.354594 0.198662
H2    H     H_    0.486540 0.187670 0.642641 0.218208
N1    N     N_R   0.515540 0.519350 0.790140 -0.271376
N2    N     N_R   0.484460 0.480650 0.209860 -0.267022
O1    O     O_R   0.504400 0.354460 0.582000 -0.572877
O2    O     O_R   0.495600 0.645540 0.418000 -0.617549
O3    O     O_R   0.493920 0.341410 0.386200 -0.546712
O4    O     O_R   0.506080 0.658590 0.613800 -0.502030
O5    O     O_R   0.384320 0.506520 0.597880 -0.570006
O6    O     O_R   0.615680 0.493480 0.402120 -0.530784
O7    O     O_R   0.373840 0.493460 0.402080 -0.527510
O8    O     O_R   0.626160 0.506540 0.597920 -0.556513
O9    O     O_3   0.055487 0.304681 0.453815 -0.582262
C35   C     C_3   0.988197 0.226893 0.435521 0.097294
H3    H     H_    0.939571 0.241051 0.369760 0.188441
H4    H     H_    0.957014 0.222509 0.516591 0.184881
C36   C     C_3   0.023232 0.121519 0.393724 -0.808676
H5    H     H_    0.070776 0.103688 0.458883 0.251374
H6    H     H_    0.971013 0.059444 0.379781 0.209017
H7    H     H_    0.053728 0.122508 0.311289 0.259016
O10   O     O_3   0.944585 0.702375 0.548894 -0.577789
C37   C     C_3   0.012150 0.779925 0.565632 0.073694
H8    H     H_    0.045652 0.780572 0.485758 0.182405
H9    H     H_    0.059299 0.768532 0.634576 0.173046
C38   C     C_3   0.976894 0.886423 0.599757 -0.797928
H10   H     H_    0.944221 0.889543 0.681142 0.261475
H11   H     H_    0.029311 0.948217 0.612679 0.198360
H12   H     H_    0.931125 0.901267 0.530841 0.257774
O11   O     O_3   0.934760 0.391995 0.657551 -0.579515
C39   C     C_3   0.998531 0.356378 0.726595 0.065424
H13   H     H_    0.026034 0.421150 0.793835 0.174487
H14   H     H_    0.050527 0.321942 0.675641 0.178647
C40   C     C_3   0.959499 0.272850 0.786685 -0.802220
H15   H     H_    0.931199 0.206171 0.722079 0.255001
H16   H     H_    0.009208 0.244166 0.840969 0.202273
H17   H     H_    0.909388 0.305636 0.842112 0.251995
O12   O     O_3   0.063493 0.613625 0.340870 -0.573732
C41   C     C_3   0.999052 0.654715 0.277742 0.078347
H18   H     H_    0.947854 0.687059 0.331645 0.178858
H19   H     H_    0.969680 0.593714 0.207922 0.165035
C42   C     C_3   0.037959 0.742299 0.223438 -0.816145
H20   H     H_    0.087519 0.712106 0.165561 0.263339
H21   H     H_    0.988045 0.774766 0.172991 0.208091
H22   H     H_    0.067155 0.805849 0.291147 0.246951
O13   O     O_3   0.929561 0.410402 0.286188 -0.584719
C43   C     C_3   0.991069 0.371982 0.209612 0.097460
H23   H     H_    0.044985 0.338911 0.252053 0.198741
H24   H     H_    0.017323 0.434996 0.167029 0.164980
C44   C     C_3   0.949453 0.285704 0.117221 -0.801484
H25   H     H_    0.895606 0.315277 0.071179 0.252899
H26   H     H_    0.996496 0.257332 0.054490 0.207415
H27   H     H_    0.925498 0.219394 0.156820 0.255202
O14   O     O_3   0.068359 0.595638 0.715271 -0.604444
C45   C     C_3   0.005122 0.631662 0.790038 0.097873
H28   H     H_    0.950872 0.573234 0.787197 0.185583
H29   H     H_    0.980070 0.704226 0.768466 0.191442
C46   C     C_3   0.043689 0.656108 0.912778 -0.855753
H30   H     H_    0.096782 0.716578 0.919935 0.258173
H31   H     H_    0.994578 0.685723 0.971532 0.215283
H32   H     H_    0.067771 0.584572 0.938767 0.246459
O15   O     O_3   0.499025 0.835191 0.744848 -0.509227
C47   C     C_3   0.423042 0.855669 0.801064 0.140151
H33   H     H_    0.380013 0.906261 0.760738 0.103374
H34   H     H_    0.439901 0.895284 0.891010 0.206705
C48   C     C_3   0.373898 0.753511 0.804779 -0.822785
H35   H     H_    0.414317 0.702328 0.847187 0.251618
H36   H     H_    0.316583 0.768362 0.854048 0.198544
H37   H     H_    0.353959 0.714356 0.715631 0.237100
O16   O     O_3   0.582579 0.176321 0.287953 -0.547755
C49   C     C_3   0.534006 0.177406 0.184727 0.113162
H38   H     H_    0.473664 0.214375 0.201868 0.166738
H39   H     H_    0.518701 0.097922 0.134784 0.192657
C50   C     C_3   0.585372 0.239564 0.111173 -0.695354
H40   H     H_    0.643700 0.199541 0.086911 0.274363
H41   H     H_    0.547862 0.246989 0.031612 0.185325
H42   H     H_    0.603873 0.318816 0.160140 0.254294
Br1   Br    Br    0.581251 0.935725 0.219905 -0.570916
Br2   Br    Br    0.532282 0.073429 0.806228 -0.608424
O17   O     O_3   0.381223 0.426039 0.784744 -0.534121
C51   C     C_3   0.311338 0.487303 0.814483 0.168233
H43   H     H_    0.312425 0.555356 0.770483 0.147344
H44   H     H_    0.310005 0.517845 0.908311 0.139625
C52   C     C_3   0.228760 0.422726 0.775362 -0.772390
H45   H     H_    0.217542 0.362887 0.830011 0.265689
H46   H     H_    0.175374 0.474504 0.783197 0.228366
H47   H     H_    0.230286 0.383484 0.684406 0.248689
O18   O     O_3   0.624506 0.559975 0.212678 -0.540943
C53   C     C_3   0.633221 0.670261 0.233751 0.175223
H48   H     H_    0.594499 0.701231 0.303775 0.155248
H49   H     H_    0.614398 0.705352 0.157597 0.188090
C54   C     C_3   0.724634 0.706715 0.273775 -0.703820
H50   H     H_    0.767368 0.685990 0.203186 0.263704
H51   H     H_    0.729805 0.792848 0.301006 0.226457
H52   H     H_    0.745313 0.670233 0.347995 0.234139
Br3   Br    Br    0.659563 0.666577 0.793067 -0.385644
Br4   Br    Br    0.335947 0.337944 0.211792 -0.502248
O19   O     O_3   0.346305 0.343196 0.965252 -0.546620
C55   C     C_3   0.378999 0.245850 0.924484 0.168543
H53   H     H_    0.397589 0.206694 0.997664 0.146222
H54   H     H_    0.434560 0.255029 0.872230 0.177032
C56   C     C_3   0.311149 0.175533 0.848335 -0.764163
H55   H     H_    0.296309 0.207584 0.768964 0.254708
H56   H     H_    0.334255 0.096357 0.823232 0.205254
H57   H     H_    0.252678 0.169288 0.895448 0.246772
O20   O     O_3   0.685934 0.582584 0.014987 -0.543497
C57   C     C_3   0.737557 0.499739 0.976724 0.146297
H58   H     H_    0.740594 0.486669 0.881357 0.157364
H59   H     H_    0.713284 0.426052 0.003106 0.148184
C58   C     C_3   0.827304 0.526717 0.029650 -0.795367
H60   H     H_    0.828783 0.524755 0.123281 0.262221
H61   H     H_    0.870672 0.469290 0.988472 0.199016
H62   H     H_    0.849788 0.605647 0.016213 0.251630

loop_
_geom_bond_atom_site_label_1
_geom_bond_atom_site_label_2
_ccdc_geom_bond_type
C25   C31   T    
C39   H14   S    
C11   C18   A    
C26   C32   T    
C46   H30   S    
C22   C29   S    
C27   C29   S    
O12   C41   S    
O16   C49   S    
Cu2   O2    S    
Cu1   Cu2   S    
C24   C27   S    
C55   C56   S    
O15   C47   S    
O10   C37   S    
O18   C53   S    
C5    O16   S    
C42   H20   S    
C12   O20   S    
C56   H56   S    
C48   H35   S    
C15   O18   S    
C23   C29   S    
C4    Br2   S    
C50   H41   S    
C19   O7    A    
C23   O9    S    
C39   C40   S    
C49   H38   S    
C37   H9    S    
O17   C51   S    
C51   H43   S    
Cu2   O7    S    
C40   H16   S    
C38   H11   S    
C13   N2    A    
C14   N1    A    
C1    O3    A    
C2    O4    A    
C24   O10   S    
C41   C42   S    
C12   C17   A    
C35   H4    S    
Cu2   O6    S    
C9    C10   A    
C36   H7    S    
C37   C38   S    
C44   H26   S    
C39   H13   S    
C21   C27   S    
C48   H36   S    
C6    C33   A    
C22   C28   S    
C57   C58   S    
C40   H15   S    
Cu1   O1    S    
Cu1   O8    S    
C58   H61   S    
C1    C34   S    
C58   H60   S    
C14   Br3   S    
C36   H6    S    
C56   H57   S    
C35   C36   S    
C41   H18   S    
C6    O15   S    
Cu2   N2    S    
C4    C6    A    
C3    Br1   S    
C50   H42   S    
C55   H54   S    
C35   H3    S    
C37   H8    S    
C44   H25   S    
O13   C43   S    
C38   H12   S    
Cu1   N1    S    
C54   H51   S    
C45   H29   S    
C20   C26   S    
C5    C34   A    
C17   C18   A    
C42   H21   S    
C16   C18   A    
C23   C28   S    
Cu1   O4    S    
C20   O8    A    
C52   H46   S    
C41   H19   S    
C53   C54   S    
C2    C33   S    
C1    O1    A    
C12   C14   A    
C43   H23   S    
C48   H37   S    
C43   H24   S    
C21   C23   S    
O19   C55   S    
O9    C35   S    
C57   H59   S    
C8    H1    S    
C54   H50   S    
C47   C48   S    
C16   O17   S    
C58   H62   S    
C44   H27   S    
C45   C46   S    
C53   H49   S    
C21   C30   S    
C42   H22   S    
C15   C17   A    
C21   O11   S    
C28   O13   S    
C52   H47   S    
C40   H17   S    
C3    C5    A    
C52   H45   S    
C19   O5    A    
C36   H5    S    
C55   H53   S    
C46   H32   S    
C43   C44   S    
C56   H55   S    
C47   H34   S    
C51   C52   S    
C13   Br4   S    
C11   O19   S    
O14   C45   S    
C54   H52   S    
C29   C31   S    
C3    C10   A    
O20   C57   S    
C30   C32   S    
C11   C13   A    
C45   H28   S    
C46   H31   S    
C49   H39   S    
C2    O2    A    
C28   C30   S    
C7    C34   A    
C7    H2    S    
C51   H44   S    
C27   O14   S    
C22   C24   S    
C8    C33   A    
O11   C39   S    
C38   H10   S    
C19   C25   S    
C24   C30   S    
C15   N2    A    
C16   N1    A    
C7    C9    A    
C8    C10   A    
C47   H33   S    
C57   H58   S    
Cu2   O3    S    
C22   O12   S    
C4    C9    A    
C50   H40   S    
C20   O6    A    
C53   H48   S    
C49   C50   S    
Cu1   O5    S    
