data_mof_unit_63390.cif
_audit_creation_date              2013-03-05T15:54:12-0500
_audit_creation_method            fapswitch 2.2
_symmetry_space_group_name_H-M    P1
_symmetry_Int_Tables_number       1
_space_group_crystal_system       triclinic
_cell_length_a                    24.364778
_cell_length_b                    24.364778
_cell_length_c                    27.693594
_cell_angle_alpha                 89.99985
_cell_angle_beta                  89.99985
_cell_angle_gamma                 89.999843
_cell_volume                      16440.0918002

loop_
_atom_site_label
_atom_site_type_symbol
_atom_site_description
_atom_site_fract_x
_atom_site_fract_y
_atom_site_fract_z
_atom_type_partial_charge
Zn1   Zn    Zn3+2 0.000000 0.565500 0.710070 1.127741
Zn2   Zn    Zn3+2 1.000000 0.434500 0.289930 1.127746
Zn3   Zn    Zn3+2 0.565500 0.000000 0.710070 1.127509
Zn4   Zn    Zn3+2 0.434500 0.000000 0.289930 1.127529
Zn5   Zn    Zn3+2 0.000000 0.434500 0.710070 1.127745
Zn6   Zn    Zn3+2 1.000000 0.565500 0.289930 1.127750
Zn7   Zn    Zn3+2 0.434500 0.000000 0.710070 1.127517
Zn8   Zn    Zn3+2 0.565500 0.000000 0.289930 1.127528
Zn9   Zn    Zn3+2 0.500000 0.065500 0.210070 1.127529
Zn10  Zn    Zn3+2 0.500000 0.934500 0.789930 1.127509
Zn11  Zn    Zn3+2 0.065500 0.500000 0.210070 1.127746
Zn12  Zn    Zn3+2 0.934500 0.500000 0.789930 1.127741
Zn13  Zn    Zn3+2 0.500000 0.934500 0.210070 1.127528
Zn14  Zn    Zn3+2 0.500000 0.065500 0.789930 1.127517
Zn15  Zn    Zn3+2 0.934500 0.500000 0.210070 1.127750
Zn16  Zn    Zn3+2 0.065500 0.500000 0.789930 1.127745
O1    O     O_3   0.000000 0.500000 0.750000 -0.560832
O2    O     O_3   0.000000 0.500000 0.250000 -0.560831
O3    O     O_3   0.500000 0.000000 0.750000 -0.560584
O4    O     O_3   0.500000 0.000000 0.250000 -0.560593
O5    O     O_R   0.954240 0.500000 0.856130 -0.615516
O6    O     O_R   0.045760 0.500000 0.143870 -0.615501
O7    O     O_R   0.500000 0.045760 0.856130 -0.615590
O8    O     O_R   0.500000 0.954240 0.143870 -0.615578
O9    O     O_R   0.045760 0.500000 0.856130 -0.615506
O10   O     O_R   0.954240 0.500000 0.143870 -0.615496
O11   O     O_R   0.500000 0.954240 0.856130 -0.615600
O12   O     O_R   0.500000 0.045760 0.143870 -0.615581
O13   O     O_R   0.454240 0.000000 0.356130 -0.615581
O14   O     O_R   0.545760 1.000000 0.643870 -0.615601
O15   O     O_R   0.000000 0.545760 0.356130 -0.615496
O16   O     O_R   1.000000 0.454240 0.643870 -0.615506
O17   O     O_R   0.545760 0.000000 0.356130 -0.615578
O18   O     O_R   0.454240 1.000000 0.643870 -0.615591
O19   O     O_R   0.000000 0.454240 0.356130 -0.615501
O20   O     O_R   0.000000 0.545760 0.643870 -0.615516
O21   O     O_R   0.110440 0.564520 0.777740 -0.606801
O22   O     O_R   0.889560 0.435480 0.222260 -0.607870
O23   O     O_R   0.564520 0.889560 0.777740 -0.607203
O24   O     O_R   0.435480 0.110440 0.222260 -0.607719
O25   O     O_R   0.889560 0.435480 0.777740 -0.606801
O26   O     O_R   0.110440 0.564520 0.222260 -0.607869
O27   O     O_R   0.435480 0.110440 0.777740 -0.607201
O28   O     O_R   0.564520 0.889560 0.222260 -0.607718
O29   O     O_R   0.110440 0.435480 0.222260 -0.606815
O30   O     O_R   0.889560 0.564520 0.777740 -0.607867
O31   O     O_R   0.564520 0.110440 0.222260 -0.607196
O32   O     O_R   0.435480 0.889560 0.777740 -0.607703
O33   O     O_R   0.889560 0.564520 0.222260 -0.606813
O34   O     O_R   0.110440 0.435480 0.777740 -0.607864
O35   O     O_R   0.435480 0.889560 0.222260 -0.607199
O36   O     O_R   0.564520 0.110440 0.777740 -0.607707
O37   O     O_R   0.610440 0.064520 0.277740 -0.607199
O38   O     O_R   0.389560 0.935480 0.722260 -0.607707
O39   O     O_R   0.064520 0.389560 0.277740 -0.606815
O40   O     O_R   0.935480 0.610440 0.722260 -0.607867
O41   O     O_R   0.389560 0.935480 0.277740 -0.607196
O42   O     O_R   0.610440 0.064520 0.722260 -0.607703
O43   O     O_R   0.935480 0.610440 0.277740 -0.606814
O44   O     O_R   0.064520 0.389560 0.722260 -0.607864
O45   O     O_R   0.610440 0.935480 0.722260 -0.607202
O46   O     O_R   0.389560 0.064520 0.277740 -0.607719
O47   O     O_R   0.064520 0.610440 0.722260 -0.606801
O48   O     O_R   0.935480 0.389560 0.277740 -0.607869
O49   O     O_R   0.389560 0.064520 0.722260 -0.607200
O50   O     O_R   0.610440 0.935480 0.277740 -0.607718
O51   O     O_R   0.935480 0.389560 0.722260 -0.606801
O52   O     O_R   0.064520 0.610440 0.277740 -0.607870
C1    C     C_1   0.000000 0.500000 0.569087 -0.045028
C2    C     C_1   0.000000 0.500000 0.430913 -0.045009
C3    C     C_1   0.500000 1.000000 0.569087 -0.045197
C4    C     C_1   0.500000 1.000000 0.430913 -0.045173
C5    C     C_1   0.500000 0.000000 0.069087 -0.045173
C6    C     C_1   0.500000 1.000000 0.930913 -0.045197
C7    C     C_1   0.000000 0.500000 0.069087 -0.045009
C8    C     C_1   1.000000 0.500000 0.930913 -0.045028
C9    C     C_1   1.000000 0.500000 0.525520 0.086977
C10   C     C_1   1.000000 0.500000 0.474480 0.086984
C11   C     C_1   0.500000 1.000000 0.525520 0.086924
C12   C     C_1   0.500000 1.000000 0.474480 0.086933
C13   C     C_1   0.500000 0.000000 0.025520 0.086933
C14   C     C_1   0.500000 1.000000 0.974480 0.086924
C15   C     C_1   0.000000 0.500000 0.025520 0.086984
C16   C     C_1   1.000000 0.500000 0.974480 0.086977
C17   C     C_R   1.000000 0.500000 0.879038 0.868887
C18   C     C_R   1.000000 0.500000 0.120962 0.868921
C19   C     C_R   0.500000 1.000000 0.879038 0.869106
C20   C     C_R   0.500000 0.000000 0.120962 0.869133
C21   C     C_R   0.500000 1.000000 0.379038 0.869133
C22   C     C_R   0.500000 0.000000 0.620962 0.869105
C23   C     C_R   0.000000 0.500000 0.379038 0.868922
C24   C     C_R   0.000000 0.500000 0.620962 0.868886
C25   C     C_R   0.105764 0.605764 0.750000 0.960376
C26   C     C_R   0.894235 0.394235 0.250000 0.956675
C27   C     C_R   0.605763 0.894237 0.750000 0.960051
C28   C     C_R   0.394236 0.105764 0.250000 0.957480
C29   C     C_R   0.894235 0.394236 0.750000 0.960377
C30   C     C_R   0.105765 0.605765 0.250000 0.956675
C31   C     C_R   0.394237 0.105763 0.750000 0.960065
C32   C     C_R   0.605764 0.894236 0.250000 0.957484
C33   C     C_R   0.105764 0.394236 0.250000 0.960338
C34   C     C_R   0.894235 0.605765 0.750000 0.956625
C35   C     C_R   0.605763 0.105763 0.250000 0.960046
C36   C     C_R   0.394236 0.894236 0.750000 0.957471
C37   C     C_R   0.894236 0.605764 0.250000 0.960342
C38   C     C_R   0.105765 0.394235 0.750000 0.956619
C39   C     C_R   0.394237 0.894237 0.250000 0.960047
C40   C     C_R   0.605764 0.105764 0.750000 0.957471
C41   C     C_R   0.688491 0.852606 0.785823 0.245591
C42   C     C_R   0.304299 0.140056 0.222799 0.233882
C43   C     C_R   0.851971 0.312142 0.786376 0.246230
C44   C     C_R   0.139635 0.696120 0.223474 0.234148
C45   C     C_R   0.311521 0.147406 0.785834 0.245604
C46   C     C_R   0.695698 0.859940 0.222792 0.233883
C47   C     C_R   0.148030 0.687859 0.786375 0.246240
C48   C     C_R   0.860365 0.303880 0.223474 0.234144
C49   C     C_R   0.688454 0.147431 0.214143 0.245608
C50   C     C_R   0.304299 0.859944 0.777202 0.233866
C51   C     C_R   0.851967 0.687854 0.213621 0.246222
C52   C     C_R   0.139617 0.303863 0.776498 0.234138
C53   C     C_R   0.311547 0.852569 0.214143 0.245611
C54   C     C_R   0.695700 0.140058 0.777204 0.233856
C55   C     C_R   0.148027 0.312140 0.213626 0.246217
C56   C     C_R   0.860391 0.696146 0.776483 0.234141
C57   C     C_R   0.187859 0.351973 0.286374 0.246216
C58   C     C_R   0.803854 0.639609 0.723517 0.234141
C59   C     C_R   0.352569 0.811546 0.285857 0.245608
C60   C     C_R   0.640056 0.195701 0.722798 0.233865
C61   C     C_R   0.812146 0.648033 0.286379 0.246222
C62   C     C_R   0.196137 0.360383 0.723502 0.234138
C63   C     C_R   0.647431 0.188453 0.285857 0.245611
C64   C     C_R   0.359942 0.804300 0.722796 0.233856
C65   C     C_R   0.187858 0.648029 0.713624 0.246230
C66   C     C_R   0.803879 0.360365 0.276526 0.234148
C67   C     C_R   0.352594 0.188479 0.714165 0.245604
C68   C     C_R   0.640060 0.804302 0.277207 0.233883
C69   C     C_R   0.812141 0.351970 0.713625 0.246240
C70   C     C_R   0.196120 0.639635 0.276525 0.234144
C71   C     C_R   0.647394 0.811509 0.714177 0.245591
C72   C     C_R   0.359944 0.195701 0.277201 0.233882
C73   C     C_R   0.647996 0.852004 0.750000 -0.252311
C74   C     C_R   0.351981 0.148019 0.250000 -0.248023
C75   C     C_R   0.851999 0.351998 0.750000 -0.251916
C76   C     C_R   0.148024 0.648024 0.250000 -0.247755
C77   C     C_R   0.352004 0.147996 0.750000 -0.252318
C78   C     C_R   0.648019 0.851981 0.250000 -0.248026
C79   C     C_R   0.148001 0.648001 0.750000 -0.251917
C80   C     C_R   0.851976 0.351976 0.250000 -0.247755
C81   C     C_R   0.647996 0.147997 0.250000 -0.252284
C82   C     C_R   0.351980 0.851980 0.750000 -0.247996
C83   C     C_R   0.851999 0.648001 0.250000 -0.251898
C84   C     C_R   0.148024 0.351976 0.750000 -0.247712
C85   C     C_R   0.352003 0.852004 0.250000 -0.252284
C86   C     C_R   0.648020 0.148020 0.750000 -0.247995
C87   C     C_R   0.148001 0.351999 0.250000 -0.251897
C88   C     C_R   0.851975 0.648025 0.750000 -0.247725
C89   C     C_R   0.684804 0.767170 0.716998 -0.099614
C90   C     C_R   0.317231 0.234941 0.280650 -0.101838
C91   C     C_R   0.767776 0.314575 0.716313 -0.099849
C92   C     C_R   0.235474 0.682247 0.279955 -0.102127
C93   C     C_R   0.315185 0.232820 0.716986 -0.099615
C94   C     C_R   0.682774 0.765064 0.280656 -0.101835
C95   C     C_R   0.232222 0.685427 0.716309 -0.099853
C96   C     C_R   0.764525 0.317752 0.279955 -0.102127
C97   C     C_R   0.684843 0.232793 0.283046 -0.099634
C98   C     C_R   0.317232 0.765057 0.719350 -0.101842
C99   C     C_R   0.767784 0.685433 0.283697 -0.099867
C100  C     C_R   0.235501 0.317778 0.720079 -0.102151
C101  C     C_R   0.315157 0.767207 0.283046 -0.099635
C102  C     C_R   0.682765 0.234946 0.719354 -0.101845
C103  C     C_R   0.232221 0.314572 0.283691 -0.099866
C104  C     C_R   0.764490 0.682213 0.720092 -0.102149
C105  C     C_R   0.185428 0.267779 0.216308 -0.099866
C106  C     C_R   0.817787 0.735510 0.779908 -0.102149
C107  C     C_R   0.267207 0.815157 0.216954 -0.099634
C108  C     C_R   0.734943 0.182768 0.780650 -0.101842
C109  C     C_R   0.814566 0.732216 0.216302 -0.099867
C110  C     C_R   0.182222 0.264499 0.779921 -0.102151
C111  C     C_R   0.732793 0.184843 0.216954 -0.099635
C112  C     C_R   0.265054 0.817235 0.780645 -0.101845
C113  C     C_R   0.185424 0.732224 0.783686 -0.099849
C114  C     C_R   0.817752 0.264526 0.220045 -0.102127
C115  C     C_R   0.267180 0.184815 0.783014 -0.099615
C116  C     C_R   0.734936 0.817226 0.219344 -0.101835
C117  C     C_R   0.814573 0.267778 0.783691 -0.099853
C118  C     C_R   0.182247 0.735475 0.220045 -0.102127
C119  C     C_R   0.732830 0.815196 0.783002 -0.099614
C120  C     C_R   0.265059 0.182769 0.219350 -0.101838
C121  C     C_R   0.729432 0.770568 0.750000 -0.015867
C122  C     C_R   0.270575 0.229425 0.250000 -0.009733
C123  C     C_R   0.770562 0.270565 0.750002 -0.015668
C124  C     C_R   0.229428 0.729429 0.250000 -0.009594
C125  C     C_R   0.270568 0.229432 0.750000 -0.015868
C126  C     C_R   0.729425 0.770575 0.250000 -0.009736
C127  C     C_R   0.229435 0.729437 0.749997 -0.015668
C128  C     C_R   0.770571 0.270572 0.250000 -0.009594
C129  C     C_R   0.729432 0.229433 0.250000 -0.015845
C130  C     C_R   0.270573 0.770576 0.749997 -0.009706
C131  C     C_R   0.770564 0.729436 0.250000 -0.015657
C132  C     C_R   0.229429 0.270571 0.750000 -0.009565
C133  C     C_R   0.270567 0.770568 0.250000 -0.015845
C134  C     C_R   0.729424 0.229427 0.750002 -0.009706
C135  C     C_R   0.229436 0.270564 0.250000 -0.015657
C136  C     C_R   0.770571 0.729429 0.750000 -0.009570
C137  C     C_R   0.679059 0.720015 0.687541 0.209422
C138  C     C_R   0.320141 0.279758 0.313242 0.204892
C139  C     C_R   0.721196 0.319712 0.686060 0.209227
C140  C     C_R   0.280916 0.678747 0.311836 0.204306
C141  C     C_R   0.320923 0.279967 0.687518 0.209428
C142  C     C_R   0.679869 0.720252 0.313255 0.204897
C143  C     C_R   0.278801 0.680293 0.686053 0.209220
C144  C     C_R   0.719083 0.321252 0.311836 0.204306
C145  C     C_R   0.679138 0.279911 0.312556 0.209394
C146  C     C_R   0.320147 0.720233 0.686764 0.204866
C147  C     C_R   0.721215 0.680311 0.313966 0.209200
C148  C     C_R   0.280978 0.321309 0.688238 0.204253
C149  C     C_R   0.320862 0.720089 0.312557 0.209394
C150  C     C_R   0.679849 0.279772 0.686770 0.204860
C151  C     C_R   0.278795 0.319699 0.313953 0.209200
C152  C     C_R   0.719004 0.678673 0.688262 0.204254
C153  C     C_R   0.180301 0.221205 0.186047 0.209200
C154  C     C_R   0.821327 0.780996 0.811738 0.204254
C155  C     C_R   0.220089 0.820862 0.187444 0.209394
C156  C     C_R   0.779767 0.179853 0.813236 0.204866
C157  C     C_R   0.819689 0.778785 0.186034 0.209200
C158  C     C_R   0.178691 0.219022 0.811762 0.204253
C159  C     C_R   0.779911 0.179138 0.187443 0.209394
C160  C     C_R   0.220228 0.820151 0.813230 0.204861
C161  C     C_R   0.180288 0.778804 0.813940 0.209226
C162  C     C_R   0.821252 0.219084 0.188164 0.204306
C163  C     C_R   0.220033 0.179077 0.812482 0.209428
C164  C     C_R   0.779748 0.820131 0.186745 0.204897
C165  C     C_R   0.819707 0.221199 0.813947 0.209220
C166  C     C_R   0.178748 0.780917 0.188164 0.204306
C167  C     C_R   0.779985 0.820941 0.812459 0.209422
C168  C     C_R   0.220242 0.179859 0.186758 0.204892
N1    N     N_R   0.630581 0.711271 0.659092 0.261490
O53   O     O_R   0.583968 0.701753 0.680433 -0.222407
O54   O     O_R   0.634169 0.705848 0.612449 -0.193942
N2    N     N_R   0.363609 0.284179 0.347954 0.261434
O55   O     O_R   0.363645 0.252324 0.385657 -0.237279
O56   O     O_R   0.397749 0.325193 0.345982 -0.191135
N3    N     N_R   0.713031 0.367566 0.656681 0.261342
O57   O     O_R   0.702803 0.414567 0.677089 -0.220574
O58   O     O_R   0.708728 0.362987 0.610015 -0.195553
N4    N     N_R   0.286085 0.634583 0.345775 0.261503
O59   O     O_R   0.255287 0.633955 0.384147 -0.235099
O60   O     O_R   0.326947 0.600394 0.342463 -0.192470
N5    N     N_R   0.369394 0.288703 0.659057 0.261489
O61   O     O_R   0.416015 0.298219 0.680386 -0.222401
O62   O     O_R   0.365795 0.294117 0.612414 -0.193949
N6    N     N_R   0.636407 0.715838 0.347974 0.261434
O63   O     O_R   0.636375 0.747702 0.385670 -0.237302
O64   O     O_R   0.602267 0.674822 0.346015 -0.191127
N7    N     N_R   0.286965 0.632442 0.656670 0.261343
O65   O     O_R   0.297206 0.585442 0.677073 -0.220565
O66   O     O_R   0.291259 0.637027 0.610004 -0.195565
N8    N     N_R   0.713914 0.365416 0.345774 0.261504
O67   O     O_R   0.744712 0.366045 0.384147 -0.235100
O68   O     O_R   0.673052 0.399605 0.342463 -0.192473
N9    N     N_R   0.630703 0.288616 0.341071 0.261481
O69   O     O_R   0.584064 0.298195 0.319795 -0.222321
O70   O     O_R   0.634360 0.293955 0.387718 -0.194040
N10   N     N_R   0.363625 0.715800 0.652062 0.261429
O71   O     O_R   0.363659 0.747626 0.614340 -0.237206
O72   O     O_R   0.397772 0.674793 0.654059 -0.191129
N11   N     N_R   0.713062 0.632474 0.343368 0.261340
O73   O     O_R   0.702794 0.585469 0.322984 -0.220569
O74   O     O_R   0.708798 0.637080 0.390035 -0.195632
N12   N     N_R   0.286195 0.365515 0.654348 0.261500
O75   O     O_R   0.255480 0.366170 0.615925 -0.234946
O76   O     O_R   0.327041 0.399712 0.657751 -0.192546
N13   N     N_R   0.369296 0.711383 0.341072 0.261481
O77   O     O_R   0.415935 0.701805 0.319796 -0.222326
O78   O     O_R   0.365639 0.706044 0.387718 -0.194039
N14   N     N_R   0.636370 0.284209 0.652071 0.261429
O79   O     O_R   0.636335 0.252389 0.614345 -0.237191
O80   O     O_R   0.602221 0.325215 0.654073 -0.191143
N15   N     N_R   0.286953 0.367541 0.343347 0.261341
O81   O     O_R   0.297218 0.414543 0.322955 -0.220575
O82   O     O_R   0.291225 0.362944 0.390014 -0.195616
N16   N     N_R   0.713780 0.634459 0.654382 0.261502
O83   O     O_R   0.744489 0.633791 0.615956 -0.234942
O84   O     O_R   0.672934 0.600264 0.657798 -0.192546
N17   N     N_R   0.132459 0.213047 0.156653 0.261341
O85   O     O_R   0.085457 0.202782 0.177044 -0.220575
O86   O     O_R   0.137056 0.208775 0.109986 -0.195616
N18   N     N_R   0.865541 0.786220 0.845618 0.261502
O87   O     O_R   0.866209 0.755510 0.884044 -0.234942
O88   O     O_R   0.899736 0.827066 0.842202 -0.192546
N19   N     N_R   0.211384 0.869297 0.158929 0.261481
O89   O     O_R   0.201805 0.915936 0.180205 -0.222321
O90   O     O_R   0.206044 0.865640 0.112282 -0.194040
N20   N     N_R   0.784199 0.136375 0.847938 0.261429
O91   O     O_R   0.752374 0.136341 0.885659 -0.237206
O92   O     O_R   0.825207 0.102228 0.845941 -0.191129
N21   N     N_R   0.867526 0.786938 0.156632 0.261340
O93   O     O_R   0.914531 0.797206 0.177016 -0.220569
O94   O     O_R   0.862920 0.791202 0.109965 -0.195632
N22   N     N_R   0.134485 0.213805 0.845652 0.261500
O95   O     O_R   0.133830 0.244520 0.884075 -0.234946
O96   O     O_R   0.100288 0.172959 0.842249 -0.192546
N23   N     N_R   0.788617 0.130704 0.158928 0.261481
O97   O     O_R   0.798195 0.084065 0.180204 -0.222326
O98   O     O_R   0.793956 0.134361 0.112282 -0.194039
N24   N     N_R   0.215791 0.863630 0.847929 0.261429
O99   O     O_R   0.247611 0.863664 0.885655 -0.237191
O100  O     O_R   0.174785 0.897779 0.845926 -0.191143
N25   N     N_R   0.132434 0.786969 0.843319 0.261342
O101  O     O_R   0.085432 0.797197 0.822911 -0.220574
O102  O     O_R   0.137013 0.791272 0.889985 -0.195553
N26   N     N_R   0.865416 0.213915 0.154225 0.261503
O103  O     O_R   0.866045 0.244713 0.115853 -0.235099
O104  O     O_R   0.899606 0.173053 0.157537 -0.192470
N27   N     N_R   0.211297 0.130606 0.840943 0.261489
O105  O     O_R   0.201781 0.083985 0.819614 -0.222401
O106  O     O_R   0.205883 0.134205 0.887586 -0.193949
N28   N     N_R   0.784162 0.863593 0.152026 0.261434
O107  O     O_R   0.752297 0.863624 0.114330 -0.237302
O108  O     O_R   0.825178 0.897733 0.153985 -0.191127
N29   N     N_R   0.867558 0.213035 0.843330 0.261343
O109  O     O_R   0.914558 0.202793 0.822926 -0.220565
O110  O     O_R   0.862973 0.208741 0.889996 -0.195566
N30   N     N_R   0.134584 0.786086 0.154225 0.261504
O111  O     O_R   0.133955 0.755288 0.115853 -0.235100
O112  O     O_R   0.100394 0.826948 0.157537 -0.192473
N31   N     N_R   0.788729 0.869419 0.840908 0.261490
O113  O     O_R   0.798247 0.916032 0.819567 -0.222406
O114  O     O_R   0.794152 0.865831 0.887551 -0.193942
N32   N     N_R   0.215821 0.136391 0.152046 0.261434
O115  O     O_R   0.247676 0.136355 0.114343 -0.237279
O116  O     O_R   0.174807 0.102250 0.154017 -0.191135
N33   N     N_R   0.682310 0.889153 0.826205 0.224946
O117  O     O_R   0.674014 0.869123 0.869137 -0.284314
O118  O     O_R   0.679046 0.941924 0.819547 -0.291002
N34   N     N_R   0.295386 0.087425 0.200809 0.230715
O119  O     O_R   0.258815 0.054365 0.218852 -0.252019
O120  O     O_R   0.328808 0.069489 0.167720 -0.306157
N35   N     N_R   0.887946 0.318967 0.827070 0.224975
O121  O     O_R   0.867326 0.328383 0.869605 -0.285096
O122  O     O_R   0.940826 0.321824 0.820958 -0.291112
N36   N     N_R   0.086737 0.705210 0.202049 0.230656
O123  O     O_R   0.053584 0.741048 0.221072 -0.254574
O124  O     O_R   0.068662 0.672373 0.168569 -0.305499
N37   N     N_R   0.317716 0.110875 0.826226 0.224956
O125  O     O_R   0.326018 0.130922 0.869151 -0.284320
O126  O     O_R   0.320983 0.058102 0.819584 -0.291032
N38   N     N_R   0.704609 0.912569 0.200798 0.230714
O127  O     O_R   0.741187 0.945627 0.218833 -0.252010
O128  O     O_R   0.671182 0.930505 0.167713 -0.306166
N39   N     N_R   0.112064 0.681029 0.827074 0.224983
O129  O     O_R   0.132694 0.671624 0.869607 -0.285097
O130  O     O_R   0.059183 0.678160 0.820970 -0.291120
N40   N     N_R   0.913263 0.294790 0.202048 0.230658
O131  O     O_R   0.946416 0.258952 0.221072 -0.254559
O132  O     O_R   0.931338 0.327628 0.168569 -0.305496
N41   N     N_R   0.682236 0.110914 0.173745 0.224944
O133  O     O_R   0.673855 0.130974 0.130837 -0.284351
O134  O     O_R   0.679008 0.058136 0.180375 -0.291022
N42   N     N_R   0.295394 0.912571 0.799201 0.230703
O135  O     O_R   0.258852 0.945654 0.781145 -0.251949
O136  O     O_R   0.328809 0.930484 0.832306 -0.306141
N43   N     N_R   0.887940 0.681024 0.172927 0.224971
O137  O     O_R   0.867320 0.671571 0.130399 -0.285126
O138  O     O_R   0.940821 0.678185 0.179039 -0.291110
N44   N     N_R   0.086713 0.294775 0.797909 0.230646
O139  O     O_R   0.053531 0.259003 0.778830 -0.254605
O140  O     O_R   0.068657 0.327578 0.831423 -0.305449
N45   N     N_R   0.317765 0.889086 0.173745 0.224944
O141  O     O_R   0.326145 0.869025 0.130837 -0.284354
O142  O     O_R   0.320992 0.941864 0.180374 -0.291017
N46   N     N_R   0.704606 0.087429 0.799202 0.230709
O143  O     O_R   0.741156 0.054352 0.781150 -0.251916
O144  O     O_R   0.671190 0.069512 0.832303 -0.306140
N47   N     N_R   0.112047 0.318964 0.172936 0.224968
O145  O     O_R   0.132660 0.328410 0.130404 -0.285120
O146  O     O_R   0.059167 0.321803 0.179054 -0.291098
N48   N     N_R   0.913302 0.705241 0.797879 0.230655
O147  O     O_R   0.946474 0.741014 0.778787 -0.254628
O148  O     O_R   0.931372 0.672446 0.831393 -0.305436
N49   N     N_R   0.181036 0.387953 0.327064 0.224968
O149  O     O_R   0.171590 0.367340 0.369596 -0.285120
O150  O     O_R   0.178197 0.440833 0.320946 -0.291098
N50   N     N_R   0.794759 0.586697 0.702121 0.230655
O151  O     O_R   0.758986 0.553526 0.721213 -0.254628
O152  O     O_R   0.827554 0.568628 0.668607 -0.305436
N51   N     N_R   0.389086 0.817764 0.326255 0.224944
O153  O     O_R   0.369025 0.826145 0.369163 -0.284351
O154  O     O_R   0.441864 0.820991 0.319625 -0.291022
N52   N     N_R   0.587429 0.204605 0.700798 0.230703
O155  O     O_R   0.554346 0.241148 0.718854 -0.251949
O156  O     O_R   0.569516 0.171191 0.667694 -0.306141
N53   N     N_R   0.818976 0.612060 0.327073 0.224971
O157  O     O_R   0.828429 0.632680 0.369601 -0.285126
O158  O     O_R   0.821815 0.559178 0.320961 -0.291110
N54   N     N_R   0.205225 0.413287 0.702091 0.230646
O159  O     O_R   0.240997 0.446469 0.721170 -0.254605
O160  O     O_R   0.172422 0.431343 0.668577 -0.305449
N55   N     N_R   0.610914 0.182235 0.326255 0.224944
O161  O     O_R   0.630975 0.173854 0.369163 -0.284354
O162  O     O_R   0.558136 0.179008 0.319626 -0.291017
N56   N     N_R   0.412570 0.795394 0.700798 0.230710
O163  O     O_R   0.445648 0.758844 0.718850 -0.251916
O164  O     O_R   0.430488 0.828810 0.667697 -0.306140
N57   N     N_R   0.181033 0.612054 0.672930 0.224975
O165  O     O_R   0.171617 0.632674 0.630395 -0.285096
O166  O     O_R   0.178176 0.559174 0.679042 -0.291113
N58   N     N_R   0.794790 0.413263 0.297951 0.230656
O167  O     O_R   0.758952 0.446416 0.278928 -0.254574
O168  O     O_R   0.827627 0.431338 0.331430 -0.305499
N59   N     N_R   0.389125 0.182284 0.673774 0.224956
O169  O     O_R   0.369078 0.173982 0.630849 -0.284320
O170  O     O_R   0.441898 0.179016 0.680416 -0.291032
N60   N     N_R   0.587431 0.795391 0.299202 0.230714
O171  O     O_R   0.554373 0.758813 0.281167 -0.252010
O172  O     O_R   0.569495 0.828818 0.332287 -0.306166
N61   N     N_R   0.818971 0.387936 0.672925 0.224983
O173  O     O_R   0.828376 0.367306 0.630393 -0.285097
O174  O     O_R   0.821840 0.440817 0.679030 -0.291120
N62   N     N_R   0.205210 0.586737 0.297951 0.230658
O175  O     O_R   0.241048 0.553584 0.278928 -0.254559
O176  O     O_R   0.172372 0.568662 0.331431 -0.305496
N63   N     N_R   0.610847 0.817690 0.673795 0.224946
O177  O     O_R   0.630877 0.825986 0.630863 -0.284314
O178  O     O_R   0.558076 0.820954 0.680452 -0.291002
N64   N     N_R   0.412575 0.204614 0.299191 0.230715
O179  O     O_R   0.445634 0.241185 0.281147 -0.252019
O180  O     O_R   0.430511 0.171192 0.332280 -0.306157

loop_
_geom_bond_atom_site_label_1
_geom_bond_atom_site_label_2
_geom_bond_distance
_ccdc_geom_bond_type
C117  C165  1.416200 A    
N7    O66   1.301393 A    
C137  C152  1.400802 A    
N41   O133  1.300996 A    
N59   O170  1.301332 A    
C64   C82   1.398141 A    
N19   O89   1.301127 A    
C106  C154  1.418692 A    
Zn5   O51   1.945284 S    
O13   C21   1.282793 A    
N23   O98   1.301393 A    
C68   C94   1.416406 A    
N33   O117  1.300995 A    
N16   O83   1.300985 A    
C49   N41   1.437433 S    
N62   O175  1.300950 A    
Zn1   O40   1.945279 S    
N54   O160  1.301428 A    
Zn2   O39   1.945277 S    
C33   C87   1.455358 S    
Zn16  O9    1.895356 S    
N46   O143  1.300956 A    
C36   C82   1.456022 S    
C154  N18   1.434250 S    
Zn13  O35   1.945282 S    
Zn14  O36   1.945280 S    
N30   O111  1.300985 A    
C150  N14   1.434350 S    
Zn3   O3    1.941564 S    
C1    C24   1.436594 S    
C60   C86   1.398142 A    
C127  C130  1.417506 A    
C64   N56   1.436117 S    
Zn3   O45   1.945279 S    
C160  N24   1.434350 S    
C53   N45   1.437434 S    
C65   C95   1.415691 A    
C5    C13   1.206535 T    
C160  C161  1.400810 A    
C37   C83   1.455358 S    
C38   C84   1.456144 S    
N32   O115  1.300988 A    
C58   C104  1.416478 A    
C89   C137  1.416011 A    
O49   C31   1.270013 A    
C52   N44   1.436025 S    
N36   O123  1.300951 A    
N34   O119  1.300947 A    
C166  N30   1.434264 S    
C94   C142  1.418482 A    
C156  C165  1.400810 A    
C98   C130  1.425077 A    
C5    C20   1.436594 S    
C44   N36   1.436038 S    
C7    C18   1.436594 S    
N23   O97   1.301126 A    
O45   C27   1.270010 A    
N24   O99   1.300988 A    
C153  N17   1.435588 S    
C107  C133  1.422858 A    
C53   C85   1.399251 A    
N58   O168  1.301432 A    
N5    O62   1.301395 A    
Zn7   O3    1.941569 S    
C153  C168  1.400804 A    
C62   C84   1.398077 A    
N49   O149  1.300989 A    
N12   O76   1.301357 A    
C63   C81   1.399251 A    
N51   O153  1.300996 A    
N22   O95   1.300986 A    
C146  N10   1.434351 S    
C140  C149  1.400805 A    
N55   O162  1.301336 A    
Zn13  O4    1.941571 S    
C30   C76   1.456138 S    
Zn14  O3    1.941567 S    
N61   O173  1.300989 A    
C72   C74   1.398140 A    
C128  C129  1.417527 A    
N50   O152  1.301436 A    
N47   O145  1.300989 A    
C91   C139  1.416199 A    
C138  C151  1.400804 A    
N53   O157  1.300991 A    
C105  C135  1.422985 A    
C158  N22   1.434254 S    
O48   C26   1.270036 A    
N17   O86   1.301391 A    
N57   O165  1.300991 A    
O16   C24   1.282792 A    
C96   C144  1.418678 A    
C54   C108  1.416411 A    
N38   O127  1.300946 A    
Zn15  O33   1.945277 S    
C57   C103  1.415690 A    
C140  N4    1.434262 S    
C102  C134  1.425082 A    
C112  C130  1.425082 A    
Zn4   O4    1.941564 S    
C70   C92   1.416473 A    
C65   N57   1.437353 S    
C144  C145  1.400804 A    
C71   C89   1.415629 A    
O35   C39   1.270011 A    
N29   O109  1.301123 A    
C145  N9    1.435692 S    
C107  C155  1.416037 A    
C143  N7    1.435605 S    
C49   C81   1.399252 A    
C51   C109  1.415690 A    
N48   O147  1.300942 A    
C8    C17   1.436594 S    
Zn13  O28   1.945277 S    
C68   C78   1.398141 A    
C49   C111  1.415639 A    
Zn9   O12   1.895359 S    
Zn14  O27   1.945279 S    
C50   C112  1.416414 A    
Zn10  O11   1.895359 S    
Zn15  O2    1.941571 S    
C69   N61   1.437353 S    
Zn11  O2    1.941564 S    
Zn4   O46   1.945277 S    
C1    C9    1.206535 T    
C2    C23   1.436594 S    
C99   C147  1.416201 A    
C66   N58   1.436038 S    
C3    C11   1.206538 T    
C53   C107  1.415639 A    
C41   C119  1.415629 A    
C149  N13   1.435691 S    
C42   C120  1.416409 A    
N5    O61   1.301128 A    
N19   O90   1.301394 A    
C90   C122  1.425057 A    
N9    O69   1.301127 A    
C56   C106  1.416478 A    
C142  C147  1.400804 A    
N26   O103  1.300984 A    
C120  C122  1.425058 A    
O50   C32   1.270022 A    
C42   N34   1.436123 S    
C72   C90   1.416409 A    
C114  C162  1.418680 A    
C48   N40   1.436038 S    
N10   O71   1.300988 A    
C48   C114  1.416473 A    
C72   N64   1.436123 S    
C65   C79   1.399231 A    
C6    C19   1.436594 S    
C104  C152  1.418692 A    
C43   C75   1.399231 A    
N15   O82   1.301391 A    
C31   C77   1.455224 S    
N1    O53   1.301126 A    
C167  N31   1.435701 S    
N21   O94   1.301390 A    
O22   C26   1.270037 A    
C106  C136  1.425264 A    
N42   O135  1.300955 A    
N61   O174  1.301351 A    
C104  C136  1.425266 A    
O52   C30   1.270037 A    
N25   O102  1.301390 A    
C26   C80   1.456138 S    
C157  C164  1.400804 A    
C93   C125  1.422844 A    
C108  C134  1.425077 A    
C159  N23   1.435691 S    
Zn12  O30   1.945277 S    
C115  C163  1.416015 A    
C116  C164  1.418482 A    
N31   O114  1.301391 A    
C35   C81   1.455240 S    
C70   N62   1.436038 S    
C50   N42   1.436118 S    
N18   O88   1.301358 A    
O11   C19   1.282793 A    
O17   C21   1.282792 A    
C92   C140  1.418680 A    
C15   C16   1.413467 S    
C124  C133  1.417527 A    
C62   N54   1.436025 S    
O9    C17   1.282792 A    
O21   C25   1.270034 A    
C55   N47   1.437342 S    
O23   C27   1.270008 A    
C39   C85   1.455240 S    
C97   C145  1.416037 A    
O15   C23   1.282792 A    
O25   C29   1.270033 A    
C34   C88   1.456147 S    
C67   N59   1.437447 S    
N49   O150  1.301349 A    
N56   O163  1.300956 A    
N4    O59   1.300984 A    
C54   N46   1.436117 S    
C108  C156  1.418509 A    
Zn5   O44   1.945278 S    
O41   C39   1.270010 A    
Zn6   O43   1.945279 S    
N51   O154  1.301335 A    
Zn8   O37   1.945280 S    
N11   O73   1.301119 A    
C96   C128  1.425251 A    
C59   C101  1.415639 A    
N16   O84   1.301358 A    
C100  C148  1.418702 A    
N62   O176  1.301434 A    
N8    O67   1.300985 A    
O40   C34   1.270037 A    
C4    C12   1.206535 T    
C70   C76   1.398086 A    
O27   C31   1.270012 A    
C57   N49   1.437342 S    
C71   C73   1.399252 A    
C45   C115  1.415629 A    
C3    C22   1.436594 S    
C116  C126  1.425058 A    
C144  N8    1.434264 S    
N2    O55   1.300988 A    
N13   O78   1.301393 A    
N46   O144  1.301446 A    
C156  N20   1.434351 S    
C111  C159  1.416035 A    
C109  C157  1.416201 A    
C66   C96   1.416474 A    
C62   C100  1.416479 A    
C143  C146  1.400810 A    
C40   C86   1.456022 S    
N14   O79   1.300988 A    
C63   C97   1.415639 A    
N30   O112  1.301360 A    
N40   O131  1.300950 A    
C109  C131  1.422985 A    
C99   C131  1.422983 A    
N6    O63   1.300990 A    
C41   C73   1.399250 A    
C103  C151  1.416202 A    
Zn1   O20   1.895359 S    
N45   O142  1.301336 A    
Zn2   O19   1.895359 S    
N27   O106  1.301395 A    
C101  C149  1.416035 A    
O46   C28   1.270018 A    
N44   O140  1.301428 A    
O14   C22   1.282793 A    
C105  C153  1.416202 A    
C8    C16   1.206535 T    
O44   C38   1.270041 A    
N63   O178  1.301331 A    
C55   C87   1.399215 A    
C9    C10   1.413467 S    
C71   N63   1.437442 S    
O43   C37   1.270034 A    
N32   O116  1.301363 A    
O38   C36   1.270022 A    
Zn16  O34   1.945279 S    
C61   C83   1.399215 A    
C155  N19   1.435692 S    
O26   C30   1.270036 A    
N20   O91   1.300988 A    
N36   O124  1.301432 A    
C2    C10   1.206535 T    
N64   O179  1.300947 A    
N3    O57   1.301124 A    
C47   C79   1.399227 A    
C63   N55   1.437434 S    
Zn11  O26   1.945283 S    
C45   C77   1.399259 A    
C50   C82   1.398142 A    
C52   C110  1.416479 A    
N44   O139  1.300952 A    
N39   O129  1.300989 A    
Zn16  O1    1.941567 S    
C67   C77   1.399261 A    
Zn12  O1    1.941564 S    
N24   O100  1.301367 A    
N43   O137  1.300991 A    
N37   O126  1.301332 A    
Zn4   O13   1.895359 S    
Zn16  O21   1.945280 S    
Zn5   O16   1.895356 S    
C162  N26   1.434262 S    
O20   C24   1.282793 A    
Zn6   O15   1.895356 S    
N27   O105  1.301128 A    
N41   O134  1.301335 A    
O24   C28   1.270020 A    
C55   C105  1.415690 A    
N22   O96   1.301357 A    
C117  C123  1.422986 A    
O5    C17   1.282793 A    
N33   O118  1.301331 A    
C121  C136  1.417525 A    
C59   N51   1.437433 S    
C154  C167  1.400802 A    
O31   C35   1.270010 A    
C69   C91   1.415684 A    
C90   C138  1.418481 A    
C91   C123  1.422980 A    
N54   O159  1.300952 A    
C92   C124  1.425249 A    
N34   O120  1.301454 A    
C48   C80   1.398086 A    
O33   C37   1.270035 A    
C93   C141  1.416015 A    
C112  C160  1.418509 A    
Zn9   O24   1.945279 S    
Zn10  O23   1.945277 S    
Zn12  O25   1.945285 S    
C155  C166  1.400804 A    
C97   C129  1.422858 A    
Zn7   O49   1.945278 S    
O30   C34   1.270035 A    
Zn9   O4    1.941564 S    
N35   O121  1.300990 A    
C95   C127  1.422986 A    
Zn10  O3    1.941564 S    
N38   O128  1.301454 A    
C137  N1    1.435701 S    
O8    C20   1.282792 A    
O29   C33   1.270032 A    
C45   N37   1.437447 S    
C27   C73   1.455224 S    
Zn10  O32   1.945285 S    
N60   O171  1.300946 A    
Zn7   O18   1.895356 S    
Zn11  O29   1.945279 S    
N48   O148  1.301436 A    
C161  N25   1.435610 S    
N6    O64   1.301363 A    
C110  C132  1.425270 A    
C139  C150  1.400810 A    
C168  N32   1.434349 S    
C100  C132  1.425272 A    
Zn1   O1    1.941564 S    
C147  N11   1.435588 S    
N52   O156  1.301443 A    
N39   O130  1.301351 A    
N52   O155  1.300955 A    
C125  C132  1.417521 A    
O47   C25   1.270033 A    
C67   C93   1.415629 A    
N15   O81   1.301119 A    
N31   O113  1.301126 A    
N11   O74   1.301390 A    
C7    C15   1.206535 T    
O37   C35   1.270011 A    
C115  C125  1.422843 A    
N26   O104  1.301360 A    
O42   C40   1.270024 A    
O6    C18   1.282793 A    
C103  C135  1.422983 A    
C113  C127  1.422980 A    
O51   C29   1.270034 A    
C101  C133  1.422862 A    
Zn3   O42   1.945283 S    
C163  N27   1.435710 S    
N58   O167  1.300951 A    
N10   O72   1.301368 A    
N59   O169  1.300996 A    
O34   C38   1.270039 A    
N12   O75   1.300986 A    
C56   N48   1.436023 S    
Zn7   O38   1.945284 S    
N55   O161  1.300994 A    
O19   C23   1.282793 A    
C141  N5    1.435710 S    
C41   N33   1.437442 S    
Zn8   O50   1.945279 S    
C60   N52   1.436120 S    
Zn2   O2    1.941564 S    
O28   C32   1.270023 A    
N21   O93   1.301119 A    
N60   O172  1.301454 A    
N50   O151  1.300942 A    
C59   C85   1.399252 A    
N42   O136  1.301443 A    
C13   C14   1.413464 S    
N25   O101  1.301125 A    
C165  N29   1.435605 S    
N53   O158  1.301351 A    
Zn8   O4    1.941567 S    
C64   C98   1.416411 A    
N57   O166  1.301351 A    
C44   C118  1.416474 A    
C46   C116  1.416406 A    
C122  C135  1.417507 A    
C158  C163  1.400804 A    
O32   C36   1.270024 A    
N1    O54   1.301391 A    
C157  N21   1.435588 S    
C42   C74   1.398142 A    
C29   C75   1.455361 S    
C58   N50   1.436023 S    
C32   C78   1.456006 S    
N29   O110  1.301393 A    
Zn4   O41   1.945285 S    
O12   C20   1.282793 A    
N28   O108  1.301363 A    
C51   N43   1.437341 S    
C123  C134  1.417506 A    
C120  C168  1.418481 A    
Zn6   O52   1.945280 S    
C69   C75   1.399227 A    
O7    C19   1.282792 A    
C151  N15   1.435588 S    
N43   O138  1.301351 A    
Zn1   O47   1.945283 S    
C148  N12   1.434254 S    
C47   C113  1.415684 A    
Zn2   O48   1.945285 S    
N56   O164  1.301446 A    
N47   O146  1.301349 A    
C51   C83   1.399217 A    
Zn6   O2    1.941567 S    
N4    O60   1.301360 A    
C43   C117  1.415691 A    
C141  C148  1.400804 A    
C119  C121  1.422839 A    
C61   C99   1.415690 A    
C61   N53   1.437341 S    
C46   C78   1.398142 A    
C113  C161  1.416197 A    
N63   O177  1.300995 A    
N9    O70   1.301394 A    
C95   C143  1.416200 A    
Zn15  O10   1.895356 S    
C111  C129  1.422862 A    
N3    O58   1.301390 A    
Zn12  O5    1.895359 S    
Zn13  O8    1.895356 S    
Zn14  O7    1.895356 S    
Zn3   O14   1.895359 S    
N8    O68   1.301360 A    
O18   C22   1.282792 A    
Zn15  O22   1.945282 S    
N28   O107  1.300990 A    
C139  N3    1.435609 S    
C126  C131  1.417507 A    
O10   C18   1.282792 A    
C164  N28   1.434351 S    
C94   C126  1.425056 A    
N2    O56   1.301363 A    
N13   O77   1.301126 A    
Zn5   O1    1.941569 S    
C54   C86   1.398141 A    
C98   C146  1.418509 A    
N35   O122  1.301353 A    
N14   O80   1.301367 A    
C52   C84   1.398075 A    
N40   O132  1.301434 A    
C56   C88   1.398072 A    
C43   N35   1.437352 S    
C114  C128  1.425249 A    
N7    O65   1.301123 A    
N45   O141  1.300994 A    
C6    C14   1.206538 T    
N17   O85   1.301119 A    
C138  N2    1.434349 S    
Zn9   O31   1.945283 S    
C66   C80   1.398087 A    
O39   C33   1.270030 A    
Zn11  O6    1.895359 S    
C68   N60   1.436124 S    
N18   O87   1.300985 A    
C44   C76   1.398087 A    
N20   O92   1.301368 A    
C4    C21   1.436594 S    
N64   O180  1.301454 A    
C47   N39   1.437353 S    
C25   C79   1.455361 S    
Zn8   O17   1.895356 S    
C118  C124  1.425251 A    
C89   C121  1.422841 A    
C110  C158  1.418702 A    
C60   C102  1.416412 A    
C28   C74   1.456006 S    
C11   C12   1.413464 S    
C159  C162  1.400805 A    
O36   C40   1.270022 A    
C142  N6    1.434351 S    
C152  N16   1.434250 S    
C118  C166  1.418678 A    
N37   O125  1.300996 A    
C119  C167  1.416011 A    
C57   C87   1.399213 A    
C46   N38   1.436124 S    
C102  C150  1.418509 A    
C58   C88   1.398074 A    
