data_mof_unit_28091.cif
_audit_creation_date              2012-12-11T14:24:46-0500
_audit_creation_method            fapswitch 2.2
_symmetry_space_group_name_H-M    P1
_symmetry_Int_Tables_number       1
_space_group_crystal_system       triclinic
_cell_length_a                    19.707582
_cell_length_b                    11.141402
_cell_length_c                    18.537608
_cell_angle_alpha                 89.62975
_cell_angle_beta                  90.419548
_cell_angle_gamma                 90.008311
_cell_volume                      4070.11019808

loop_
_atom_site_label
_atom_site_type_symbol
_atom_type_description
_atom_site_fract_x
_atom_site_fract_y
_atom_site_fract_z
_atom_type_partial_charge
C1    C     C_R   0.727157 0.368043 0.143354 0.584626
C2    C     C_R   0.270339 0.373585 0.854161 0.577473
C3    C     C_R   0.227157 0.868043 0.143354 0.584626
C4    C     C_R   0.770339 0.873585 0.854161 0.577471
C5    C     C_3   0.459869 0.060604 0.041028 -0.143118
C6    C     C_3   0.505450 0.058023 0.973692 -0.128739
C7    C     C_3   0.959869 0.560604 0.041028 -0.143118
C8    C     C_3   0.005450 0.558023 0.973692 -0.128739
C9    C     C_R   0.752742 0.903813 0.928949 0.027637
C10   C     C_R   0.238772 0.885006 0.065391 0.033136
C11   C     C_R   0.252742 0.403813 0.928949 0.027637
C12   C     C_R   0.738772 0.385006 0.065391 0.033136
C13   C     C_R   0.700932 0.844226 0.969699 0.070538
C14   C     C_R   0.295885 0.838854 0.027185 0.050116
C15   C     C_R   0.200932 0.344226 0.969699 0.070538
C16   C     C_R   0.795885 0.338854 0.027185 0.050116
C17   C     C_R   0.705585 0.845098 0.045962 0.027762
C18   C     C_R   0.292657 0.836640 0.950966 -0.000956
C19   C     C_R   0.205585 0.345098 0.045962 0.027762
C20   C     C_R   0.792657 0.336640 0.950966 -0.000956
C21   C     C_R   0.805141 0.972113 0.038932 -0.121551
C22   C     C_R   0.183404 0.933485 0.951754 -0.097634
C23   C     C_R   0.305141 0.472114 0.038932 -0.121551
C24   C     C_R   0.683404 0.433486 0.951754 -0.097634
C25   C     C_R   0.802898 0.967992 0.965592 -0.155249
C26   C     C_R   0.182029 0.924272 0.025448 -0.131734
C27   C     C_R   0.302898 0.467993 0.965592 -0.155248
C28   C     C_R   0.682029 0.424272 0.025448 -0.131734
C29   C     C_R   0.646082 0.780920 0.938557 -0.090293
C30   C     C_R   0.356007 0.795522 0.060303 -0.128041
C31   C     C_R   0.146082 0.280921 0.938557 -0.090293
C32   C     C_R   0.856007 0.295522 0.060303 -0.128041
C33   C     C_R   0.103517 0.210031 0.981084 -0.157227
C34   C     C_R   0.906802 0.241526 0.019158 -0.163938
C35   C     C_R   0.603517 0.710030 0.981084 -0.157226
C36   C     C_R   0.406802 0.741526 0.019158 -0.163937
C37   C     C_R   0.611337 0.704162 0.055844 0.030118
C38   C     C_R   0.398307 0.726564 0.944878 0.055442
C39   C     C_R   0.111337 0.204162 0.055844 0.030118
C40   C     C_R   0.898307 0.226563 0.944878 0.055442
C41   C     C_R   0.662703 0.771152 0.087487 -0.099831
C42   C     C_R   0.340804 0.772248 0.911732 -0.106459
C43   C     C_R   0.162703 0.271152 0.087487 -0.099831
C44   C     C_R   0.840804 0.272248 0.911732 -0.106459
C45   C     C_R   0.531921 0.155414 0.145682 0.584896
C46   C     C_R   0.437966 0.150452 0.862728 0.603598
C47   C     C_R   0.031921 0.655414 0.145682 0.584897
C48   C     C_R   0.937966 0.650452 0.862728 0.603598
C49   C     C_R   0.754461 0.917781 0.079650 0.048354
C50   C     C_R   0.241463 0.900446 0.914759 0.040557
C51   C     C_R   0.254461 0.417781 0.079650 0.048354
C52   C     C_R   0.741463 0.400446 0.914759 0.040556
C53   C     C_R   0.499836 0.155335 0.577223 0.011607
C54   C     C_R   0.507475 0.156348 0.426589 0.006694
C55   C     C_R   0.999838 0.655331 0.577224 0.011612
C56   C     C_R   0.007477 0.656346 0.426590 0.006695
C57   C     C_R   0.504975 0.045611 0.539487 0.059948
C58   C     C_R   0.497757 0.046534 0.464314 0.044687
C59   C     C_R   0.004973 0.545607 0.539487 0.059955
C60   C     C_R   0.997757 0.546531 0.464314 0.044684
C61   C     C_R   0.513990 0.261551 0.465698 -0.146597
C62   C     C_R   0.504109 0.261619 0.539319 -0.152959
C63   C     C_R   0.013994 0.761547 0.465700 -0.146597
C64   C     C_R   0.004115 0.761615 0.539321 -0.152963
C65   C     C_R   0.512637 0.934022 0.575038 -0.006202
C66   C     C_R   0.485307 0.936041 0.429786 0.020131
C67   C     C_R   0.012632 0.434017 0.575039 -0.006210
C68   C     C_R   0.985307 0.436038 0.429786 0.020134
C69   C     C_R   0.001672 0.328165 0.539962 -0.055024
C70   C     C_R   0.986975 0.329150 0.467574 -0.021910
C71   C     C_R   0.501678 0.828169 0.539962 -0.054999
C72   C     C_R   0.486978 0.829154 0.467574 -0.021905
C73   C     C_R   0.782748 0.846220 0.554926 -0.039715
C74   C     C_R   0.218821 0.849964 0.445282 -0.032168
C75   C     C_R   0.282746 0.346228 0.554927 -0.039713
C76   C     C_R   0.718822 0.349965 0.445282 -0.032169
C77   C     C_R   0.837120 0.888445 0.510881 -0.001429
C78   C     C_R   0.167534 0.903119 0.487954 -0.007529
C79   C     C_R   0.337117 0.388455 0.510882 -0.001432
C80   C     C_R   0.667534 0.403118 0.487954 -0.007529
C81   C     C_R   0.831901 0.880573 0.434667 0.024542
C82   C     C_R   0.169049 0.887251 0.563730 0.020246
C83   C     C_R   0.331901 0.380578 0.434668 0.024539
C84   C     C_R   0.669049 0.387251 0.563730 0.020245
C85   C     C_R   0.719149 0.808496 0.442564 0.020989
C86   C     C_R   0.279691 0.804341 0.559300 0.011397
C87   C     C_R   0.219148 0.308499 0.442565 0.020991
C88   C     C_R   0.779693 0.304342 0.559299 0.011391
C89   C     C_R   0.742559 0.968266 0.150550 0.565723
C90   C     C_R   0.256587 0.964759 0.847888 0.573534
C91   C     C_R   0.242559 0.468266 0.150550 0.565723
C92   C     C_R   0.756587 0.464759 0.847888 0.573535
C93   C     C_R   0.722470 0.810532 0.518674 0.021160
C94   C     C_R   0.275817 0.803121 0.482940 0.030813
C95   C     C_R   0.222468 0.310538 0.518674 0.021158
C96   C     C_R   0.775817 0.303123 0.482940 0.030816
C97   C     C_R   0.890650 0.958644 0.537066 -0.057220
C98   C     C_R   0.123462 0.991907 0.461809 -0.101987
C99   C     C_R   0.390644 0.458665 0.537067 -0.057237
C100  C     C_R   0.623460 0.491903 0.461808 -0.101982
C101  C     C_R   0.933610 0.016186 0.489854 -0.079429
C102  C     C_R   0.083688 0.055094 0.508705 -0.109316
C103  C     C_R   0.433605 0.516202 0.489855 -0.079440
C104  C     C_R   0.583685 0.555088 0.508704 -0.109317
C105  C     C_R   0.935658 0.987900 0.417362 -0.093284
C106  C     C_R   0.074438 0.017067 0.579448 -0.083252
C107  C     C_R   0.435656 0.487910 0.417364 -0.093277
C108  C     C_R   0.574435 0.517062 0.579448 -0.083250
C109  C     C_R   0.886808 0.911881 0.390327 -0.047120
C110  C     C_R   0.114571 0.925536 0.605889 -0.057877
C111  C     C_R   0.386808 0.411886 0.390330 -0.047118
C112  C     C_R   0.614571 0.425534 0.605888 -0.057871
C113  C     C_R   0.768006 0.869027 0.403958 -0.011057
C114  C     C_R   0.231690 0.869435 0.596569 -0.015546
C115  C     C_R   0.268006 0.369027 0.403958 -0.011058
C116  C     C_R   0.731690 0.369436 0.596568 -0.015552
C117  C     C_R   0.713330 0.337486 0.363519 0.581649
C118  C     C_R   0.287483 0.335720 0.636822 0.574196
C119  C     C_R   0.213330 0.837486 0.363519 0.581647
C120  C     C_R   0.787484 0.835717 0.636822 0.574194
C121  C     C_R   0.532853 0.155746 0.352871 0.529656
C122  C     C_R   0.468895 0.155996 0.648508 0.539499
C123  C     C_R   0.032853 0.655746 0.352871 0.529658
C124  C     C_R   0.968895 0.655995 0.648508 0.539498
C125  C     C_R   0.745867 0.958679 0.348353 0.548683
C126  C     C_R   0.254229 0.958852 0.651635 0.549058
C127  C     C_R   0.245867 0.458679 0.348353 0.548680
C128  C     C_R   0.754229 0.458852 0.651635 0.549060
C129  C     C_3   0.505283 0.255821 0.970207 -0.106552
C130  C     C_3   0.458931 0.258336 0.038027 -0.127532
C131  C     C_3   0.005283 0.755821 0.970207 -0.106552
C132  C     C_3   0.958931 0.758336 0.038027 -0.127532
C133  C     C_3   0.549268 0.157930 0.006174 0.057005
C134  C     C_3   0.415312 0.157376 0.004993 0.044193
C135  C     C_3   0.049268 0.657930 0.006174 0.057005
C136  C     C_3   0.915312 0.657376 0.004993 0.044193
C137  C     C_3   0.503699 0.161243 0.072864 0.009352
C138  C     C_3   0.460709 0.155565 0.938278 0.014130
C139  C     C_3   0.003699 0.661242 0.072864 0.009352
C140  C     C_3   0.960709 0.655565 0.938278 0.014129
Cr1   Cr    Cr6+3 0.772820 0.169820 0.252640 1.044816
Cr2   Cr    Cr6+3 0.227180 0.169820 0.747360 1.049609
Cr3   Cr    Cr6+3 0.272820 0.669820 0.252640 1.044817
Cr4   Cr    Cr6+3 0.727180 0.669820 0.747360 1.049608
Cr5   Cr    Cr6+3 0.615040 0.323610 0.249150 1.053498
Cr6   Cr    Cr6+3 0.384960 0.323610 0.750850 1.026785
Cr7   Cr    Cr6+3 0.115040 0.823610 0.249150 1.053498
Cr8   Cr    Cr6+3 0.884960 0.823610 0.750850 1.026785
Cr9   Cr    Cr6+3 0.616720 0.011130 0.250660 1.086684
Cr10  Cr    Cr6+3 0.383280 0.011130 0.749340 1.074377
Cr11  Cr    Cr6+3 0.116720 0.511130 0.250660 1.086685
Cr12  Cr    Cr6+3 0.883280 0.511130 0.749340 1.074372
H1    H     H_    0.527456 0.343247 0.438897 0.148416
H2    H     H_    0.498212 0.343878 0.567464 0.134698
H3    H     H_    0.027462 0.843243 0.438900 0.148417
H4    H     H_    0.998220 0.843874 0.567466 0.134691
H5    H     H_    0.530868 0.926706 0.630019 0.159610
H6    H     H_    0.469496 0.929150 0.374053 0.176302
H7    H     H_    0.030863 0.426699 0.630019 0.159609
H8    H     H_    0.969498 0.429147 0.374053 0.176309
H9    H     H_    0.005373 0.245725 0.569966 0.137688
H10   H     H_    0.980489 0.246708 0.438824 0.130350
H11   H     H_    0.505381 0.745729 0.569965 0.137691
H12   H     H_    0.480491 0.746712 0.438825 0.130348
H13   H     H_    0.899015 0.982929 0.591923 0.179069
H14   H     H_    0.121984 0.025250 0.408041 0.187213
H15   H     H_    0.399004 0.482963 0.591923 0.179077
H16   H     H_    0.621982 0.525248 0.408041 0.187211
H17   H     H_    0.962107 0.087539 0.510885 0.138551
H18   H     H_    0.060148 0.133744 0.488526 0.152325
H19   H     H_    0.462102 0.587555 0.510886 0.138554
H20   H     H_    0.560145 0.633738 0.488525 0.152320
H21   H     H_    0.972486 0.029386 0.382034 0.101042
H22   H     H_    0.038771 0.061049 0.614588 0.112668
H23   H     H_    0.472484 0.529394 0.382036 0.101044
H24   H     H_    0.538768 0.561044 0.614587 0.112667
H25   H     H_    0.885378 0.895300 0.332766 0.123559
H26   H     H_    0.111603 0.902263 0.662677 0.127477
H27   H     H_    0.385380 0.395300 0.332768 0.123559
H28   H     H_    0.611603 0.402261 0.662677 0.127476
H29   H     H_    0.526987 0.333489 0.940989 0.160484
H30   H     H_    0.437357 0.338021 0.064869 0.140701
H31   H     H_    0.026987 0.833489 0.940989 0.160484
H32   H     H_    0.937357 0.838021 0.064869 0.140701
H33   H     H_    0.441781 0.982064 0.072255 0.145899
H34   H     H_    0.524973 0.975426 0.947776 0.159840
H35   H     H_    0.941781 0.482064 0.072255 0.145899
H36   H     H_    0.024973 0.475425 0.947776 0.159839
H37   H     H_    0.845253 0.024758 0.063312 0.161141
H38   H     H_    0.140221 0.973477 0.924274 0.139819
H39   H     H_    0.345253 0.524759 0.063312 0.161141
H40   H     H_    0.640221 0.473477 0.924274 0.139819
H41   H     H_    0.633721 0.786341 0.881918 0.164831
H42   H     H_    0.366648 0.807039 0.116937 0.153706
H43   H     H_    0.133721 0.286341 0.881918 0.164831
H44   H     H_    0.866648 0.307039 0.116937 0.153707
H45   H     H_    0.843110 0.012455 0.937454 0.189499
H46   H     H_    0.135053 0.946671 0.050846 0.189309
H47   H     H_    0.343110 0.512455 0.937454 0.189499
H48   H     H_    0.635053 0.446671 0.050846 0.189309
H49   H     H_    0.065466 0.157685 0.955048 0.188172
H50   H     H_    0.952564 0.212593 0.045490 0.173855
H51   H     H_    0.565466 0.657684 0.955048 0.188172
H52   H     H_    0.452564 0.712594 0.045490 0.173855
H53   H     H_    0.672008 0.758823 0.144661 0.169838
H54   H     H_    0.332910 0.754947 0.854781 0.157139
H55   H     H_    0.172009 0.258823 0.144661 0.169838
H56   H     H_    0.832910 0.254947 0.854780 0.157141
O1    O     O_R   0.788190 0.043000 0.172520 -0.534536
O2    O     O_R   0.211810 0.043000 0.827480 -0.518236
O3    O     O_R   0.288190 0.543000 0.172520 -0.534535
O4    O     O_R   0.711810 0.543000 0.827480 -0.518236
O5    O     O_R   0.556550 0.253260 0.323480 -0.534554
O6    O     O_R   0.443450 0.253260 0.676520 -0.531696
O7    O     O_R   0.056550 0.753260 0.323480 -0.534554
O8    O     O_R   0.943450 0.753260 0.676520 -0.531701
O9    O     O_R   0.545830 0.051610 0.330160 -0.519525
O10   O     O_R   0.454170 0.051610 0.669840 -0.525897
O11   O     O_R   0.045830 0.551610 0.330160 -0.519524
O12   O     O_R   0.954170 0.551610 0.669840 -0.525903
O13   O     O_R   0.681920 0.959720 0.327070 -0.469603
O14   O     O_R   0.318080 0.959720 0.672930 -0.480389
O15   O     O_R   0.181920 0.459720 0.327070 -0.469602
O16   O     O_R   0.818080 0.459720 0.672930 -0.480387
O17   O     O_3   0.668190 0.168190 0.250820 -0.289563
O18   O     O_3   0.331810 0.168190 0.749180 -0.310150
O19   O     O_3   0.168190 0.668190 0.250820 -0.289563
O20   O     O_3   0.831810 0.668190 0.749180 -0.310152
O21   O     O_R   0.766240 0.292300 0.176860 -0.499287
O22   O     O_R   0.233760 0.292300 0.823140 -0.494918
O23   O     O_R   0.266240 0.792300 0.176860 -0.499288
O24   O     O_R   0.733760 0.792300 0.823140 -0.494919
O25   O     O_R   0.670310 0.409160 0.168720 -0.490302
O26   O     O_R   0.329690 0.409160 0.831280 -0.509596
O27   O     O_R   0.170310 0.909160 0.168720 -0.490302
O28   O     O_R   0.829690 0.909160 0.831280 -0.509595
O29   O     O_R   0.556160 0.251900 0.173380 -0.493567
O30   O     O_R   0.443840 0.251900 0.826620 -0.500250
O31   O     O_R   0.056160 0.751900 0.173380 -0.493567
O32   O     O_R   0.943840 0.751900 0.826620 -0.500249
O33   O     O_R   0.545410 0.050140 0.168240 -0.503722
O34   O     O_R   0.454590 0.050140 0.831760 -0.496308
O35   O     O_R   0.045410 0.550140 0.168240 -0.503722
O36   O     O_R   0.954590 0.550140 0.831760 -0.496308
O37   O     O_R   0.681530 0.958350 0.176970 -0.489171
O38   O     O_R   0.318470 0.958350 0.823030 -0.503596
O39   O     O_R   0.181530 0.458350 0.176970 -0.489171
O40   O     O_R   0.818470 0.458350 0.823030 -0.503593
O41   O     O_R   0.788610 0.044480 0.334450 -0.501091
O42   O     O_R   0.211390 0.044480 0.665550 -0.498787
O43   O     O_R   0.288610 0.544480 0.334450 -0.501087
O44   O     O_R   0.711390 0.544480 0.665550 -0.498787
O45   O     O_R   0.766630 0.293670 0.326970 -0.450677
O46   O     O_R   0.233370 0.293670 0.673030 -0.450520
O47   O     O_R   0.266630 0.793670 0.326970 -0.450679
O48   O     O_R   0.733370 0.793670 0.673030 -0.450520
O49   O     O_R   0.670730 0.410640 0.330640 -0.515188
O50   O     O_R   0.329270 0.410640 0.669360 -0.525193
O51   O     O_R   0.170730 0.910640 0.330640 -0.515186
O52   O     O_R   0.829270 0.910640 0.669360 -0.525187
C141  C     C_2   0.624704 0.151964 0.001465 0.555556
O53   O     O_2   0.659431 0.148211 0.056191 -0.521395
O54   O     O_R   0.654689 0.148182 0.933547 -0.709688
H57   H     H_    0.705867 0.143473 0.936481 0.330423
C142  C     C_2   0.340508 0.148523 0.011037 0.550856
O55   O     O_2   0.304900 0.145928 0.957023 -0.538928
O56   O     O_R   0.312378 0.138086 0.079605 -0.715785
H58   H     H_    0.262136 0.121027 0.077801 0.330887
C143  C     C_2   0.124704 0.651964 0.001465 0.555556
O57   O     O_2   0.159431 0.648211 0.056191 -0.521395
O58   O     O_R   0.154689 0.648182 0.933547 -0.709688
H59   H     H_    0.205867 0.643474 0.936481 0.330424
C144  C     C_2   0.840508 0.648523 0.011038 0.550856
O59   O     O_2   0.804900 0.645928 0.957024 -0.538928
O60   O     O_R   0.812379 0.638086 0.079605 -0.715785
H60   H     H_    0.762137 0.621027 0.077801 0.330888
C145  C     C_2   0.664886 0.753291 0.399532 0.568042
O61   O     O_2   0.606266 0.779704 0.409885 -0.567859
O62   O     O_R   0.682221 0.685804 0.338979 -0.678700
H61   H     H_    0.641229 0.662361 0.308831 0.352589
C146  C     C_2   0.330833 0.738107 0.602406 0.603358
O63   O     O_2   0.384429 0.710286 0.576097 -0.584882
O64   O     O_R   0.317117 0.706190 0.674010 -0.673513
H62   H     H_    0.356213 0.661928 0.698094 0.345436
C147  C     C_2   0.164885 0.253294 0.399533 0.568040
O65   O     O_2   0.106265 0.279711 0.409885 -0.567854
O66   O     O_R   0.182220 0.185805 0.338980 -0.678701
H63   H     H_    0.141228 0.162365 0.308831 0.352587
C148  C     C_2   0.830835 0.238105 0.602404 0.603384
O67   O     O_2   0.884421 0.210257 0.576091 -0.584872
O68   O     O_R   0.817128 0.206208 0.674010 -0.673512
H64   H     H_    0.856222 0.161938 0.698092 0.345438
C149  C     C_2   0.660786 0.834092 0.557792 0.611452
O69   O     O_2   0.646404 0.938942 0.568748 -0.530072
O70   O     O_R   0.630521 0.741951 0.596930 -0.685626
H65   H     H_    0.603337 0.771268 0.639447 0.314063
C150  C     C_2   0.337442 0.805556 0.442097 0.612779
O71   O     O_2   0.354876 0.902703 0.417840 -0.549577
O72   O     O_R   0.362616 0.699842 0.413852 -0.659190
H66   H     H_    0.391190 0.714250 0.369325 0.316646
C151  C     C_2   0.160784 0.334097 0.557792 0.611455
O73   O     O_2   0.146400 0.438947 0.568747 -0.530068
O74   O     O_R   0.130519 0.241957 0.596931 -0.685627
H67   H     H_    0.103335 0.271274 0.639447 0.314063
C152  C     C_2   0.837442 0.305549 0.442096 0.612774
O75   O     O_2   0.854877 0.402691 0.417832 -0.549581
O76   O     O_R   0.862614 0.199829 0.413857 -0.659181
H68   H     H_    0.891187 0.214228 0.369328 0.316650
C153  C     C_2   0.066664 0.128558 0.101643 0.533936
O77   O     O_2   0.066757 0.141189 0.167176 -0.542924
O78   O     O_R   0.024586 0.042038 0.070442 -0.720225
H69   H     H_    0.996426 0.998472 0.107855 0.332445
C154  C     C_2   0.946849 0.160194 0.900297 0.529315
O79   O     O_2   0.965802 0.203141 0.842974 -0.546900
O80   O     O_R   0.967850 0.045426 0.921165 -0.706219
H70   H     H_    0.998526 0.007896 0.883903 0.326349
C155  C     C_2   0.566664 0.628558 0.101643 0.533936
O81   O     O_2   0.566757 0.641189 0.167176 -0.542923
O82   O     O_R   0.524586 0.542038 0.070442 -0.720225
H71   H     H_    0.496426 0.498472 0.107855 0.332446
C156  C     C_2   0.446849 0.660194 0.900297 0.529315
O83   O     O_2   0.465803 0.703142 0.842974 -0.546898
O84   O     O_R   0.467850 0.545426 0.921165 -0.706219
H72   H     H_    0.498526 0.507896 0.883903 0.326349

loop_
_geom_bond_atom_site_label_1
_geom_bond_atom_site_label_2
_ccdc_geom_bond_type
Cr11  O19   S    
C124  O12   A    
C133  C137  S    
C55   C59   A    
Cr1   O41   S    
C99   C103  A    
O68   H64   S    
C38   C156  S    
C73   C93   A    
C136  C140  S    
C128  O16   A    
Cr6   O26   S    
C75   C95   A    
C151  O73   D    
C135  C139  S    
C84   C112  A    
Cr3   O43   S    
C4    O24   A    
C79   C99   A    
Cr12  O36   S    
Cr5   O25   S    
C5    C6    S    
C110  H26   S    
O58   H59   S    
C100  C104  A    
C9    C13   A    
C131  C140  S    
C3    O27   A    
C11   C15   A    
C50   C90   S    
C66   C72   A    
C12   C16   A    
C1    O25   A    
C22   H38   S    
C87   C115  A    
C80   C84   A    
C59   C60   A    
C8    C135  S    
C111  H27   S    
C130  C134  S    
Cr8   O52   S    
C70   H10   S    
C99   H15   S    
Cr5   O49   S    
O84   H72   S    
C56   C123  S    
C98   C102  A    
Cr5   O17   S    
C121  O5    A    
C78   C82   A    
O74   H67   S    
C11   C27   A    
C16   C20   A    
Cr9   O9    S    
Cr6   O6    S    
C71   H11   S    
C129  C133  S    
C143  O58   S    
C85   C145  S    
C17   C49   A    
Cr1   O1    S    
C141  O54   S    
C29   C35   A    
Cr8   O32   S    
C87   C147  S    
Cr3   O19   S    
Cr3   O3    S    
C5    C137  S    
C118  O50   A    
C54   C61   A    
C6    H34   S    
C30   C36   A    
C8    C140  S    
C125  O41   A    
C147  O66   S    
C76   C96   A    
C31   H43   S    
C29   H41   S    
C89   O37   A    
C69   C70   A    
C45   O29   A    
Cr11  O35   S    
C156  O83   D    
C73   C77   A    
C67   H7    S    
C67   C69   A    
C68   H8    S    
C75   C79   A    
C102  H18   S    
C79   C83   A    
C6    C138  S    
C136  C144  S    
Cr8   O20   S    
C21   C49   A    
C92   O40   A    
C7    C8    S    
C132  C139  S    
C133  C141  S    
C7    H35   S    
Cr7   O7    S    
C53   C122  S    
C18   C42   A    
C141  O53   D    
C114  C126  S    
C154  O80   S    
C90   O38   A    
C135  C143  S    
C40   C154  S    
C59   C67   A    
C85   C93   A    
Cr6   O30   S    
C152  O76   S    
C87   C95   A    
C77   C97   A    
C112  H28   S    
C134  C142  S    
C84   C116  A    
Cr3   O47   S    
C145  O61   D    
C103  H19   S    
C150  O72   S    
C39   C153  S    
C1    C12   S    
C2    C11   S    
Cr8   O8    S    
C105  C109  A    
C20   C44   A    
C153  O78   S    
C48   C140  S    
C83   C115  A    
C27   H47   S    
Cr4   O4    S    
C91   O3    A    
C10   C14   A    
C3    O23   A    
Cr7   O19   S    
C89   O1    A    
C149  O69   D    
C109  H25   S    
C96   C152  S    
C21   H37   S    
C132  C136  S    
C148  O67   D    
C95   C151  S    
C93   C149  S    
C24   H40   S    
C142  O56   S    
C98   H14   S    
C47   O31   A    
C54   C121  S    
O76   H68   S    
C74   C78   A    
Cr6   O50   S    
C81   C113  A    
C129  C130  S    
C4    O28   A    
Cr10  O38   S    
C21   C25   A    
C107  C111  A    
C24   C28   A    
C103  C107  A    
O56   H58   S    
C15   C31   A    
Cr7   O31   S    
C146  O64   S    
Cr2   O46   S    
C104  H20   S    
C85   C113  A    
C7    C136  S    
C57   C58   A    
C34   H50   S    
C144  O60   S    
Cr11  O15   S    
C37   C41   A    
C61   C62   A    
C26   H46   S    
C92   O4    A    
C2    O22   A    
C63   C64   A    
C40   C44   A    
C56   C60   A    
O64   H62   S    
Cr3   O23   S    
C4    C9    S    
C24   C52   A    
C119  O51   A    
C88   C96   A    
Cr10  O18   S    
C123  O7    A    
C74   C94   A    
O60   H60   S    
C5    H33   S    
C48   O36   A    
C9    C25   A    
O54   H57   S    
C8    H36   S    
C15   C19   A    
Cr4   O48   S    
C12   C28   A    
C13   C29   A    
C6    C133  S    
Cr11  O39   S    
Cr1   O21   S    
C155  O82   S    
C123  O11   A    
C51   C91   S    
C131  H31   S    
C2    O26   A    
C37   C155  S    
O62   H61   S    
C101  H17   S    
C22   C50   A    
O80   H70   S    
C73   C120  S    
C143  O57   D    
Cr10  O14   S    
C75   C118  S    
C121  O9    A    
C32   H44   S    
C48   O32   A    
C19   C43   A    
Cr2   O18   S    
C151  O74   S    
C91   O39   A    
C43   H55   S    
C88   C148  S    
C76   C80   A    
C65   H5    S    
O70   H65   S    
C53   C57   A    
Cr6   O18   S    
C122  O6    A    
O72   H66   S    
C147  O65   D    
Cr1   O17   S    
O66   H63   S    
C77   C81   A    
C106  H22   S    
C128  O44   A    
Cr5   O5    S    
C81   C109  A    
C125  O13   A    
Cr12  O16   S    
C83   C111  A    
C52   C92   S    
C16   C32   A    
C46   O34   A    
C131  C132  S    
C104  C108  A    
C18   C50   A    
C55   C124  S    
Cr9   O37   S    
Cr4   O24   S    
C57   C65   A    
C119  O47   A    
C13   C17   A    
C76   C117  S    
C86   C114  A    
C126  O42   A    
Cr1   O45   S    
C36   C38   A    
C120  O52   A    
C132  H32   S    
C47   O35   A    
C154  O79   D    
C30   H42   S    
C107  H23   S    
C97   H13   S    
C108  H24   S    
C42   H54   S    
Cr12  O40   S    
Cr2   O22   S    
O82   H71   S    
C108  C112  A    
Cr10  O34   S    
C60   C68   A    
C20   C52   A    
C152  O75   D    
C22   C26   A    
C47   C139  S    
C130  C137  S    
C32   C34   A    
Cr7   O27   S    
O78   H69   S    
Cr2   O42   S    
Cr9   O17   S    
C150  O71   D    
C14   C18   A    
C23   H39   S    
C153  O77   D    
C74   C119  S    
C33   C39   A    
C28   H48   S    
C34   C40   A    
C82   C110  A    
C35   C37   A    
C69   H9    S    
C38   C42   A    
C131  C135  S    
C113  C125  S    
C44   H56   S    
C115  C127  S    
C86   C94   A    
C106  C110  A    
Cr12  O20   S    
C58   C66   A    
C129  C138  S    
C156  O84   S    
Cr5   O29   S    
C78   C98   A    
C31   C33   A    
C23   C27   A    
C118  O46   A    
C142  O55   D    
C127  O43   A    
C127  O15   A    
C46   C138  S    
C10   C26   A    
Cr4   O44   S    
C80   C100  A    
Cr7   O51   S    
Cr9   O13   S    
C14   C30   A    
C101  C105  A    
C5    C134  S    
C117  O45   A    
C82   C114  A    
C124  O8    A    
C130  H30   S    
C90   O2    A    
C39   C43   A    
C146  O63   D    
C65   C71   A    
C62   H2    S    
Cr8   O28   S    
C88   C116  A    
C120  O48   A    
C19   C51   A    
C117  O49   A    
C53   C62   A    
C23   C51   A    
C55   C64   A    
C45   C137  S    
C144  O59   D    
Cr10  O10   S    
C56   C63   A    
C68   C70   A    
C145  O62   S    
Cr2   O2    S    
C45   O33   A    
C66   H6    S    
C54   C58   A    
C129  H29   S    
C122  O10   A    
C49   C89   S    
C61   H1    S    
C134  C138  S    
C126  O14   A    
C72   H12   S    
C64   H4    S    
C100  H16   S    
C63   H3    S    
C149  O70   S    
C3    C10   S    
C7    C139  S    
C35   H51   S    
Cr12  O12   S    
C33   H49   S    
C148  O68   S    
C86   C146  S    
C102  C106  A    
Cr11  O11   S    
C46   O30   A    
C94   C150  S    
C41   H53   S    
C155  O81   D    
C17   C41   A    
C25   H45   S    
C1    O21   A    
C71   C72   A    
Cr9   O33   S    
C116  C128  S    
Cr4   O20   S    
C105  H21   S    
C36   H52   S    
C97   C101  A    
