data_mof_unit_40887.cif
_audit_creation_date              2012-12-10T19:42:55-0500
_audit_creation_method            fapswitch 2.2
_symmetry_space_group_name_H-M    P1
_symmetry_Int_Tables_number       1
_space_group_crystal_system       triclinic
_cell_length_a                    10.92523
_cell_length_b                    12.99685
_cell_length_c                    11.659815
_cell_angle_alpha                 99.888628
_cell_angle_beta                  94.191968
_cell_angle_gamma                 90.615309
_cell_volume                      1626.20141264

loop_
_atom_site_label
_atom_site_type_symbol
_atom_type_description
_atom_site_fract_x
_atom_site_fract_y
_atom_site_fract_z
_atom_type_partial_charge
C1    C     C_R   0.498780 0.299009 0.478591 0.808963
C2    C     C_R   0.502228 0.700987 0.521461 0.802013
C3    C     C_R   0.872331 0.498283 0.503328 -0.104098
C4    C     C_R   0.128329 0.502414 0.497845 -0.106377
C5    C     C_R   0.948592 0.504558 0.608637 0.047115
C6    C     C_R   0.052644 0.500971 0.393708 0.043472
C7    C     C_R   0.503159 0.814404 0.534107 -0.045383
C8    C     C_R   0.500437 0.185625 0.466311 -0.052133
C9    C     C_R   0.513897 0.015393 0.345896 -0.228101
C10   C     C_R   0.491504 0.984661 0.654818 -0.216559
C11   C     C_R   0.509550 0.123412 0.356384 -0.197663
C12   C     C_R   0.493680 0.876555 0.643995 -0.204832
C13   C     C_R   0.494641 0.139171 0.565643 -0.264289
C14   C     C_R   0.512179 0.861005 0.435338 -0.290054
C15   C     C_R   0.498115 0.031232 0.555769 0.177588
C16   C     C_R   0.508306 0.968904 0.445104 0.180830
C17   C     C_R   0.431159 0.374413 0.019857 -0.307974
C18   C     C_R   0.559411 0.628169 0.979333 -0.338298
C19   C     C_R   0.431610 0.389905 0.142263 0.086092
C20   C     C_R   0.563228 0.611695 0.857509 0.043338
C21   C     C_R   0.519198 0.559458 0.157670 0.044995
C22   C     C_R   0.478433 0.441072 0.841940 0.095478
C23   C     C_R   0.262103 0.501597 0.499572 0.801969
C24   C     C_R   0.738156 0.499278 0.500766 0.800313
C25   C     C_R   0.518763 0.547794 0.034555 0.112403
C26   C     C_R   0.476309 0.453319 0.964941 0.125757
C27   C     C_R   0.166211 0.632524 0.153780 0.407925
C28   C     C_R   0.819979 0.446388 0.885368 0.470785
C29   C     C_R   0.134581 0.614469 0.264058 -0.276241
C30   C     C_R   0.851292 0.434748 0.769256 -0.255128
C31   C     C_R   0.100052 0.514712 0.281413 0.111903
C32   C     C_R   0.904003 0.518348 0.727377 0.084968
C33   C     C_R   0.101203 0.430649 0.189463 -0.240127
C34   C     C_R   0.925309 0.613982 0.802598 -0.196457
C35   C     C_R   0.132560 0.446658 0.079965 -0.274276
C36   C     C_R   0.895389 0.626364 0.918406 -0.309023
C37   C     C_R   0.163112 0.546400 0.058518 0.498065
C38   C     C_R   0.841992 0.542368 0.962245 0.507960
C39   C     C_R   0.925996 0.495065 0.397348 -0.254743
C40   C     C_R   0.075113 0.503786 0.603376 -0.248178
Cu1   Cu    Cu3+1 0.509250 0.507730 0.615930 0.941223
Cu2   Cu    Cu3+1 0.490750 0.492270 0.384070 0.946144
H1    H     H_    0.442217 0.369682 0.787946 0.108142
H2    H     H_    0.555760 0.630807 0.211442 0.105435
H3    H     H_    0.596174 0.674442 0.817181 0.136352
H4    H     H_    0.396468 0.328095 0.182827 0.126436
H5    H     H_    0.395912 0.301171 0.968757 0.124533
H6    H     H_    0.585874 0.703997 0.029523 0.122002
H7    H     H_    0.128286 0.679643 0.334799 0.145122
H8    H     H_    0.834241 0.360388 0.711731 0.158004
H9    H     H_    0.074733 0.352969 0.201754 0.145969
H10   H     H_    0.967597 0.678908 0.771845 0.149509
H11   H     H_    0.129859 0.380531 0.009189 0.159473
H12   H     H_    0.915810 0.701796 0.972106 0.163912
H13   H     H_    0.869090 0.492059 0.316673 0.196298
H14   H     H_    0.132440 0.506173 0.683758 0.196403
H15   H     H_    0.522042 0.813498 0.350725 0.134404
H16   H     H_    0.487126 0.186776 0.650743 0.149650
H17   H     H_    0.486926 0.841696 0.721339 0.146275
H18   H     H_    0.514392 0.158182 0.278757 0.152126
H19   H     H_    0.521429 0.968347 0.260551 0.124313
H20   H     H_    0.483783 0.031656 0.740154 0.133428
N1    N     N_R   0.523180 0.519350 0.790130 -0.189234
N2    N     N_R   0.476820 0.480650 0.209870 -0.183471
O1    O     O_R   0.506570 0.354460 0.582000 -0.592137
O2    O     O_R   0.493430 0.645540 0.418000 -0.601998
O3    O     O_R   0.490940 0.341410 0.386200 -0.598627
O4    O     O_R   0.509060 0.658590 0.613800 -0.604122
O5    O     O_R   0.327460 0.506540 0.597900 -0.592647
O6    O     O_R   0.672540 0.493460 0.402100 -0.576746
O7    O     O_R   0.311830 0.493480 0.402100 -0.571848
O8    O     O_R   0.688170 0.506520 0.597900 -0.572736
O9    O     O_3   0.180364 0.550949 0.941747 -0.609302
C41   C     C_3   0.236314 0.643584 0.921717 -0.259705
H21   H     H_    0.269691 0.628897 0.832948 0.173979
H22   H     H_    0.168265 0.706483 0.922888 0.201770
H23   H     H_    0.317511 0.667933 0.983320 0.179986
O10   O     O_3   0.808679 0.547171 0.076637 -0.568922
C42   C     C_3   0.827893 0.646091 0.148203 -0.358712
H24   H     H_    0.776333 0.707780 0.112314 0.149627
H25   H     H_    0.926332 0.668065 0.161757 0.190648
H26   H     H_    0.794408 0.642489 0.234938 0.187595
O11   O     O_3   0.179282 0.734619 0.135794 -0.610424
C43   C     C_3   0.279751 0.784904 0.207416 -0.365262
H27   H     H_    0.362083 0.735214 0.205277 0.150110
H28   H     H_    0.255012 0.809759 0.298558 0.186516
H29   H     H_    0.304935 0.856494 0.173841 0.187001
O12   O     O_3   0.757853 0.365452 0.920464 -0.568515
C44   C     C_3   0.843306 0.305566 0.975113 -0.308661
H30   H     H_    0.880887 0.349748 0.060702 0.199164
H31   H     H_    0.918816 0.278964 0.918597 0.136924
H32   H     H_    0.795153 0.234810 0.992230 0.182596

loop_
_geom_bond_atom_site_label_1
_geom_bond_atom_site_label_2
_ccdc_geom_bond_type
C8    C13   A    
C35   H11   S    
C1    C8    S    
Cu1   Cu2   S    
C23   O5    A    
C2    C7    S    
C43   H29   S    
C19   H4    S    
C24   O6    A    
C29   H7    S    
C41   H22   S    
O11   C43   S    
C9    H19   S    
C17   C26   A    
C35   C37   A    
C9    C16   A    
C43   H28   S    
C2    O4    A    
C10   C15   A    
C27   C29   A    
C15   C16   A    
Cu2   O6    S    
O9    C41   S    
C21   N2    A    
C37   O9    S    
C33   C35   A    
C22   N1    A    
C12   H17   S    
C7    C14   A    
C39   H13   S    
C4    C40   A    
C40   H14   S    
C41   H23   S    
C28   O12   S    
C1    O1    A    
C31   C33   A    
C44   H31   S    
C34   C36   A    
C20   H3    S    
C5    C32   S    
C6    C31   S    
C30   H8    S    
C3    C39   A    
C3    C24   S    
C10   H20   S    
C18   C25   A    
Cu1   O4    S    
C7    C12   A    
C41   H21   S    
C23   O7    A    
C43   H27   S    
C4    C6    A    
C42   H25   S    
C4    C23   S    
O10   C42   S    
Cu1   O1    S    
C13   H16   S    
C38   O10   S    
C3    C5    A    
C25   C26   A    
C32   C34   A    
C21   H2    S    
C22   H1    S    
C28   C38   A    
C19   N2    A    
C44   H32   S    
C9    C11   A    
C10   C12   A    
Cu1   O8    S    
C13   C15   A    
Cu2   O3    S    
C14   C16   A    
Cu1   N1    S    
C11   H18   S    
Cu2   N2    S    
C24   O8    A    
Cu1   O5    S    
C14   H15   S    
C21   C25   A    
C17   H5    S    
C2    O2    A    
C18   H6    S    
C42   H26   S    
C1    O3    A    
C33   H9    S    
C34   H10   S    
C20   N1    A    
C27   O11   S    
C28   C30   A    
C29   C31   A    
C30   C32   A    
C27   C37   A    
C8    C11   A    
C36   C38   A    
Cu2   O7    S    
C17   C19   A    
C18   C20   A    
C36   H12   S    
C42   H24   S    
O12   C44   S    
C22   C26   A    
C5    C40   A    
Cu2   O2    S    
C6    C39   A    
C44   H30   S    
