data_mof_unit_15251.cif
_audit_creation_date              2012-12-11T15:12:41-0500
_audit_creation_method            fapswitch 2.2
_symmetry_space_group_name_H-M    P1
_symmetry_Int_Tables_number       1
_space_group_crystal_system       triclinic
_cell_length_a                    22.334997
_cell_length_b                    6.997735
_cell_length_c                    19.461489
_cell_angle_alpha                 89.89214
_cell_angle_beta                  98.865147
_cell_angle_gamma                 90.005495
_cell_volume                      3005.37913828

loop_
_atom_site_label
_atom_site_type_symbol
_atom_type_description
_atom_site_fract_x
_atom_site_fract_y
_atom_site_fract_z
_atom_type_partial_charge
O1    O     O_R   0.448420 0.506120 0.415750 -0.521197
O2    O     O_R   0.551580 0.006120 0.584250 -0.521410
O3    O     O_R   0.436490 0.174470 0.555610 -0.535169
O4    O     O_R   0.563510 0.674470 0.444390 -0.535626
C1    C     C_R   0.421686 0.344123 0.576298 0.725633
C2    C     C_R   0.578094 0.844274 0.423444 0.726694
O5    O     O_R   0.441310 0.176330 0.414520 -0.542159
O6    O     O_R   0.558690 0.676330 0.585480 -0.542379
O7    O     O_R   0.556430 0.007110 0.442150 -0.518766
O8    O     O_R   0.443570 0.507110 0.557850 -0.519580
C3    C     C_R   0.423483 0.346372 0.391460 0.762880
C4    C     C_R   0.577390 0.846680 0.607622 0.766141
O9    O     O_3   0.537770 0.339560 0.509230 -0.353728
O10   O     O_3   0.462230 0.839560 0.490770 -0.354548
V1    V     V_3+5 0.492990 0.064280 0.498290 1.608249
V2    V     V_3+5 0.507010 0.564280 0.501710 1.608361
C5    C     C_R   0.874403 0.034441 0.699736 0.738501
C6    C     C_R   0.122434 0.424796 0.304021 0.744128
H1    H     H_    0.958003 0.061429 0.769050 0.173796
H2    H     H_    0.037789 0.440026 0.235488 0.176949
C7    C     C_R   0.887873 0.945371 0.820774 -0.163987
C8    C     C_R   0.113016 0.436086 0.178772 -0.164243
C9    C     C_R   0.598487 0.802955 0.733027 -0.244109
C10   C     C_R   0.403453 0.297154 0.266492 -0.235454
C11   C     C_R   0.631961 0.825795 0.798638 0.331403
C12   C     C_R   0.366057 0.249427 0.205294 0.330334
C13   C     C_R   0.691763 0.892660 0.806174 0.217374
C14   C     C_R   0.302902 0.261156 0.200814 0.221071
C15   C     C_R   0.721388 0.911084 0.746451 -0.027792
C16   C     C_R   0.276922 0.348717 0.255566 -0.020789
C17   C     C_R   0.683988 0.918953 0.679359 -0.048895
C18   C     C_R   0.315524 0.388388 0.320194 -0.048963
C19   C     C_R   0.785950 0.933915 0.751604 0.003699
C20   C     C_R   0.213412 0.390399 0.249220 0.006558
C21   C     C_R   0.811623 0.990292 0.692007 -0.164046
C22   C     C_R   0.186591 0.415420 0.310314 -0.164107
C23   C     C_R   0.773996 0.007299 0.627183 0.325471
C24   C     C_R   0.224611 0.443131 0.374580 0.322092
C25   C     C_R   0.710944 0.986880 0.622250 0.137430
C26   C     C_R   0.287805 0.454667 0.376805 0.138167
C27   C     C_R   0.826612 0.893466 0.813698 -0.131664
C28   C     C_R   0.176099 0.417715 0.183853 -0.109268
C29   C     C_R   0.910944 0.017666 0.763832 -0.205941
C30   C     C_R   0.086634 0.432132 0.238914 -0.213509
C31   C     C_R   0.621449 0.859064 0.673325 -0.110191
C32   C     C_R   0.379720 0.354445 0.325451 -0.107116
H3    H     H_    0.811724 0.821511 0.857064 0.171116
H4    H     H_    0.195664 0.431562 0.136676 0.172579
H5    H     H_    0.552109 0.752935 0.728922 0.176694
H6    H     H_    0.451878 0.275279 0.269656 0.176797
C33   C     C_3   0.808781 0.762884 0.262620 0.499533
C34   C     C_3   0.191047 0.262600 0.737762 0.498974
C35   C     C_3   0.783463 0.109346 0.245085 0.696479
C36   C     C_3   0.216589 0.608975 0.754469 0.697456
C37   C     C_3   0.732097 0.091119 0.291662 0.368164
C38   C     C_3   0.267510 0.589581 0.707403 0.368241
H7    H     H_    0.751096 0.130970 0.345993 0.208287
H8    H     H_    0.248025 0.627560 0.652980 0.208135
C39   C     C_1   0.623630 0.853639 0.377733 -0.056188
C40   C     C_1   0.376126 0.352836 0.622006 -0.058233
C41   C     C_3   0.789900 0.918187 0.205991 -0.388603
C42   C     C_3   0.210090 0.418170 0.794003 -0.386051
C43   C     C_3   0.761890 0.746934 0.314002 0.349275
C44   C     C_3   0.238125 0.244656 0.686682 0.347600
C45   C     C_3   0.707238 0.882149 0.291079 -0.411198
C46   C     C_3   0.292621 0.380887 0.708823 -0.409998
C47   C     C_3   0.679275 0.826815 0.215127 1.083850
C48   C     C_3   0.320805 0.327298 0.784945 1.086124
C49   C     C_3   0.725181 0.873123 0.164518 -0.082880
C50   C     C_3   0.274790 0.372679 0.835504 -0.090692
C51   C     C_1   0.661359 0.864452 0.339030 0.300727
C52   C     C_1   0.338426 0.363089 0.660770 0.302829
C53   C     C_1   0.836802 0.931686 0.158916 0.286904
C54   C     C_1   0.163231 0.432324 0.841106 0.283831
C55   C     C_1   0.875084 0.940709 0.120842 -0.083246
C56   C     C_1   0.124946 0.441341 0.879172 -0.085463
H9    H     H_    0.707744 0.002380 0.135182 0.228726
H10   H     H_    0.292176 0.501391 0.865011 0.225005
H11   H     H_    0.812609 0.625342 0.236932 0.128791
H12   H     H_    0.186696 0.125593 0.763817 0.129684
H13   H     H_    0.745939 0.596429 0.314921 0.163392
H14   H     H_    0.254246 0.094194 0.686830 0.165722
O11   O     O_R   0.056480 0.288780 0.942210 -0.535650
O12   O     O_R   0.943520 0.788780 0.057790 -0.537305
O13   O     O_R   0.058700 0.616820 0.085490 -0.536368
O14   O     O_R   0.941300 0.116820 0.914510 -0.538003
C57   C     C_R   0.073369 0.447763 0.111012 0.742619
C58   C     C_R   0.927024 0.948555 0.888779 0.744018
O15   O     O_R   0.063520 0.618570 0.944410 -0.531782
O16   O     O_R   0.936480 0.118570 0.055590 -0.531491
O17   O     O_R   0.948420 0.787670 0.915740 -0.538654
O18   O     O_R   0.051580 0.287670 0.084260 -0.532193
C59   C     C_R   0.078928 0.450111 0.924264 0.710001
C60   C     C_R   0.921078 0.949908 0.075734 0.713990
O19   O     O_3   0.962260 0.453430 0.990800 -0.371919
O20   O     O_3   0.037740 0.953430 0.009200 -0.365727
V3    V     V_3+5 0.007000 0.728750 0.001710 1.545527
V4    V     V_3+5 0.993000 0.228750 0.998290 1.546411
F1    F     F_    0.866080 0.800139 0.298877 -0.485968
F2    F     F_    0.133945 0.301014 0.701136 -0.484258
Br1   Br    Br    0.767647 0.314194 0.177745 -0.359002
Br2   Br    Br    0.233310 0.813882 0.821323 -0.360817
F3    F     F_    0.837586 0.155267 0.286889 -0.549713
F4    F     F_    0.162319 0.655840 0.713059 -0.550451
F5    F     F_    0.684862 0.216987 0.270400 -0.574463
F6    F     F_    0.314674 0.716472 0.727420 -0.576144
Br3   Br    Br    0.722360 0.696804 0.086711 -0.227910
Br4   Br    Br    0.277424 0.195089 0.913167 -0.230494
F7    F     F_    0.664806 0.633998 0.212197 -0.569216
F8    F     F_    0.335983 0.135011 0.788496 -0.568187
Br5   Br    Br    0.807154 0.045527 0.541404 -0.132977
Br6   Br    Br    0.192357 0.487505 0.460245 -0.128987
F9    F     F_    0.626093 0.928226 0.194756 -0.543563
F10   F     F_    0.373635 0.430637 0.804891 -0.545691
F11   F     F_    0.901142 0.107517 0.647519 -0.561331
F12   F     F_    0.092835 0.427514 0.359755 -0.552335
Br7   Br    Br    0.722307 0.011921 0.894473 -0.397356
Br8   Br    Br    0.255819 0.109244 0.128661 -0.428128
Br9   Br    Br    0.592201 0.772489 0.877338 -0.189910
Br10  Br    Br    0.404101 0.150919 0.130647 -0.204623
Br11  Br    Br    0.665685 0.110062 0.542730 -0.471748
Br12  Br    Br    0.330527 0.604408 0.451507 -0.469872
F13   F     F_    0.789067 0.791151 0.381074 -0.526999
F14   F     F_    0.211042 0.285941 0.619290 -0.525985

loop_
_geom_bond_atom_site_label_1
_geom_bond_atom_site_label_2
_ccdc_geom_bond_type
C46   C48   S    
C43   C45   S    
C9    C31   A    
C50   H10   S    
C49   H9    S    
O1    C3    A    
O2    C4    A    
C50   Br4   S    
C2    O7    A    
C49   Br3   S    
O19   V4    S    
O18   V4    S    
O5    C3    A    
C54   C56   T    
C43   H13   S    
O12   V3    S    
C36   F4    S    
C21   C23   A    
C10   C12   A    
O14   C58   A    
C9    H5    S    
C13   C15   A    
C40   C52   T    
O11   C59   A    
C15   C19   A    
C42   C50   S    
C48   F8    S    
C37   C45   S    
C7    C29   A    
C35   C41   S    
C47   F7    S    
C8    C30   A    
C46   C52   S    
C20   C28   A    
C45   C47   S    
O11   V4    S    
O20   V4    S    
C16   C18   A    
O5    V1    S    
C7    C58   S    
O6    V2    S    
C57   O18   A    
C10   H6    S    
C53   C55   T    
C11   Br9   S    
C12   C14   A    
H2    C30   S    
H1    C29   S    
O16   C60   A    
C35   C37   S    
C33   F1    S    
C36   C38   S    
C16   C20   A    
O13   C57   A    
C33   C43   S    
O4    C2    A    
C34   C44   S    
C6    F12   S    
O8    V2    S    
C28   H4    S    
C36   C42   S    
C41   C53   S    
C44   F14   S    
C34   F2    S    
O15   C59   A    
O15   V3    S    
C47   C49   S    
C44   C46   S    
O4    V2    S    
C5    C29   A    
C6    C30   A    
C56   C59   S    
C58   O17   A    
O6    C4    A    
C44   H14   S    
O20   V3    S    
C27   H3    S    
O1    V2    S    
O12   C60   A    
C8    C57   S    
O17   V3    S    
O2    V1    S    
C38   F6    S    
C7    C27   A    
C48   C50   S    
C37   F5    S    
C37   H7    S    
O10   V2    S    
C24   Br6   S    
O3    V1    S    
C5    F11   S    
C13   Br7   S    
C41   C49   S    
C1    C40   S    
C18   C32   A    
C2    C39   S    
C36   Br2   S    
C12   Br10  S    
C4    C31   S    
O3    C1    A    
C43   F13   S    
O19   V3    S    
C14   C16   A    
C11   C13   A    
C26   Br12  S    
C35   Br1   S    
C25   Br11  S    
C19   C27   A    
O9    V1    S    
O7    V1    S    
C10   C32   A    
C1    O8    A    
C15   C17   A    
C45   C51   S    
C24   C26   A    
C33   C41   S    
C8    C28   A    
C35   F3    S    
C38   C46   S    
C22   C24   A    
C19   C21   A    
C38   H8    S    
C20   C22   A    
C18   C26   A    
C47   F9    S    
O14   V4    S    
C33   H11   S    
C23   Br5   S    
O13   V3    S    
C9    C11   A    
C23   C25   A    
C17   C31   A    
O9    V2    S    
C48   F10   S    
C34   C42   S    
C17   C25   A    
O10   V1    S    
C42   C54   S    
C3    C32   S    
C14   Br8   S    
C5    C21   A    
C34   H12   S    
C6    C22   A    
O16   V4    S    
C55   C60   S    
C39   C51   T    
