data_mof_unit_36594.cif
_audit_creation_date              2012-12-10T18:59:14-0500
_audit_creation_method            fapswitch 2.2
_symmetry_space_group_name_H-M    P1
_symmetry_Int_Tables_number       1
_space_group_crystal_system       triclinic
_cell_length_a                    10.80091
_cell_length_b                    10.857317
_cell_length_c                    9.547774
_cell_angle_alpha                 90.148013
_cell_angle_beta                  89.626264
_cell_angle_gamma                 91.056134
_cell_volume                      1119.43956662

loop_
_atom_site_label
_atom_site_type_symbol
_atom_type_description
_atom_site_fract_x
_atom_site_fract_y
_atom_site_fract_z
_atom_type_partial_charge
C1    C     C_R   0.498155 0.262729 0.499693 0.786242
C2    C     C_R   0.063386 0.398291 0.589252 0.099201
C3    C     C_R   0.128925 0.481718 0.500703 -0.105162
C4    C     C_R   0.066191 0.555065 0.406199 -0.175554
C5    C     C_R   0.938930 0.553498 0.404144 -0.201018
C6    C     C_R   0.871097 0.480865 0.498707 -0.101412
C7    C     C_R   0.487519 0.062528 0.620542 0.117055
C8    C     C_R   0.492863 0.130151 0.497744 -0.096602
C9    C     C_R   0.491034 0.064230 0.370135 -0.185590
C10   C     C_R   0.488357 0.935026 0.370464 -0.109528
C11   C     C_R   0.489041 0.869766 0.498256 -0.104715
C12   C     C_R   0.262664 0.492965 0.500476 0.792058
C13   C     C_R   0.484145 0.938320 0.620841 0.061797
C14   C     C_3   0.481890 0.930901 0.776791 -0.194656
C15   C     C_3   0.486066 0.073090 0.776145 -0.507590
C16   C     C_R   0.552972 0.596553 0.073314 0.253235
C17   C     C_R   0.435536 0.413031 0.074670 -0.054920
C18   C     C_R   0.434789 0.413604 0.925819 -0.063719
C19   C     C_R   0.556297 0.593542 0.926053 0.322386
C20   C     C_3   0.689566 0.630749 0.920086 -0.528984
C21   C     C_3   0.684572 0.642992 0.079770 -0.380862
C22   C     C_R   0.496074 0.737208 0.499976 0.816362
C23   C     C_R   0.737371 0.493197 0.499636 0.781519
C24   C     C_R   0.124717 0.311586 0.673291 -0.176211
C25   C     C_R   0.057778 0.229098 0.757388 -0.115384
C26   C     C_R   0.929051 0.229257 0.757293 -0.127722
C27   C     C_R   0.866380 0.311738 0.672895 -0.185784
C28   C     C_R   0.932144 0.398217 0.588730 0.101055
Cu1   Cu    Cu3+1 0.499990 0.499980 0.640670 0.952033
Cu2   Cu    Cu3+1 0.500010 0.500020 0.359330 0.951888
H1    H     H_    0.116099 0.616234 0.335187 0.169376
H2    H     H_    0.566806 0.889181 0.818918 0.179196
H3    H     H_    0.400657 0.117476 0.815684 0.195655
H4    H     H_    0.574198 0.113064 0.817079 0.200387
H5    H     H_    0.385420 0.341134 0.130547 0.138543
H6    H     H_    0.383549 0.342592 0.870299 0.127823
H7    H     H_    0.748987 0.553922 0.884738 0.210563
H8    H     H_    0.705358 0.717366 0.860545 0.216907
H9    H     H_    0.747403 0.578819 0.133515 0.162509
H10   H     H_    0.224253 0.303738 0.672308 0.142736
H11   H     H_    0.106060 0.163239 0.820983 0.156844
H12   H     H_    0.877404 0.163508 0.820841 0.150149
H13   H     H_    0.766570 0.303857 0.671726 0.156809
H14   H     H_    0.894089 0.612063 0.329901 0.148588
H15   H     H_    0.492579 0.111647 0.270449 0.170659
H16   H     H_    0.487166 0.887071 0.270983 0.197266
N1    N     N_R   0.500790 0.500930 0.147930 -0.201314
N2    N     N_R   0.500790 0.500890 0.852020 -0.192447
O1    O     O_R   0.500000 0.319640 0.618810 -0.599977
O2    O     O_R   0.500010 0.319680 0.381230 -0.588024
O3    O     O_R   0.319640 0.499980 0.618820 -0.575747
O4    O     O_R   0.319650 0.500020 0.381230 -0.576562
O5    O     O_R   0.499990 0.680320 0.618770 -0.578483
O6    O     O_R   0.500000 0.680360 0.381190 -0.588033
O7    O     O_R   0.680350 0.499980 0.618770 -0.587337
O8    O     O_R   0.680360 0.500020 0.381180 -0.597114
C29   C     C_2   0.694060 0.775472 0.132063 0.921905
O9    O     O_2   0.671303 0.861083 0.054231 -0.587682
O10   O     O_R   0.728746 0.802845 0.269347 -0.742311
H17   H     H_    0.731874 0.727773 0.330935 0.294400
C30   C     C_2   0.362274 0.877085 0.833451 0.907100
O11   O     O_2   0.364556 0.803552 0.929986 -0.612857
O12   O     O_R   0.249099 0.911779 0.776599 -0.769846
H18   H     H_    0.175707 0.869380 0.823961 0.330902

loop_
_geom_bond_atom_site_label_1
_geom_bond_atom_site_label_2
_ccdc_geom_bond_type
C10   H16   S    
C18   N2    A    
C23   O7    A    
Cu1   Cu2   S    
C1    C8    S    
C20   H8    S    
C1    O2    A    
C11   C22   S    
Cu1   O7    S    
C19   C20   S    
C21   H9    S    
C7    C13   A    
Cu2   O8    S    
C7    C15   S    
C17   C18   A    
C26   C27   A    
O10   H17   S    
C22   O6    A    
Cu1   O1    S    
C13   C14   S    
C20   C21   S    
C21   C29   S    
C20   H7    S    
Cu2   O6    S    
C29   O9    D    
C16   C21   S    
Cu1   O5    S    
C16   C19   A    
C5    C6    A    
C9    H15   S    
C16   N1    A    
C17   H5    S    
C12   O4    A    
C5    H14   S    
Cu1   O3    S    
C2    C3    A    
C22   O5    A    
C2    C24   A    
C30   O11   D    
Cu2   O2    S    
C29   O10   S    
C11   C13   A    
C7    C8    A    
C10   C11   A    
C6    C23   S    
Cu1   N2    S    
C3    C4    A    
C4    H1    S    
C27   H13   S    
Cu2   N1    S    
C23   O8    A    
C12   O3    A    
C24   C25   A    
C26   H12   S    
C9    C10   A    
C25   H11   S    
C27   C28   A    
C30   O12   S    
Cu2   O4    S    
C14   C15   S    
C4    C5    A    
C2    C28   A    
C3    C12   S    
C15   H4    S    
C24   H10   S    
C25   C26   A    
C19   N2    A    
C14   C30   S    
C18   H6    S    
C15   H3    S    
C6    C28   A    
O12   H18   S    
C17   N1    A    
C14   H2    S    
C8    C9    A    
C1    O1    A    
