data_mof_unit_60093.cif
_audit_creation_date              2012-12-10T21:37:18-0500
_audit_creation_method            fapswitch 2.2
_symmetry_space_group_name_H-M    P1
_symmetry_Int_Tables_number       1
_space_group_crystal_system       triclinic
_cell_length_a                    16.195412
_cell_length_b                    15.749293
_cell_length_c                    16.572473
_cell_angle_alpha                 91.296917
_cell_angle_beta                  85.255216
_cell_angle_gamma                 90.736102
_cell_volume                      4211.2584758

loop_
_atom_site_label
_atom_site_type_symbol
_atom_type_description
_atom_site_fract_x
_atom_site_fract_y
_atom_site_fract_z
_atom_type_partial_charge
C1    C     C_R   0.512806 0.499758 0.346873 1.044123
C2    C     C_R   0.487194 0.500242 0.653127 1.044116
C3    C     C_R   0.507852 0.575330 0.220052 0.376411
C4    C     C_R   0.492147 0.424670 0.779948 0.376418
C5    C     C_R   0.519394 0.576870 0.135192 0.338726
C6    C     C_R   0.480605 0.423130 0.864808 0.338724
C7    C     C_R   0.543924 0.501597 0.091783 0.020366
C8    C     C_R   0.456075 0.498403 0.908217 0.020366
C9    C     C_R   0.567140 0.429745 0.132306 0.242824
C10   C     C_R   0.432859 0.570255 0.867694 0.242828
C11   C     C_R   0.557127 0.428798 0.216765 0.143650
C12   C     C_R   0.442873 0.571202 0.783235 0.143627
C13   C     C_R   0.232698 0.529350 0.550357 0.382347
C14   C     C_R   0.767299 0.470666 0.449630 0.382339
C15   C     C_R   0.146079 0.520657 0.553496 0.150290
C16   C     C_R   0.853918 0.479359 0.446488 0.150263
C17   C     C_R   0.108918 0.477059 0.490394 0.101592
C18   C     C_R   0.891081 0.522941 0.509598 0.101601
C19   C     C_R   0.161022 0.437054 0.429012 0.224160
C20   C     C_R   0.838981 0.562932 0.570990 0.224159
C21   C     C_R   0.249145 0.440977 0.432080 0.389500
C22   C     C_R   0.750857 0.559009 0.567927 0.389495
C23   C     C_R   0.501175 0.338069 0.499957 0.928990
C24   C     C_R   0.498825 0.661931 0.500043 0.928983
C25   C     C_3   0.544841 0.969866 0.435627 0.391184
C26   C     C_3   0.455158 0.030134 0.564372 0.391183
C27   C     C_3   0.469616 0.027216 0.433721 0.394983
C28   C     C_3   0.530383 0.972784 0.566279 0.394985
C29   C     C_1   0.503746 0.249410 0.500045 -0.075298
C30   C     C_1   0.496254 0.750590 0.499955 -0.075280
C31   C     C_3   0.580864 0.026420 0.502048 -0.409632
C32   C     C_3   0.419135 0.973580 0.497952 -0.409627
C33   C     C_3   0.503811 0.083583 0.500095 -0.026134
C34   C     C_3   0.496188 0.916417 0.499905 -0.026135
C35   C     C_1   0.504624 0.174279 0.500085 0.148880
C36   C     C_1   0.495375 0.825721 0.499915 0.148884
C37   C     C_R   0.525222 0.500724 0.259636 -0.275701
C38   C     C_R   0.474778 0.499276 0.740364 -0.275702
H1    H     H_    0.353856 0.951709 0.496303 0.212968
H2    H     H_    0.646144 0.048291 0.503696 0.212965
N1    N     N_2   0.536387 0.494195 0.008068 -0.100292
N2    N     N_2   0.463612 0.505805 0.991932 -0.100292
N3    N     N_R   0.283080 0.489710 0.490280 -0.191002
N4    N     N_R   0.716920 0.510290 0.509720 -0.190987
N5    N     N_2   0.020592 0.468016 0.488136 -0.025004
N6    N     N_2   0.979407 0.531983 0.511851 -0.025004
O1    O     O_R   0.577460 0.503680 0.387340 -0.619962
O2    O     O_R   0.422540 0.496320 0.612660 -0.620035
O3    O     O_R   0.438150 0.497080 0.381100 -0.536620
O4    O     O_R   0.561850 0.502920 0.618900 -0.536603
O5    O     O_R   0.569640 0.380080 0.503110 -0.647885
O6    O     O_R   0.430360 0.619920 0.496890 -0.647875
O7    O     O_R   0.430330 0.373470 0.496870 -0.567409
O8    O     O_R   0.569670 0.626530 0.503130 -0.567422
Zn1   Zn    Zn3+2 0.593020 0.504410 0.504170 1.056145
Zn2   Zn    Zn3+2 0.406980 0.495590 0.495830 1.056132
O9    O     O_3   0.439937 0.058329 0.363403 -0.687248
H3    H     H_    0.421942 0.007452 0.332914 0.365042
O10   O     O_3   0.560063 0.941672 0.636597 -0.687248
H4    H     H_    0.578055 0.992549 0.667087 0.365042
O11   O     O_3   0.124072 0.395842 0.366769 -0.664578
H5    H     H_    0.163234 0.395791 0.317623 0.361399
O12   O     O_3   0.875934 0.604129 0.633240 -0.664572
H6    H     H_    0.836775 0.604167 0.682388 0.361399
O13   O     O_3   0.302054 0.394638 0.379133 -0.691418
H7    H     H_    0.272336 0.343412 0.360614 0.348172
O14   O     O_3   0.697950 0.605338 0.620886 -0.691422
H8    H     H_    0.727670 0.656559 0.639413 0.348174
O15   O     O_3   0.589882 0.935680 0.367196 -0.696560
H9    H     H_    0.614466 0.985235 0.337784 0.371275
O16   O     O_3   0.410118 0.064320 0.632804 -0.696562
H10   H     H_    0.385534 0.014765 0.662216 0.371276
O17   O     O_3   0.519380 0.354654 0.733624 -0.736372
H11   H     H_    0.530317 0.307107 0.769142 0.405558
O18   O     O_3   0.480620 0.645346 0.266376 -0.736372
H12   H     H_    0.469683 0.692892 0.230857 0.405559
O19   O     O_3   0.494652 0.348617 0.903694 -0.699139
H13   H     H_    0.467466 0.351788 0.959441 0.381593
O20   O     O_3   0.505347 0.651382 0.096306 -0.699137
H14   H     H_    0.532534 0.648211 0.040559 0.381593
Br1   Br    Br    0.607610 0.331415 0.070914 -0.271777
Br2   Br    Br    0.392389 0.668586 0.929086 -0.271774
Br3   Br    Br    0.581112 0.327329 0.273246 -0.353648
Br4   Br    Br    0.418888 0.672671 0.726754 -0.353641
O21   O     O_3   0.735057 0.423637 0.388641 -0.657514
H15   H     H_    0.680143 0.402897 0.409139 0.388888
O22   O     O_3   0.264933 0.576400 0.611337 -0.657540
H16   H     H_    0.319873 0.597084 0.590863 0.388923
Br5   Br    Br    0.917353 0.434503 0.351715 -0.235851
Br6   Br    Br    0.082641 0.565533 0.648260 -0.235827

loop_
_geom_bond_atom_site_label_1
_geom_bond_atom_site_label_2
_ccdc_geom_bond_type
C24   O6    A    
O22   H16   S    
C25   C31   S    
N1    N2    D    
C8    N2    S    
N5    N6    D    
C27   C33   S    
C26   C32   S    
C23   C29   S    
C14   N4    A    
C19   C21   A    
C17   N5    S    
O21   H15   S    
C28   O10   S    
C24   O8    A    
C31   H2    S    
C12   Br4   S    
C15   C17   A    
O17   H11   S    
C32   H1    S    
C11   C37   A    
C2    O4    A    
C33   C35   S    
C21   N3    A    
C22   N4    A    
C31   C33   S    
C5    O20   S    
C3    O18   S    
C18   C20   A    
C1    C37   S    
C25   C34   S    
C28   C34   S    
C16   Br5   S    
C26   O16   S    
O15   H9    S    
C18   N6    S    
C23   O7    A    
O14   H8    S    
C4    C6    A    
C27   O9    S    
C5    C7    A    
C1    O1    A    
C6    O19   S    
C6    C8    A    
C2    O2    A    
O19   H13   S    
C10   Br2   S    
O20   H14   S    
C32   C34   S    
O18   H12   S    
C2    C38   S    
C26   C33   S    
C23   O5    A    
C13   O22   S    
C9    C11   A    
C4    O17   S    
C10   C12   A    
C16   C18   A    
C20   C22   A    
C13   C15   A    
C14   C16   A    
C25   O15   S    
C13   N3    A    
O1    Zn1   S    
O7    Zn2   S    
O2    Zn2   S    
O8    Zn1   S    
C21   O13   S    
C27   C32   S    
C28   C31   S    
C14   O21   S    
C4    C38   A    
C3    C5    A    
C25   C27   S    
O3    Zn2   S    
C29   C35   T    
C26   C28   S    
O4    Zn1   S    
C30   C36   T    
C11   Br3   S    
C20   O12   S    
O16   H10   S    
C15   Br6   S    
N4    Zn1   S    
O9    H3    S    
C19   O11   S    
C17   C19   A    
C34   C36   S    
O5    Zn1   S    
C7    N1    S    
C12   C38   A    
O11   H5    S    
C24   C30   S    
C22   O14   S    
O12   H6    S    
C7    C9    A    
N3    Zn2   S    
O10   H4    S    
C3    C37   A    
C8    C10   A    
O13   H7    S    
C1    O3    A    
O6    Zn2   S    
C9    Br1   S    
