data_mof_unit_31333.cif
_audit_creation_date              2012-12-10T18:06:47-0500
_audit_creation_method            fapswitch 2.2
_symmetry_space_group_name_H-M    P1
_symmetry_Int_Tables_number       1
_space_group_crystal_system       triclinic
_cell_length_a                    12.617511
_cell_length_b                    13.036416
_cell_length_c                    15.593435
_cell_angle_alpha                 83.395007
_cell_angle_beta                  98.917767
_cell_angle_gamma                 98.080207
_cell_volume                      2497.33448395

loop_
_atom_site_label
_atom_site_type_symbol
_atom_type_description
_atom_site_fract_x
_atom_site_fract_y
_atom_site_fract_z
_atom_type_partial_charge
C1    C     C_R   0.441645 0.307181 0.509761 0.894384
C2    C     C_R   0.662334 0.450369 0.938731 0.039256
C3    C     C_R   0.559843 0.479013 0.902413 0.126974
C4    C     C_R   0.436947 0.516675 0.336363 0.965900
C5    C     C_R   0.727059 0.413579 0.885190 -0.076642
C6    C     C_R   0.693774 0.417290 0.794105 -0.109045
C7    C     C_R   0.536681 0.496531 0.812525 -0.160778
C8    C     C_R   0.634120 0.947791 0.363331 -0.180062
C9    C     C_R   0.588697 0.803514 0.469163 -0.244007
C10   C     C_R   0.330016 0.149097 0.577223 0.160411
C11   C     C_R   0.319496 0.040498 0.597080 -0.097979
C12   C     C_R   0.451627 0.536361 0.097488 0.087474
C13   C     C_R   0.383961 0.980561 0.564702 -0.163695
C14   C     C_R   0.455812 0.025932 0.506379 0.136984
C15   C     C_R   0.447601 0.129097 0.470369 -0.028595
C16   C     C_R   0.556810 0.692175 0.488047 0.940732
C17   C     C_R   0.528335 0.968924 0.476928 0.054712
C18   C     C_R   0.572944 0.007875 0.399975 0.100773
C19   C     C_R   0.548775 0.102522 0.356019 -0.197949
C20   C     C_R   0.483566 0.162334 0.388478 -0.138950
C21   C     C_R   0.554557 0.872251 0.519098 -0.108677
C22   C     C_R   0.636768 0.843416 0.393752 -0.075815
C23   C     C_R   0.346970 0.561317 0.061309 0.043927
C24   C     C_R   0.401976 0.194520 0.516891 -0.179218
C25   C     C_R   0.145172 0.618863 0.643248 -0.110158
C26   C     C_R   0.757338 0.371124 0.403959 0.015367
C27   C     C_R   0.851745 0.329458 0.398859 -0.065477
C28   C     C_R   0.563712 0.483170 0.663693 0.909453
C29   C     C_R   0.947662 0.372802 0.445544 -0.217273
C30   C     C_R   0.951053 0.463051 0.488676 -0.000337
C31   C     C_R   0.853031 0.493884 0.499397 0.185136
C32   C     C_R   0.048085 0.519046 0.525616 -0.084444
C33   C     C_R   0.046413 0.587491 0.590310 0.054691
C34   C     C_R   0.526361 0.518082 0.043415 0.006669
C35   C     C_R   0.946620 0.622563 0.596575 0.160876
C36   C     C_R   0.851674 0.570791 0.554535 -0.176798
C37   C     C_R   0.146965 0.513456 0.497071 0.041808
C38   C     C_R   0.241132 0.600043 0.617473 -0.036125
C39   C     C_R   0.404650 0.536930 0.242420 -0.061283
C40   C     C_R   0.600363 0.465295 0.757718 -0.141131
C41   C     C_R   0.278739 0.590538 0.116641 -0.012452
C42   C     C_R   0.310142 0.579742 0.207170 -0.224264
C43   C     C_R   0.474446 0.517325 0.187395 -0.077783
C44   C     C_2   0.825580 0.365912 0.924115 0.956320
C45   C     C_R   0.486145 0.498939 0.956390 0.016884
C46   C     C_2   0.685798 0.779407 0.342143 0.961827
C47   C     C_2   0.565924 0.850849 0.616413 0.886949
C48   C     C_3   0.265403 0.215878 0.618623 -0.368781
C49   C     C_3   0.187067 0.157889 0.678802 -0.870200
C50   C     C_2   0.439682 0.247733 0.327625 0.935257
C51   C     C_3   0.937484 0.721829 0.636664 -0.386642
C52   C     C_3   0.879311 0.799739 0.571524 -0.827883
C53   C     C_2   0.151316 0.653626 0.731538 0.926678
C54   C     C_2   0.150871 0.484661 0.409005 0.924775
C55   C     C_2   0.850874 0.241162 0.346676 0.954718
C56   C     C_R   0.373559 0.499733 0.926291 -0.061368
C57   C     C_2   0.757695 0.372026 0.738886 0.965336
C58   C     C_2   0.175198 0.632591 0.084087 0.925684
C59   C     C_2   0.315315 0.433619 0.857711 0.906519
C60   C     C_2   0.699462 0.569752 0.147011 0.914402
C61   C     C_R   0.310705 0.545749 0.973777 -0.203199
C62   C     C_R   0.638707 0.513091 0.073923 -0.059143
C63   C     C_R   0.700147 0.466700 0.025786 -0.206985
H1    H     H_    0.228431 0.554293 0.945858 0.227788
H2    H     H_    0.777334 0.592783 0.565601 0.212072
H3    H     H_    0.782529 0.456036 0.053089 0.213189
H4    H     H_    0.259021 0.601431 0.249973 0.215355
H5    H     H_    0.545057 0.480923 0.215187 0.190087
H6    H     H_    0.980894 0.387176 0.980254 0.382643
H7    H     H_    0.814912 0.763150 0.285360 0.366787
H8    H     H_    0.592905 0.910477 0.732917 0.365199
H9    H     H_    0.125734 0.102685 0.642770 0.269182
H10   H     H_    0.231721 0.115849 0.736081 0.276163
H11   H     H_    0.143750 0.214834 0.702950 0.272314
H12   H     H_    0.574763 0.126358 0.292861 0.220921
H13   H     H_    0.322828 0.271808 0.657004 0.223912
H14   H     H_    0.215952 0.260080 0.565664 0.252382
H15   H     H_    0.287628 0.214170 0.358555 0.323085
H16   H     H_    0.916101 0.813461 0.510275 0.285696
H17   H     H_    0.792272 0.771282 0.556523 0.255358
H18   H     H_    0.886055 0.875014 0.600076 0.265532
H19   H     H_    0.893264 0.701803 0.693870 0.251554
H20   H     H_    0.017282 0.764735 0.658077 0.211251
H21   H     H_    0.082963 0.645129 0.841305 0.359521
H22   H     H_    0.184245 0.380456 0.334903 0.376504
H23   H     H_    0.669310 0.978642 0.304953 0.190007
H24   H     H_    0.931937 0.131049 0.315341 0.365012
H25   H     H_    0.902494 0.370863 0.699580 0.349502
H26   H     H_    0.027413 0.614703 0.012905 0.375553
H27   H     H_    0.305813 0.301145 0.800479 0.348056
H28   H     H_    0.817894 0.572215 0.250172 0.355857
H29   H     H_    0.373866 0.897675 0.583454 0.148732
H30   H     H_    0.264915 0.000643 0.640542 0.168352
H31   H     H_    0.318117 0.621812 0.656338 0.186992
H32   H     H_    0.468605 0.537507 0.784813 0.162183
H33   H     H_    0.680455 0.337648 0.371717 0.189616
H34   H     H_    0.018515 0.334030 0.449706 0.201585
N1    N     N_R   0.239390 0.551900 0.544730 -0.156753
N2    N     N_R   0.759950 0.448600 0.455730 -0.136032
O1    O     O_R   0.374950 0.371210 0.521360 -0.593922
O2    O     O_R   0.918823 0.428728 0.956366 -0.752195
O3    O     O_2   0.634375 0.700396 0.314916 -0.592499
O4    O     O_R   0.789625 0.812792 0.321085 -0.787630
O5    O     O_2   0.563167 0.761833 0.651487 -0.644461
O6    O     O_R   0.585457 0.934139 0.668253 -0.762672
O7    O     O_2   0.495392 0.297013 0.275918 -0.609559
O8    O     O_R   0.333095 0.268182 0.323170 -0.781501
O9    O     O_2   0.229291 0.712629 0.760821 -0.642604
O10   O     O_R   0.069750 0.615821 0.782589 -0.733474
O11   O     O_2   0.109983 0.536768 0.345449 -0.622798
O12   O     O_R   0.542050 0.338030 0.492790 -0.595051
O13   O     O_R   0.192916 0.394158 0.398441 -0.776948
O14   O     O_2   0.770775 0.214008 0.295716 -0.632146
O15   O     O_R   0.942493 0.189709 0.354457 -0.790611
O16   O     O_2   0.714265 0.303159 0.693450 -0.584182
O17   O     O_R   0.867814 0.407131 0.740151 -0.756783
O18   O     O_2   0.158804 0.713799 0.109006 -0.578136
O19   O     O_R   0.094288 0.577763 0.029273 -0.788624
O20   O     O_2   0.229957 0.455216 0.815647 -0.610538
O21   O     O_R   0.355155 0.342439 0.845280 -0.783011
O22   O     O_2   0.678436 0.655992 0.156723 -0.580138
O23   O     O_R   0.368720 0.526070 0.390200 -0.606002
O24   O     O_R   0.782863 0.526189 0.202774 -0.777263
O25   O     O_R   0.535820 0.492890 0.361630 -0.585866
O26   O     O_R   0.457950 0.661970 0.507210 -0.586526
O27   O     O_R   0.625050 0.628790 0.478640 -0.635386
O28   O     O_R   0.464180 0.507110 0.638370 -0.615200
O29   O     O_R   0.631280 0.473930 0.609800 -0.623943
O30   O     O_2   0.825392 0.271871 0.926062 -0.575475
Zn1   Zn    Zn3+2 0.388420 0.522150 0.519080 0.992028
Zn2   Zn    Zn3+2 0.611580 0.477850 0.480920 1.000217

loop_
_geom_bond_atom_site_label_1
_geom_bond_atom_site_label_2
_ccdc_geom_bond_type
C30   C32   A    
C59   O21   S    
C27   C29   A    
C41   C42   A    
C48   H13   S    
C19   C20   A    
C6    C57   S    
C58   O19   S    
C38   N1    A    
H22   O13   S    
C57   O16   D    
C46   O3    D    
C12   C23   A    
C54   O11   D    
C26   C27   A    
C29   C30   A    
C9    C16   S    
C25   C53   S    
C41   C58   S    
C12   C43   A    
C3    C7    A    
C31   C36   A    
C5    C6    A    
O1    Zn1   S    
C9    C22   A    
C42   H4    S    
C28   C40   S    
C34   C62   A    
C4    O25   A    
C60   C62   S    
C18   C19   A    
H24   O15   S    
C20   C50   S    
O26   Zn1   S    
C35   C36   A    
C45   C56   A    
C43   H5    S    
C47   O6    S    
C49   H9    S    
C8    C22   A    
C7    C40   A    
C31   N2    A    
C39   C42   A    
C52   H16   S    
C16   O26   A    
C8    H23   S    
C28   O28   A    
C26   N2    A    
C11   H30   S    
C63   H3    S    
C49   H11   S    
H28   O24   S    
C13   C14   A    
C14   C17   A    
C38   H31   S    
C52   H18   S    
C1    O1    A    
C37   N1    A    
C57   O17   S    
C26   H33   S    
C15   C20   A    
C54   O13   S    
C51   C52   S    
H7    O4    S    
C36   H2    S    
C39   C43   A    
C55   O14   D    
C10   C24   A    
C44   O30   D    
N2    Zn2   S    
C3    C45   A    
C58   O18   D    
C8    C18   A    
O25   Zn2   S    
H15   O8    S    
H27   O21   S    
C48   H14   S    
H25   O17   S    
C60   O24   S    
C62   C63   A    
C25   C38   A    
C4    C39   S    
N1    Zn1   S    
C17   C18   A    
C4    O23   A    
C34   C45   A    
C32   C37   A    
C51   H19   S    
C37   C54   S    
O12   Zn2   S    
C48   C49   S    
C22   C46   S    
C5    C44   S    
H8    O6    S    
C13   H29   S    
C35   C51   S    
C50   O8    S    
C49   H10   S    
C2    C5    A    
C12   C34   A    
O29   Zn2   S    
C51   H20   S    
C2    C63   A    
C53   O10   S    
C15   C24   A    
C59   O20   D    
C47   O5    D    
C14   C15   A    
C44   O2    S    
C55   O15   S    
H6    O2    S    
C7    H32   S    
C46   O4    S    
C27   C55   S    
H21   O10   S    
C23   C41   A    
C56   C59   S    
C29   H34   S    
C32   C33   A    
C19   H12   S    
C2    C3    A    
O28   Zn1   S    
C1    O12   A    
C61   H1    S    
C10   C48   S    
C11   C13   A    
C53   O9    D    
C9    C21   A    
C30   C31   A    
O27   Zn2   S    
C33   C35   A    
C6    C40   A    
C60   O22   D    
C17   C21   A    
C10   C11   A    
C23   C61   A    
H26   O19   S    
C1    C24   S    
C50   O7    D    
C56   C61   A    
C52   H17   S    
C16   O27   A    
O23   Zn1   S    
C28   O29   A    
C25   C33   A    
C21   C47   S    
