data_mof_unit_5441.cif
_audit_creation_date              2012-12-10T17:07:13-0500
_audit_creation_method            fapswitch 2.2
_symmetry_space_group_name_H-M    P1
_symmetry_Int_Tables_number       1
_space_group_crystal_system       triclinic
_cell_length_a                    17.247063
_cell_length_b                    11.032915
_cell_length_c                    9.854445
_cell_angle_alpha                 111.677367
_cell_angle_beta                  94.136113
_cell_angle_gamma                 92.010556
_cell_volume                      1734.14620588

loop_
_atom_site_label
_atom_site_type_symbol
_atom_type_description
_atom_site_fract_x
_atom_site_fract_y
_atom_site_fract_z
_atom_type_partial_charge
C1    C     C_R   0.494132 0.253945 0.440868 0.838566
C2    C     C_R   0.505569 0.746049 0.559173 0.875437
C3    C     C_2   0.490638 0.114011 0.407489 -0.359599
C4    C     C_2   0.508367 0.885961 0.592636 -0.348168
C5    C     C_2   0.500376 0.069667 0.516096 -0.151632
C6    C     C_2   0.497509 0.930280 0.484192 -0.137433
C7    C     C_2   0.509474 0.503967 0.078265 0.088053
C8    C     C_2   0.492275 0.492486 0.920562 0.090754
C9    C     C_R   0.352154 0.503078 0.520082 0.868102
C10   C     C_R   0.648337 0.497751 0.479937 0.845006
C11   C     C_R   0.268962 0.502207 0.532807 -0.167617
C12   C     C_R   0.732165 0.496616 0.464327 -0.181889
C13   C     C_R   0.223701 0.587315 0.489703 0.343806
C14   C     C_R   0.786443 0.573945 0.580620 0.353273
C15   C     C_R   0.143097 0.584731 0.503435 0.434667
C16   C     C_R   0.865583 0.579747 0.556532 0.443117
C17   C     C_R   0.107572 0.484027 0.538617 -0.038759
C18   C     C_R   0.891881 0.488345 0.428530 -0.054628
C19   C     C_R   0.153955 0.401587 0.583495 -0.239816
C20   C     C_R   0.837635 0.411417 0.313858 -0.260093
C21   C     C_R   0.234357 0.412094 0.582866 -0.286730
C22   C     C_R   0.758321 0.418129 0.330260 -0.274107
C23   C     C_2   0.022196 0.465087 0.532494 0.382495
C24   C     C_2   0.975679 0.468622 0.416318 0.379827
Cu1   Cu    Cu3+1 0.513640 0.521550 0.643210 0.972937
Cu2   Cu    Cu3+1 0.486360 0.478450 0.356790 0.964134
H1    H     H_    0.717403 0.357504 0.239955 0.180846
H2    H     H_    0.269423 0.346315 0.615834 0.169619
H3    H     H_    0.128007 0.327215 0.616474 0.174460
H4    H     H_    0.856338 0.343678 0.212752 0.167356
H5    H     H_    0.486579 0.863449 0.370504 0.180480
H6    H     H_    0.510813 0.136489 0.629865 0.180083
H7    H     H_    0.519315 0.953006 0.706149 0.134882
H8    H     H_    0.480189 0.046971 0.293890 0.139513
H9    H     H_    0.441539 0.432246 0.856380 0.136396
H10   H     H_    0.561762 0.560082 0.140902 0.140099
N1    N     N_2   0.465840 0.446060 0.141630 -0.008713
N2    N     N_2   0.534160 0.553940 0.858370 -0.007748
O1    O     O_R   0.507280 0.332200 0.576490 -0.591729
O2    O     O_R   0.492720 0.667800 0.423510 -0.578185
O3    O     O_R   0.484240 0.295800 0.334620 -0.606049
O4    O     O_R   0.515760 0.704200 0.665380 -0.605037
O5    O     O_R   0.399260 0.520290 0.634950 -0.603020
O6    O     O_R   0.600740 0.479710 0.365050 -0.612382
O7    O     O_R   0.376220 0.483890 0.393080 -0.553419
O8    O     O_R   0.623780 0.516110 0.606920 -0.525867
O9    O     O_3   0.259631 0.680986 0.448504 -0.584430
C25   C     C_3   0.244690 0.645042 0.295566 -0.236106
H11   H     H_    0.182115 0.650374 0.263867 0.191406
H12   H     H_    0.263798 0.545727 0.234281 0.180283
H13   H     H_    0.278564 0.714947 0.261996 0.182652
O10   O     O_3   0.761988 0.650396 0.714502 -0.593433
C26   C     C_3   0.782623 0.592536 0.817077 -0.213944
H14   H     H_    0.846608 0.585390 0.831819 0.190505
H15   H     H_    0.751990 0.494178 0.785079 0.169229
H16   H     H_    0.764717 0.654933 0.925349 0.189480
O11   O     O_3   0.006641 0.464616 0.288457 -0.586210
C27   C     C_3   0.026471 0.336063 0.206193 0.011408
H17   H     H_    0.976757 0.284361 0.124640 0.150286
H18   H     H_    0.040543 0.276703 0.274122 0.105484
C28   C     C_3   0.097360 0.343546 0.124395 -0.287001
H19   H     H_    0.085374 0.403862 0.057462 0.226232
H20   H     H_    0.148057 0.390938 0.205130 0.203167
C29   C     C_3   0.117932 0.207986 0.024724 -0.958913
H21   H     H_    0.132876 0.147870 0.090615 0.259463
H22   H     H_    0.169042 0.217374 0.966079 0.255029
H23   H     H_    0.068266 0.157805 0.942360 0.258227
O12   O     O_3   0.991534 0.450849 0.652847 -0.592287
C30   C     C_3   0.958306 0.322029 0.613766 -0.010511
H24   H     H_    0.993089 0.247584 0.537079 0.117133
H25   H     H_    0.898104 0.313714 0.561224 0.146394
C31   C     C_3   0.954638 0.292279 0.752850 -0.278030
H26   H     H_    0.014457 0.302671 0.807480 0.223794
H27   H     H_    0.918668 0.363585 0.829394 0.220736
C32   C     C_3   0.919810 0.154009 0.718763 -0.977757
H28   H     H_    0.859611 0.141526 0.665058 0.262933
H29   H     H_    0.917749 0.136173 0.822261 0.249705
H30   H     H_    0.956159 0.080965 0.645538 0.251624
O13   O     O_3   0.917841 0.669564 0.661944 -0.546926
C33   C     C_3   0.910732 0.792613 0.650853 -0.290068
H31   H     H_    0.851654 0.828221 0.673049 0.186342
H32   H     H_    0.924968 0.789745 0.541330 0.168667
H33   H     H_    0.952739 0.864680 0.734909 0.172466
O14   O     O_3   0.098861 0.677860 0.478448 -0.547190
C34   C     C_3   0.108007 0.792989 0.605521 -0.274170
H34   H     H_    0.169254 0.835215 0.629534 0.184070
H35   H     H_    0.088293 0.775124 0.702054 0.174906
H36   H     H_    0.071491 0.867065 0.586750 0.167913
O15   O     O_3   0.602536 0.611186 0.934142 -0.527085
C35   C     C_3   0.608294 0.740002 0.938695 -0.124175
H37   H     H_    0.551802 0.787094 0.956094 0.129857
H38   H     H_    0.632070 0.742740 0.838357 0.219360
H39   H     H_    0.650149 0.798882 0.032939 0.115445
O16   O     O_3   0.394730 0.399831 0.070682 -0.524569
C36   C     C_3   0.380281 0.273634 0.070559 -0.142015
H40   H     H_    0.358318 0.277963 0.174992 0.182062
H41   H     H_    0.432413 0.214923 0.047011 0.136498
H42   H     H_    0.333749 0.221736 0.982047 0.120776

loop_
_geom_bond_atom_site_label_1
_geom_bond_atom_site_label_2
_ccdc_geom_bond_type
C9    O7    A    
C28   C29   S    
C7    H10   S    
C36   H40   S    
Cu1   O5    S    
C35   H37   S    
C36   H42   S    
Cu2   O6    S    
C7    C8    S    
C20   H4    S    
C26   H14   S    
N2    O15   S    
C17   C23   S    
C18   C24   S    
C19   C21   A    
C33   H33   S    
C5    C6    S    
C26   H16   S    
C27   H18   S    
C12   C22   A    
C30   H25   S    
C28   H20   S    
Cu2   O7    S    
C25   H13   S    
C14   O10   S    
O12   C30   S    
C10   O8    A    
C23   C24   D    
C5    H6    S    
C27   C28   S    
C25   H12   S    
C6    H5    S    
C30   H24   S    
C8    N2    D    
C31   C32   S    
C26   H15   S    
C9    O5    A    
C34   H35   S    
C10   O6    A    
C29   H23   S    
O14   C34   S    
C31   H27   S    
C13   O9    S    
C31   H26   S    
C3    H8    S    
Cu1   Cu2   S    
C34   H34   S    
C11   C21   A    
C1    C3    S    
C8    H9    S    
C29   H22   S    
C23   O12   S    
C30   C31   S    
C2    C4    S    
C32   H28   S    
Cu1   N2    S    
C32   H29   S    
C35   H38   S    
O9    C25   S    
C7    N1    D    
O16   C36   S    
C9    C11   S    
C10   C12   S    
C4    C6    D    
C25   H11   S    
C21   H2    S    
C12   C14   A    
C22   H1    S    
C13   C15   A    
C14   C16   A    
C19   H3    S    
O10   C26   S    
C35   H39   S    
C24   O11   S    
C34   H36   S    
C1    O3    A    
C15   C17   A    
C4    H7    S    
C20   C22   A    
C33   H31   S    
C3    C5    D    
Cu1   O4    S    
C36   H41   S    
Cu2   N1    S    
C15   O14   S    
C16   O13   S    
C29   H21   S    
C27   H17   S    
Cu1   O1    S    
C11   C13   A    
Cu2   O2    S    
O11   C27   S    
C2    O4    A    
C17   C19   A    
C33   H32   S    
N1    O16   S    
C18   C20   A    
C28   H19   S    
C32   H30   S    
C1    O1    A    
O13   C33   S    
C2    O2    A    
C16   C18   A    
O15   C35   S    
Cu1   O8    S    
Cu2   O3    S    
