data_mof_unit_23986.cif
_audit_creation_date              2013-03-05T15:45:23-0500
_audit_creation_method            fapswitch 2.2
_symmetry_space_group_name_H-M    P1
_symmetry_Int_Tables_number       1
_space_group_crystal_system       triclinic
_cell_length_a                    29.944533
_cell_length_b                    17.139656
_cell_length_c                    19.404392
_cell_angle_alpha                 89.91252
_cell_angle_beta                  140.2988
_cell_angle_gamma                 90.092218
_cell_volume                      6361.69818764

loop_
_atom_site_label
_atom_site_type_symbol
_atom_site_description
_atom_site_fract_x
_atom_site_fract_y
_atom_site_fract_z
_atom_type_partial_charge
C1    C     C_R   0.187083 0.400579 0.803095 0.560793
C2    C     C_R   0.810658 0.602559 0.205031 0.467821
C3    C     C_R   0.812700 0.398944 0.196732 0.480946
C4    C     C_R   0.183705 0.591027 0.808955 0.489043
C5    C     C_R   0.687086 0.900559 0.803083 0.560516
C6    C     C_R   0.310657 0.102568 0.205052 0.467616
C7    C     C_R   0.312699 0.898938 0.196739 0.480868
C8    C     C_R   0.683702 0.091030 0.808956 0.489011
N1    N     N_R   0.127770 0.430660 0.707120 -0.135377
N2    N     N_R   0.872230 0.569340 0.292880 -0.123565
N3    N     N_R   0.872230 0.430660 0.292880 -0.117602
N4    N     N_R   0.127770 0.569340 0.707120 -0.122525
N5    N     N_R   0.627770 0.930660 0.707120 -0.135446
N6    N     N_R   0.372230 0.069340 0.292880 -0.123589
N7    N     N_R   0.372230 0.930660 0.292880 -0.117607
N8    N     N_R   0.627770 0.069340 0.707120 -0.122547
C9    C     C_R   0.843462 0.602124 0.443640 0.528371
C10   C     C_R   0.157308 0.396294 0.559087 0.559486
C11   C     C_R   0.158631 0.603774 0.562116 0.533326
C12   C     C_R   0.841304 0.396201 0.437676 0.574711
C13   C     C_R   0.343501 0.102084 0.443741 0.528441
C14   C     C_R   0.657301 0.896307 0.559064 0.559442
C15   C     C_R   0.658636 0.103778 0.562129 0.533326
C16   C     C_R   0.341296 0.896190 0.437651 0.574785
N9    N     N_R   0.889730 0.573880 0.452970 -0.107226
N10   N     N_R   0.110270 0.426120 0.547030 -0.113599
N11   N     N_R   0.110270 0.573880 0.547030 -0.105559
N12   N     N_R   0.889730 0.426120 0.452970 -0.115964
N13   N     N_R   0.389730 0.073880 0.452970 -0.107209
N14   N     N_R   0.610270 0.926120 0.547030 -0.113573
N15   N     N_R   0.610270 0.073880 0.547030 -0.105550
N16   N     N_R   0.389730 0.926120 0.452970 -0.115968
C17   C     C_R   0.931287 0.315176 0.541228 -0.136264
C18   C     C_R   0.071494 0.688123 0.466163 -0.083870
C19   C     C_R   0.066160 0.316327 0.454546 -0.093295
C20   C     C_R   0.928747 0.687886 0.534211 -0.143199
C21   C     C_R   0.431285 0.815172 0.541221 -0.136580
C22   C     C_R   0.571498 0.188127 0.466173 -0.083877
C23   C     C_R   0.566157 0.816335 0.454533 -0.093227
C24   C     C_R   0.428784 0.187850 0.534305 -0.143648
H1    H     H_    0.962082 0.263277 0.583172 0.209859
H2    H     H_    0.043260 0.742278 0.431839 0.208901
H3    H     H_    0.033061 0.265785 0.409705 0.187143
H4    H     H_    0.953723 0.743765 0.561316 0.219510
H5    H     H_    0.462090 0.763279 0.583182 0.209810
H6    H     H_    0.543265 0.242282 0.431853 0.208871
H7    H     H_    0.533062 0.765791 0.409694 0.187159
H8    H     H_    0.453769 0.243726 0.561443 0.219491
N17   N     N_R   0.941150 0.372910 0.507880 -0.076123
N18   N     N_R   0.058850 0.627090 0.492120 -0.083176
N19   N     N_R   0.058850 0.372910 0.492120 -0.077857
N20   N     N_R   0.941150 0.627090 0.507880 -0.086407
N21   N     N_R   0.441150 0.872910 0.507880 -0.076106
N22   N     N_R   0.558850 0.127090 0.492120 -0.083160
N23   N     N_R   0.558850 0.872910 0.492120 -0.077824
N24   N     N_R   0.441150 0.127090 0.507880 -0.086377
C25   C     C_R   0.099881 0.681283 0.727717 0.357821
C26   C     C_R   0.891451 0.302301 0.295911 0.400948
C27   C     C_R   0.891418 0.696132 0.288920 0.422751
C28   C     C_R   0.105951 0.306044 0.715353 0.356056
C29   C     C_R   0.599881 0.181291 0.727708 0.357718
C30   C     C_R   0.391457 0.802302 0.295901 0.400972
C31   C     C_R   0.391421 0.196130 0.288915 0.422791
C32   C     C_R   0.605962 0.806019 0.715307 0.355309
N25   N     N_R   0.076340 0.631640 0.652210 -0.109240
N26   N     N_R   0.923660 0.368360 0.347790 -0.100195
N27   N     N_R   0.923660 0.631640 0.347790 -0.121641
N28   N     N_R   0.076340 0.368360 0.652210 -0.108061
N29   N     N_R   0.576340 0.131640 0.652210 -0.109239
N30   N     N_R   0.423660 0.868360 0.347790 -0.100206
N31   N     N_R   0.423660 0.131640 0.347790 -0.121653
N32   N     N_R   0.576340 0.868360 0.652210 -0.108119
C33   C     C_R   0.173205 0.326422 0.810172 -0.163973
C34   C     C_R   0.822102 0.678510 0.198817 -0.325436
C35   C     C_R   0.823982 0.319789 0.199139 -0.175904
C36   C     C_R   0.161639 0.649597 0.826651 -0.174763
C37   C     C_R   0.673222 0.826372 0.810122 -0.163954
C38   C     C_R   0.322103 0.178510 0.198830 -0.324839
C39   C     C_R   0.323988 0.819790 0.199130 -0.175910
C40   C     C_R   0.661634 0.149605 0.826645 -0.174746
C41   C     C_R   0.868777 0.672018 0.497588 -0.072179
C42   C     C_R   0.127733 0.330817 0.494834 -0.082587
C43   C     C_R   0.133757 0.673886 0.508694 -0.083664
C44   C     C_R   0.869371 0.329993 0.499622 -0.086077
C45   C     C_R   0.368842 0.171955 0.497752 -0.072070
C46   C     C_R   0.627724 0.830836 0.494801 -0.082642
C47   C     C_R   0.633764 0.173892 0.508711 -0.083681
C48   C     C_R   0.369361 0.829980 0.499593 -0.086017
Ni1   Ni    Ni4+2 0.119340 0.500000 0.625930 0.353696
Ni2   Ni    Ni4+2 0.880660 0.500000 0.374070 0.328009
Ni3   Ni    Ni4+2 0.619340 0.000000 0.625930 0.353678
Ni4   Ni    Ni4+2 0.380660 0.000000 0.374070 0.328042
Ni5   Ni    Ni4+2 0.000000 0.373980 0.500000 0.294370
Ni6   Ni    Ni4+2 0.000000 0.626020 0.500000 0.272069
Ni7   Ni    Ni4+2 0.500000 0.873980 0.500000 0.294357
Ni8   Ni    Ni4+2 0.500000 0.126020 0.500000 0.272095
C49   C     C_R   0.768756 0.156214 0.022833 -0.185045
C50   C     C_R   0.207121 0.759568 0.040293 -0.102778
C51   C     C_R   0.231051 0.269676 0.054577 -0.083249
C52   C     C_R   0.761913 0.732006 0.951054 -0.064641
C53   C     C_R   0.268777 0.656229 0.022828 -0.185094
C54   C     C_R   0.707105 0.259600 0.040267 -0.102859
C55   C     C_R   0.730870 0.769499 0.054349 -0.084088
C56   C     C_R   0.261801 0.231942 0.950953 -0.064686
C57   C     C_R   0.809043 0.217153 0.093852 -0.146720
C58   C     C_R   0.163969 0.714350 0.945684 -0.136314
C59   C     C_R   0.195484 0.307714 0.959193 -0.108945
C60   C     C_R   0.797722 0.694604 0.046908 -0.147222
C61   C     C_R   0.309050 0.717180 0.093827 -0.146750
C62   C     C_R   0.663952 0.214385 0.945655 -0.136212
C63   C     C_R   0.695320 0.807509 0.958941 -0.108604
C64   C     C_R   0.297597 0.194489 0.046776 -0.147565
C65   C     C_R   0.778912 0.266599 0.108252 0.209810
C66   C     C_R   0.196979 0.669951 0.933075 0.135636
C67   C     C_R   0.212638 0.289490 0.910251 0.122793
C68   C     C_R   0.781415 0.713776 0.096793 0.126836
C69   C     C_R   0.278919 0.766601 0.108245 0.209799
C70   C     C_R   0.696964 0.169963 0.933063 0.135661
C71   C     C_R   0.712628 0.789426 0.910191 0.122367
C72   C     C_R   0.281412 0.213767 0.096804 0.126925
C73   C     C_R   0.160082 0.283435 0.480943 -0.129878
C74   C     C_R   0.829961 0.723530 0.495765 -0.103322
C75   C     C_R   0.836251 0.283331 0.512668 -0.125995
C76   C     C_R   0.173582 0.726344 0.513449 -0.133532
C77   C     C_R   0.660073 0.783457 0.480908 -0.129854
C78   C     C_R   0.330036 0.223463 0.495952 -0.103158
C79   C     C_R   0.336241 0.783319 0.512641 -0.126048
C80   C     C_R   0.673590 0.226352 0.513471 -0.133562
C81   C     C_R   0.732744 0.812753 0.389772 0.603647
C82   C     C_R   0.230814 0.172416 0.535291 0.589151
C83   C     C_R   0.277413 0.806367 0.626456 0.603039
C84   C     C_R   0.758631 0.178081 0.449645 0.581727
C85   C     C_R   0.232890 0.312780 0.390029 0.603491
C86   C     C_R   0.730858 0.672478 0.535323 0.589169
C87   C     C_R   0.777422 0.306373 0.626483 0.603028
C88   C     C_R   0.258622 0.678070 0.449621 0.581743
C89   C     C_R   0.789946 0.784293 0.420036 -0.315849
C90   C     C_R   0.183349 0.207644 0.524108 -0.286996
C91   C     C_R   0.222757 0.776359 0.602441 -0.296879
C92   C     C_R   0.806809 0.210768 0.460848 -0.298507
C93   C     C_R   0.290090 0.284285 0.420319 -0.316479
C94   C     C_R   0.683389 0.707688 0.524143 -0.287042
C95   C     C_R   0.722765 0.276365 0.602465 -0.296866
C96   C     C_R   0.306802 0.710755 0.460826 -0.298550
C97   C     C_R   0.817026 0.693930 0.545858 0.589898
C98   C     C_R   0.172958 0.318729 0.432100 0.572610
C99   C     C_R   0.179288 0.702796 0.452104 0.577914
C100  C     C_R   0.828983 0.316733 0.569768 0.562614
C101  C     C_R   0.317044 0.193838 0.545955 0.589965
C102  C     C_R   0.672905 0.818737 0.431998 0.572629
C103  C     C_R   0.679296 0.202805 0.452127 0.577887
C104  C     C_R   0.328973 0.816724 0.569740 0.562598
C105  C     C_R   0.756185 0.715658 0.508282 -0.238045
C106  C     C_R   0.219163 0.282554 0.440750 -0.246020
C107  C     C_R   0.240097 0.720044 0.487738 -0.240957
C108  C     C_R   0.783692 0.281458 0.563975 -0.235926
C109  C     C_R   0.256198 0.215604 0.508350 -0.238124
C110  C     C_R   0.719093 0.782563 0.440610 -0.246292
C111  C     C_R   0.740106 0.220052 0.487764 -0.240930
C112  C     C_R   0.283682 0.781450 0.563947 -0.235912
Cl1   Cl    Cl    0.272230 0.429229 0.883125 -0.407758
Cl2   Cl    Cl    0.731927 0.576752 0.152358 -0.487726
Cl3   Cl    Cl    0.753676 0.448426 0.072652 -0.552079
Cl4   Cl    Cl    0.262473 0.606071 0.857230 -0.488824
Cl5   Cl    Cl    0.772230 0.929240 0.883134 -0.407766
Cl6   Cl    Cl    0.231954 0.076828 0.152495 -0.487617
Cl7   Cl    Cl    0.253572 0.948435 0.072662 -0.552206
Cl8   Cl    Cl    0.762476 0.106077 0.857248 -0.488769
Cl9   Cl    Cl    0.755275 0.576833 0.347264 -0.468652
Cl10  Cl    Cl    0.248180 0.404670 0.675740 -0.414056
Cl11  Cl    Cl    0.247684 0.580495 0.667022 -0.433764
Cl12  Cl    Cl    0.750913 0.404575 0.317861 -0.447051
Cl13  Cl    Cl    0.255321 0.076781 0.347429 -0.468625
Cl14  Cl    Cl    0.748174 0.904682 0.675708 -0.414091
Cl15  Cl    Cl    0.747690 0.080507 0.667052 -0.433784
Cl16  Cl    Cl    0.250908 0.904553 0.317806 -0.447066
Cl17  Cl    Cl    0.081816 0.781828 0.707147 -0.541595
Cl18  Cl    Cl    0.924110 0.209709 0.356980 -0.621211
Cl19  Cl    Cl    0.923190 0.791366 0.337090 -0.567469
Cl20  Cl    Cl    0.077600 0.209365 0.671125 -0.576708
Cl21  Cl    Cl    0.581839 0.281843 0.707126 -0.541515
Cl22  Cl    Cl    0.424116 0.709706 0.356956 -0.621058
Cl23  Cl    Cl    0.423192 0.291363 0.337089 -0.567029
Cl24  Cl    Cl    0.577586 0.709354 0.671017 -0.576456
C113  C     C_2   0.799258 0.076720 0.053829 0.729616
H9    H     H_    0.855245 0.068514 0.115861 0.035322
O1    O     O_2   0.762129 0.019001 0.014405 -0.515332
C114  C     C_2   0.179330 0.796186 0.070701 0.691034
H10   H     H_    0.133709 0.833542 0.014820 0.133985
O2    O     O_2   0.207614 0.783919 0.159577 -0.546865
C115  C     C_2   0.218054 0.288912 0.113169 0.606747
H11   H     H_    0.225490 0.244951 0.161506 0.053500
O3    O     O_2   0.201415 0.354575 0.111356 -0.487248
C116  C     C_2   0.772377 0.706073 0.890485 0.740136
H12   H     H_    0.788307 0.646602 0.898623 0.051670
O4    O     O_2   0.764211 0.750279 0.832085 -0.530573
C117  C     C_2   0.299299 0.576745 0.053849 0.729849
H13   H     H_    0.355288 0.568558 0.115875 0.035302
O5    O     O_2   0.262187 0.519014 0.014453 -0.515370
C118  C     C_2   0.679302 0.296262 0.070636 0.690994
H14   H     H_    0.633690 0.333629 0.014735 0.133967
O6    O     O_2   0.707567 0.284021 0.159503 -0.546778
C119  C     C_2   0.717646 0.788493 0.112705 0.609660
H15   H     H_    0.725896 0.744685 0.162009 0.052758
O7    O     O_2   0.699814 0.853770 0.109537 -0.487936
C120  C     C_2   0.272157 0.205953 0.890259 0.740154
H16   H     H_    0.287930 0.146430 0.898218 0.051717
O8    O     O_2   0.264084 0.250178 0.831967 -0.530671
C121  C     C_2   0.877443 0.231784 0.140455 0.668165
H17   H     H_    0.906218 0.184336 0.151105 0.026881
O9    O     O_2   0.900150 0.297950 0.160587 -0.528726
C122  C     C_2   0.087437 0.704508 0.866619 0.655397
H18   H     H_    0.061344 0.652379 0.816998 0.044944
O10   O     O_2   0.052334 0.754353 0.853392 -0.516242
C123  C     C_2   0.136294 0.360908 0.906496 0.647205
H19   H     H_    0.099576 0.344293 0.902967 0.069022
O11   O     O_2   0.129376 0.424285 0.870401 -0.566715
C124  C     C_2   0.854074 0.637105 0.097829 0.542457
H20   H     H_    0.858563 0.583499 0.132468 0.056556
O12   O     O_2   0.897424 0.650576 0.104629 -0.481727
C125  C     C_2   0.377441 0.731837 0.140410 0.668108
H21   H     H_    0.406214 0.684403 0.151031 0.026915
O13   O     O_2   0.400142 0.798009 0.160557 -0.528746
C126  C     C_2   0.587415 0.204569 0.866568 0.655367
H22   H     H_    0.561316 0.152439 0.816949 0.044941
O14   O     O_2   0.552315 0.254435 0.853320 -0.516337
C127  C     C_2   0.635983 0.860530 0.905941 0.647064
H23   H     H_    0.598888 0.843531 0.901509 0.069414
O15   O     O_2   0.629354 0.924167 0.870573 -0.565858
C128  C     C_2   0.353838 0.136864 0.097545 0.542557
H24   H     H_    0.358284 0.083282 0.132172 0.056655
O16   O     O_2   0.397150 0.150200 0.104231 -0.481733
Cl25  Cl    Cl    0.139979 0.414628 0.378577 -0.424900
Cl26  Cl    Cl    0.883978 0.637448 0.664807 -0.436626
Cl27  Cl    Cl    0.868172 0.409660 0.630660 -0.449530
Cl28  Cl    Cl    0.105258 0.658344 0.325092 -0.404623
Cl29  Cl    Cl    0.639914 0.914629 0.378458 -0.424848
Cl30  Cl    Cl    0.383935 0.137277 0.664842 -0.436426
Cl31  Cl    Cl    0.368163 0.909650 0.630632 -0.449407
Cl32  Cl    Cl    0.605267 0.158355 0.325113 -0.404631
C129  C     C_2   0.163138 0.169613 0.566374 0.742373
H25   H     H_    0.157777 0.204220 0.606463 0.045735
O17   O     O_2   0.150028 0.100012 0.554025 -0.470859
C130  C     C_2   0.807589 0.816151 0.371696 0.786008
H26   H     H_    0.829770 0.778861 0.358667 -0.032806
O18   O     O_2   0.800033 0.885343 0.349679 -0.414839
C131  C     C_2   0.821732 0.174237 0.410385 0.797720
H27   H     H_    0.829934 0.210572 0.375038 0.043630
O19   O     O_2   0.827349 0.103700 0.410653 -0.436949
C132  C     C_2   0.215726 0.794820 0.668949 0.805448
H28   H     H_    0.164159 0.798494 0.630754 0.008169
O20   O     O_2   0.266627 0.802231 0.766727 -0.443222
C133  C     C_2   0.663223 0.669667 0.566480 0.742469
H29   H     H_    0.657845 0.704288 0.606538 0.045748
O21   O     O_2   0.650168 0.600054 0.554225 -0.470823
C134  C     C_2   0.307796 0.316177 0.372086 0.786849
H30   H     H_    0.329772 0.278842 0.358734 -0.032722
O22   O     O_2   0.300517 0.385434 0.350521 -0.414252
C135  C     C_2   0.321733 0.674218 0.410377 0.797800
H31   H     H_    0.329953 0.710548 0.375051 0.043673
O23   O     O_2   0.327338 0.603679 0.410634 -0.436764
C136  C     C_2   0.715732 0.294823 0.668972 0.805495
H32   H     H_    0.664165 0.298494 0.630776 0.008205
O24   O     O_2   0.766632 0.302238 0.766749 -0.443217
Cl33  Cl    Cl    0.169897 0.368639 0.269506 -0.351172
Cl34  Cl    Cl    0.752722 0.572620 0.572866 -0.376033
Cl35  Cl    Cl    0.841585 0.365057 0.743594 -0.347444
Cl36  Cl    Cl    0.227221 0.581990 0.397840 -0.343245
Cl37  Cl    Cl    0.669641 0.868484 0.269145 -0.350372
Cl38  Cl    Cl    0.252602 0.072533 0.572715 -0.376067
Cl39  Cl    Cl    0.341575 0.865054 0.743565 -0.347168
Cl40  Cl    Cl    0.727230 0.082001 0.397860 -0.343379

loop_
_geom_bond_atom_site_label_1
_geom_bond_atom_site_label_2
_geom_bond_distance
_ccdc_geom_bond_type
C86   Cl34  1.776107 S    
C22   C47   1.360123 A    
C116  O4    1.220499 D    
C119  H15   1.083903 S    
C104  C112  1.407288 A    
N21   Ni7   1.882475 S    
C92   C131  1.492197 S    
C32   C37   1.364132 A    
C76   C91   1.404556 A    
C83   C91   1.408812 A    
C10   N10   1.339730 A    
N29   Ni8   1.889223 S    
C62   C126  1.491140 S    
C126  H22   1.085645 S    
C2    Cl2   1.757419 S    
C6    Cl6   1.757385 S    
C80   C95   1.404555 A    
C124  H20   1.083278 S    
C57   C121  1.491549 S    
N2    N27   1.456164 A    
C44   C75   1.438931 S    
C49   C113  1.486134 S    
C103  Cl32  1.778223 S    
C119  O7    1.221426 D    
N9    Ni2   1.840155 S    
C94   C133  1.491563 S    
C58   C66   1.411111 A    
C82   C109  1.416858 A    
C59   C67   1.419641 A    
C25   C36   1.391903 A    
C57   C65   1.414741 A    
C11   Cl11  1.749849 S    
C48   C79   1.438926 S    
C123  O11   1.220073 D    
C133  H29   1.084701 S    
C82   Cl38  1.776109 S    
C78   C101  1.389025 A    
C9    Cl9   1.748791 S    
C113  O1    1.220661 D    
C86   C105  1.416868 A    
C86   C94   1.399860 A    
C29   C40   1.391884 A    
C132  O20   1.220364 D    
C28   C33   1.364170 A    
C49   C70   1.396224 A    
C129  O17   1.220348 D    
C64   C128  1.493858 S    
C130  H26   1.083431 S    
C30   N30   1.315868 A    
C55   C63   1.396783 A    
C129  H25   1.084700 S    
N6    N31   1.456164 A    
C74   C97   1.389059 A    
C126  O14   1.219730 D    
C105  C110  1.424151 A    
C117  O5    1.220657 D    
C96   C135  1.492207 S    
C58   C122  1.491134 S    
C81   C110  1.423469 A    
C50   C114  1.480873 S    
C8    Cl8   1.762453 S    
C27   N27   1.327174 A    
C51   C72   1.401683 A    
C89   C130  1.489048 S    
C124  O12   1.221235 D    
C7    C39   1.390634 A    
C26   N26   1.315866 A    
C2    N2    1.339235 A    
C23   N23   1.329851 A    
C114  O2    1.219666 D    
C118  H14   1.083171 S    
C24   N24   1.334020 A    
C18   H2    1.074279 S    
C28   Cl20  1.755489 S    
N27   Ni6   1.889140 S    
C36   C66   1.464382 S    
C4    Cl4   1.762454 S    
N20   Ni6   1.882535 S    
C50   C58   1.411187 A    
C35   C65   1.449578 S    
C5    Cl5   1.749048 S    
C43   C76   1.437552 S    
C4    N4    1.324993 A    
C19   H3    1.078142 S    
C20   C41   1.356119 A    
C42   C73   1.440640 S    
C5    N5    1.341287 A    
C20   N20   1.334050 A    
N11   N18   1.347183 A    
C3    Cl3   1.757993 S    
C60   C124  1.493884 S    
C99   Cl28  1.778221 S    
C87   C95   1.408816 A    
C116  H12   1.084720 S    
N7    Ni4   1.830568 S    
C98   Cl25  1.782505 S    
C1    Cl1   1.749057 S    
C22   N22   1.334882 A    
C8    N8    1.325017 A    
C15   C47   1.372738 A    
C97   Cl26  1.778449 S    
N5    Ni3   1.827972 S    
C46   C77   1.440658 S    
C87   Cl35  1.774695 S    
C53   C66   1.396220 A    
N32   Ni7   1.889138 S    
C62   C70   1.411118 A    
C45   C78   1.439309 S    
C117  H13   1.083654 S    
C54   C62   1.411193 A    
C11   C43   1.372743 A    
C10   C42   1.378499 A    
C47   C80   1.437548 S    
C14   Cl14  1.752312 S    
C19   C42   1.361440 A    
N1    N28   1.456165 A    
C26   C35   1.363891 A    
C101  Cl30  1.778437 S    
C40   C70   1.464406 S    
C131  O19   1.220344 D    
C53   C117  1.486131 S    
C76   C99   1.386972 A    
C13   C45   1.373140 A    
C52   C60   1.396395 A    
C84   C111  1.416535 A    
C31   Cl23  1.753407 S    
C61   C69   1.414732 A    
C115  H11   1.083554 S    
C13   Cl13  1.748801 S    
C30   C39   1.363880 A    
C3    N3    1.355109 A    
C17   H1    1.072193 S    
C74   C89   1.403446 A    
C106  C109  1.424199 A    
N23   Ni7   1.882532 S    
C77   C102  1.404526 A    
N1    Ni1   1.827972 S    
C64   C72   1.418419 A    
C88   C107  1.416538 A    
C120  H16   1.084712 S    
N18   Ni6   1.882472 S    
C136  O24   1.220362 D    
C63   C127  1.493680 S    
C12   N12   1.337778 A    
C135  O23   1.220342 D    
C132  H28   1.084803 S    
C13   N13   1.342572 A    
C75   C92   1.404040 A    
C87   C108  1.428669 A    
C85   C106  1.423479 A    
C28   N28   1.324966 A    
C134  O22   1.220923 D    
C114  H10   1.083173 S    
N10   Ni1   1.840156 S    
C15   N15   1.338331 A    
C24   C45   1.356131 A    
C56   C64   1.396434 A    
C38   C72   1.433904 S    
C123  H19   1.085299 S    
C115  O3    1.220977 D    
C125  H21   1.083644 S    
C54   C118  1.480885 S    
C79   C104  1.405752 A    
C6    N6    1.339232 A    
C56   C67   1.406099 A    
N12   N17   1.347184 A    
N4    Ni1   1.830568 S    
C80   C103  1.386971 A    
C133  O21   1.220350 D    
C127  H23   1.085430 S    
C98   C106  1.404285 A    
C77   C94   1.405731 A    
C102  Cl29  1.782498 S    
C34   C68   1.433965 S    
C134  H30   1.083438 S    
N14   Ni3   1.840156 S    
C121  H17   1.083643 S    
C1    N1    1.341219 A    
C26   Cl18  1.759300 S    
C52   C71   1.406021 A    
C75   C100  1.405754 A    
C128  O16   1.221228 D    
C16   C48   1.372347 A    
C27   C34   1.368111 A    
N6    Ni4   1.827969 S    
C90   C129  1.491562 S    
N19   Ni5   1.882532 S    
N26   Ni5   1.889225 S    
C51   C115  1.495070 S    
C63   C71   1.419661 A    
C118  O6    1.219668 D    
N25   Ni6   1.889223 S    
C127  O15   1.220166 D    
N5    N32   1.456165 A    
C31   N31   1.327162 A    
C56   C120  1.498551 S    
C12   C44   1.372336 A    
C81   Cl37  1.776203 S    
C19   N19   1.329830 A    
C5    C37   1.375812 A    
C15   Cl15  1.749851 S    
C20   H4    1.071085 S    
C91   C132  1.493166 S    
C81   C89   1.403813 A    
C18   C43   1.360129 A    
C21   H5    1.072214 S    
C135  H31   1.084450 S    
C16   Cl16  1.751891 S    
C16   N16   1.337771 A    
N16   N21   1.347184 A    
C61   C125  1.491554 S    
C3    C35   1.390666 A    
C50   C69   1.418775 A    
C23   H7    1.078138 S    
N14   N23   1.346030 A    
C29   N29   1.334208 A    
C24   H8    1.071076 S    
N7    N30   1.457413 A    
C7    Cl7   1.757947 S    
C14   N14   1.339735 A    
C12   Cl12  1.751876 S    
C107  C112  1.424217 A    
C17   N17   1.332796 A    
C93   C134  1.488930 S    
N22   Ni8   1.882472 S    
C30   Cl22  1.759300 S    
C108  C111  1.424218 A    
N8    N29   1.457414 A    
N15   Ni3   1.837538 S    
C122  O10   1.219729 D    
C9    N9    1.342585 A    
C37   C71   1.427143 S    
C73   C90   1.405725 A    
C2    C34   1.374126 A    
C84   Cl40  1.775361 S    
C18   N18   1.334882 A    
C131  H27   1.084454 S    
N3    N26   1.457413 A    
C85   Cl33  1.776210 S    
C136  H32   1.084805 S    
N31   Ni8   1.889140 S    
N13   N24   1.346031 A    
C52   C116  1.498600 S    
C99   C107  1.393788 A    
C84   C92   1.399151 A    
C51   C59   1.396548 A    
N4    N25   1.457414 A    
C102  C110  1.404280 A    
C78   C93   1.403381 A    
C29   Cl21  1.757965 S    
N28   Ni5   1.889138 S    
C33   C67   1.427008 S    
C41   C74   1.439336 S    
C88   Cl36  1.775352 S    
C100  Cl27  1.782169 S    
C1    C33   1.375729 A    
C60   C68   1.418531 A    
C27   Cl19  1.753401 S    
N30   Ni7   1.889225 S    
N9    N20   1.346031 A    
C97   C105  1.395273 A    
C125  O13   1.221141 D    
C54   C65   1.418782 A    
N10   N19   1.346030 A    
C22   H6    1.074277 S    
C25   Cl17  1.757953 S    
N3    Ni2   1.830568 S    
C49   C57   1.373869 A    
C113  H9    1.083653 S    
N16   Ni4   1.837539 S    
C104  Cl31  1.782165 S    
C101  C109  1.395280 A    
C55   C68   1.401928 A    
C39   C69   1.449540 S    
C7    N7    1.355111 A    
C121  O9    1.221142 D    
C130  O18   1.220941 D    
N11   Ni1   1.837538 S    
C9    C41   1.373106 A    
C79   C96   1.404037 A    
C14   C46   1.378490 A    
N15   N22   1.347183 A    
N24   Ni8   1.882535 S    
C128  H24   1.083258 S    
C17   C44   1.360646 A    
C55   C119  1.495509 S    
C4    C36   1.383694 A    
C6    C38   1.374049 A    
C21   N21   1.332792 A    
C95   C136  1.493165 S    
C32   Cl24  1.755477 S    
C83   Cl39  1.774696 S    
C122  H18   1.085644 S    
N2    Ni2   1.827969 S    
N8    Ni3   1.830568 S    
C88   C96   1.399161 A    
C10   Cl10  1.752312 S    
C8    C40   1.383713 A    
C73   C98   1.404525 A    
N12   Ni2   1.837539 S    
C85   C93   1.403735 A    
C100  C108  1.407289 A    
C23   C46   1.361466 A    
N17   Ni5   1.882475 S    
C21   C48   1.360655 A    
C120  O8    1.220504 D    
C53   C61   1.373854 A    
C83   C112  1.428672 A    
C59   C123  1.493930 S    
N13   Ni4   1.840155 S    
C32   N32   1.324936 A    
C103  C111  1.393785 A    
C11   N11   1.338331 A    
C25   N25   1.334225 A    
C31   C38   1.368091 A    
C82   C90   1.399834 A    
