data_mof_unit_44644.cif
_audit_creation_date              2012-12-10T20:45:36-0500
_audit_creation_method            fapswitch 2.2
_symmetry_space_group_name_H-M    P1
_symmetry_Int_Tables_number       1
_space_group_crystal_system       triclinic
_cell_length_a                    10.752079
_cell_length_b                    10.726351
_cell_length_c                    9.836208
_cell_angle_alpha                 89.737896
_cell_angle_beta                  90.668301
_cell_angle_gamma                 89.857322
_cell_volume                      1134.32280132

loop_
_atom_site_label
_atom_site_type_symbol
_atom_type_description
_atom_site_fract_x
_atom_site_fract_y
_atom_site_fract_z
_atom_type_partial_charge
C1    C     C_R   0.499501 0.259933 0.500171 0.885076
C2    C     C_R   0.199305 0.745056 0.034145 -0.207949
C3    C     C_R   0.931354 0.549087 0.389302 -0.235659
C4    C     C_R   0.872596 0.501358 0.504180 -0.051140
C5    C     C_R   0.941468 0.461720 0.619438 0.066160
C6    C     C_R   0.068719 0.464558 0.613332 -0.225641
C7    C     C_R   0.127680 0.510571 0.497981 -0.081855
C8    C     C_R   0.059074 0.556814 0.385502 0.025856
C9    C     C_R   0.856828 0.494246 0.857436 0.069623
C10   C     C_R   0.817080 0.440973 0.980297 -0.256651
C11   C     C_R   0.807360 0.311985 0.995001 -0.107354
C12   C     C_R   0.260114 0.505371 0.498957 0.874487
C13   C     C_R   0.837907 0.233990 0.887498 -0.129268
C14   C     C_R   0.876996 0.284644 0.764310 -0.210857
C15   C     C_R   0.886875 0.414282 0.747456 0.119732
C16   C     C_R   0.488102 0.063078 0.622660 0.180316
C17   C     C_R   0.489296 0.128116 0.499867 -0.198408
C18   C     C_R   0.476572 0.064709 0.376203 -0.174050
C19   C     C_R   0.477659 0.936285 0.375915 -0.159959
C20   C     C_R   0.488864 0.871658 0.499273 -0.127859
C21   C     C_R   0.487158 0.935360 0.622215 0.071954
C22   C     C_3   0.577495 0.925923 0.738408 -0.556579
C23   C     C_R   0.499378 0.739975 0.499712 0.898295
C24   C     C_3   0.580867 0.066930 0.737152 0.236680
C25   C     C_R   0.465504 0.395596 0.071492 0.202664
C26   C     C_R   0.544933 0.598682 0.072132 -0.149434
C27   C     C_R   0.545828 0.598168 0.928099 -0.150011
C28   C     C_R   0.462855 0.396802 0.928671 0.320877
C29   C     C_3   0.336802 0.338870 0.924362 -0.489246
C30   C     C_3   0.342743 0.332134 0.078377 -0.504360
C31   C     C_R   0.740099 0.498468 0.501302 0.876993
C32   C     C_R   0.210740 0.801188 0.162825 0.482972
C33   C     C_R   0.170318 0.736477 0.278320 -0.116732
C34   C     C_R   0.114518 0.618788 0.265646 0.059998
C35   C     C_R   0.099593 0.566237 0.136120 -0.216124
C36   C     C_R   0.144030 0.628082 0.021377 -0.177473
H1    H     H_    0.230909 0.792752 0.943687 0.141296
H2    H     H_    0.776851 0.272449 0.090379 0.135032
H3    H     H_    0.832032 0.133875 0.899889 0.128636
H4    H     H_    0.901824 0.222550 0.682349 0.130915
H5    H     H_    0.473049 0.113399 0.279615 0.174630
H6    H     H_    0.476504 0.888301 0.279307 0.191454
H7    H     H_    0.533679 0.886146 0.830674 0.216063
H8    H     H_    0.667397 0.882400 0.709709 0.196457
H9    H     H_    0.671434 0.108450 0.707885 0.103288
H10   H     H_    0.579968 0.678902 0.126471 0.144877
H11   H     H_    0.582892 0.677081 0.873814 0.150060
H12   H     H_    0.264432 0.404248 0.885649 0.190576
H13   H     H_    0.335548 0.246006 0.875279 0.255492
H14   H     H_    0.271393 0.389014 0.129513 0.231420
H15   H     H_    0.351307 0.235187 0.117550 0.214651
H16   H     H_    0.178533 0.779731 0.377352 0.140167
H17   H     H_    0.054215 0.476860 0.124320 0.156256
H18   H     H_    0.133383 0.586459 0.921958 0.164214
H19   H     H_    0.877491 0.584587 0.303445 0.156268
H20   H     H_    0.121766 0.429069 0.699588 0.148012
H21   H     H_    0.794485 0.499499 0.066005 0.134915
N1    N     N_R   0.499160 0.499140 0.142800 -0.105096
N2    N     N_R   0.499160 0.499180 0.857150 -0.114948
O1    O     O_R   0.500020 0.316790 0.614690 -0.595348
O2    O     O_R   0.500000 0.316760 0.385350 -0.626452
O3    O     O_R   0.316770 0.500030 0.614670 -0.628490
O4    O     O_R   0.316750 0.499990 0.385330 -0.612242
O5    O     O_R   0.500000 0.683240 0.614650 -0.615855
O6    O     O_R   0.499980 0.683210 0.385310 -0.635426
O7    O     O_R   0.683250 0.500010 0.614670 -0.602803
O8    O     O_R   0.683230 0.499970 0.385330 -0.637722
Zn1   Zn    Zn3+2 0.500010 0.500020 0.653130 0.972919
Zn2   Zn    Zn3+2 0.499990 0.499980 0.346870 0.943909
O9    O     O_3   0.529483 0.117892 0.854521 -0.770621
H22   H     H_    0.594362 0.109851 0.926531 0.328532
O10   O     O_3   0.256875 0.920111 0.178196 -0.798722
H23   H     H_    0.281295 0.952685 0.087840 0.327878
C37   C     C_2   0.865463 0.632452 0.850458 0.346026
H24   H     H_    0.843459 0.687361 0.939513 0.055342
O11   O     O_2   0.896277 0.687103 0.747181 -0.580632

loop_
_geom_bond_atom_site_label_1
_geom_bond_atom_site_label_2
_ccdc_geom_bond_type
C31   O7    A    
O7    Zn1   S    
C30   H15   S    
C16   C21   A    
C35   H17   S    
C35   C36   A    
C24   O9    S    
C7    C8    A    
C32   O10   S    
C29   H13   S    
C33   H16   S    
C31   O8    A    
C26   C27   A    
C37   O11   D    
C24   H9    S    
O5    Zn1   S    
C28   C29   S    
C18   C19   A    
C5    C6    A    
C2    C36   A    
C2    C32   A    
C34   C35   A    
C3    H19   S    
C22   H8    S    
C19   C20   A    
C16   C17   A    
O9    H22   S    
C9    C10   A    
C19   H6    S    
C30   H14   S    
C16   C24   S    
C21   C22   S    
C33   C34   A    
C7    C12   S    
C5    C15   S    
C37   H24   S    
C29   H12   S    
O4    Zn2   S    
C10   H21   S    
C3    C8    A    
C18   H5    S    
C12   O4    A    
O10   H23   S    
O8    Zn2   S    
C11   H2    S    
C29   C30   S    
N2    Zn1   S    
C12   O3    A    
C22   H7    S    
C20   C23   S    
C17   C18   A    
C8    C34   S    
C26   N1    A    
C23   O5    A    
C22   C24   S    
C1    O1    A    
C25   N1    A    
C25   C28   A    
C3    C4    A    
C28   N2    A    
C27   H11   S    
C25   C30   S    
C6    H20   S    
C4    C5    A    
C1    O2    A    
N1    Zn2   S    
C6    C7    A    
C1    C17   S    
O3    Zn1   S    
O2    Zn2   S    
C32   C33   A    
C23   O6    A    
C9    C15   A    
C27   N2    A    
C11   C13   A    
C2    H1    S    
O6    Zn2   S    
C13   H3    S    
C4    C31   S    
C36   H18   S    
C10   C11   A    
C26   H10   S    
C14   H4    S    
C20   C21   A    
O1    Zn1   S    
C9    C37   S    
C14   C15   A    
C13   C14   A    
