data_mof_unit_56880.cif
_audit_creation_date              2013-03-05T15:47:47-0500
_audit_creation_method            fapswitch 2.2
_symmetry_space_group_name_H-M    P1
_symmetry_Int_Tables_number       1
_space_group_crystal_system       triclinic
_cell_length_a                    21.692942
_cell_length_b                    7.20877
_cell_length_c                    18.610759
_cell_angle_alpha                 90.167589
_cell_angle_beta                  96.320428
_cell_angle_gamma                 89.998544
_cell_volume                      2892.63765141

loop_
_atom_site_label
_atom_site_type_symbol
_atom_site_description
_atom_site_fract_x
_atom_site_fract_y
_atom_site_fract_z
_atom_type_partial_charge
O1    O     O_R   0.449650 0.506500 0.414480 -0.566882
O2    O     O_R   0.550350 0.006500 0.585520 -0.569075
O3    O     O_R   0.432010 0.173150 0.560250 -0.570473
O4    O     O_R   0.567990 0.673150 0.439750 -0.562940
C1    C     C_R   0.416177 0.344681 0.580906 1.047688
C2    C     C_R   0.583978 0.844491 0.419158 1.029826
O5    O     O_R   0.442320 0.176650 0.413480 -0.591236
O6    O     O_R   0.557680 0.676650 0.586520 -0.575819
O7    O     O_R   0.560730 0.008380 0.437700 -0.522007
O8    O     O_R   0.439270 0.508380 0.562300 -0.524590
C3    C     C_R   0.428615 0.343794 0.386949 1.010358
C4    C     C_R   0.570781 0.844246 0.613470 0.996310
O9    O     O_3   0.538840 0.339860 0.508120 -0.261073
O10   O     O_3   0.461160 0.839860 0.491880 -0.272398
V1    V     V_3+5 0.492800 0.064220 0.498490 1.341071
V2    V     V_3+5 0.507200 0.564220 0.501510 1.349539
C5    C     C_R   0.868419 0.007763 0.687518 -0.239871
C6    C     C_R   0.133159 0.529839 0.310879 -0.241159
H1    H     H_    0.782911 0.025997 0.574563 0.177639
H2    H     H_    0.219851 0.564617 0.422052 0.185777
H3    H     H_    0.885328 0.049039 0.637245 0.181912
H4    H     H_    0.116760 0.578537 0.360576 0.182259
C7    C     C_R   0.888374 0.947458 0.816531 -0.275529
C8    C     C_R   0.111809 0.450581 0.183385 -0.274840
C9    C     C_R   0.589421 0.775684 0.746043 0.234923
C10   C     C_R   0.407657 0.251047 0.256337 0.243862
C11   C     C_R   0.628783 0.761583 0.811284 0.290833
C12   C     C_R   0.369978 0.249975 0.189676 0.289388
C13   C     C_R   0.690927 0.814142 0.813865 -0.298516
C14   C     C_R   0.309125 0.315591 0.185759 -0.294785
C15   C     C_R   0.716851 0.875919 0.752036 0.070332
C16   C     C_R   0.283612 0.382655 0.247186 0.071001
C17   C     C_R   0.676773 0.891711 0.685775 0.050423
C18   C     C_R   0.324084 0.402912 0.313015 0.045879
C19   C     C_R   0.781926 0.916478 0.753567 0.140301
C20   C     C_R   0.218765 0.426520 0.245508 0.142307
C21   C     C_R   0.805183 0.969169 0.688470 0.082266
C22   C     C_R   0.196311 0.490291 0.309754 0.081383
C23   C     C_R   0.765229 0.984777 0.624397 -0.125068
C24   C     C_R   0.236897 0.514452 0.372934 -0.125085
C25   C     C_R   0.702218 0.947685 0.623029 -0.137842
C26   C     C_R   0.299572 0.472143 0.374598 -0.146958
C27   C     C_R   0.824914 0.906640 0.817211 -0.244371
C28   C     C_R   0.175068 0.406685 0.182825 -0.246217
C29   C     C_R   0.910141 0.000435 0.750619 0.374290
C30   C     C_R   0.090773 0.513125 0.248626 0.373218
C31   C     C_R   0.612593 0.844585 0.682978 -0.344108
C32   C     C_R   0.387147 0.342623 0.317110 -0.341898
H5    H     H_    0.810388 0.873453 0.868882 0.183510
H6    H     H_    0.188822 0.361518 0.132058 0.186152
H7    H     H_    0.718609 0.796170 0.864936 0.206908
H8    H     H_    0.282534 0.310330 0.133517 0.208741
H9    H     H_    0.673734 0.960855 0.571788 0.143269
H10   H     H_    0.328347 0.489987 0.425418 0.154301
C33   C     C_R   0.635538 0.726102 0.311917 0.310437
C34   C     C_R   0.367136 0.231410 0.690232 0.318265
C35   C     C_R   0.632969 0.855966 0.368619 -0.492519
C36   C     C_R   0.367600 0.356228 0.631761 -0.484279
C37   C     C_R   0.676769 0.000315 0.376791 0.816453
C38   C     C_R   0.322389 0.496183 0.622247 0.796818
C39   C     C_R   0.722909 0.017037 0.329493 -0.249276
C40   C     C_R   0.276089 0.512202 0.669329 -0.249141
C41   C     C_R   0.724675 0.889775 0.271604 -0.057303
C42   C     C_R   0.275518 0.388580 0.728269 -0.061091
C43   C     C_R   0.679958 0.745183 0.261415 -0.110761
C44   C     C_R   0.322073 0.249544 0.740225 -0.113719
C45   C     C_R   0.767756 0.158623 0.339181 0.836153
C46   C     C_R   0.230008 0.649854 0.658487 0.831095
C47   C     C_R   0.813849 0.173360 0.292971 -0.292035
C48   C     C_R   0.184022 0.664921 0.704847 -0.287746
C49   C     C_R   0.816387 0.050308 0.234591 -0.083740
C50   C     C_R   0.182618 0.545540 0.764249 -0.086972
C51   C     C_R   0.771597 0.907129 0.224043 0.082193
C52   C     C_R   0.228372 0.405490 0.775638 0.079696
C53   C     C_R   0.773740 0.780967 0.166257 -0.038121
C54   C     C_R   0.227136 0.282567 0.834287 -0.038062
C55   C     C_R   0.728120 0.643006 0.155367 -0.162158
C56   C     C_R   0.274428 0.150394 0.846883 -0.167199
C57   C     C_R   0.681560 0.624625 0.200924 0.331107
C58   C     C_R   0.321835 0.134859 0.802275 0.328284
C59   C     C_R   0.863605 0.065193 0.187840 0.358333
C60   C     C_R   0.135740 0.561586 0.811419 0.360293
C61   C     C_R   0.865415 0.939500 0.129483 -0.431426
C62   C     C_R   0.134483 0.438192 0.870281 -0.430890
C63   C     C_R   0.820089 0.797815 0.118798 0.349008
C64   C     C_R   0.180293 0.298048 0.881249 0.344827
H11   H     H_    0.847759 0.282518 0.304032 0.224362
H12   H     H_    0.149266 0.771286 0.693107 0.225353
H13   H     H_    0.726781 0.549632 0.109607 0.210810
H14   H     H_    0.276806 0.061326 0.893808 0.215385
O11   O     O_R   0.060820 0.290050 0.937800 -0.544655
O12   O     O_R   0.939180 0.790050 0.062200 -0.543319
O13   O     O_R   0.057690 0.616620 0.086540 -0.580250
O14   O     O_R   0.942310 0.116620 0.913460 -0.579767
C65   C     C_R   0.070246 0.450048 0.114024 1.034879
C66   C     C_R   0.929755 0.949508 0.886000 1.033889
O15   O     O_R   0.068010 0.619890 0.939770 -0.566366
O16   O     O_R   0.931990 0.119890 0.060230 -0.566803
O17   O     O_R   0.949640 0.787940 0.914460 -0.567461
O18   O     O_R   0.050360 0.287940 0.085540 -0.566952
C67   C     C_R   0.084340 0.450838 0.919229 1.064574
C68   C     C_R   0.915657 0.951199 0.080734 1.065081
O19   O     O_3   0.961210 0.453080 0.991940 -0.263406
O20   O     O_3   0.038790 0.953080 0.008060 -0.264435
V3    V     V_3+5 0.007200 0.728820 0.001500 1.360172
V4    V     V_3+5 0.992800 0.228820 0.998500 1.359983
N1    N     N_R   0.973985 0.048546 0.746149 0.257092
O21   O     O_R   0.004011 0.152974 0.795214 -0.358186
O22   O     O_R   0.999201 0.013074 0.687302 -0.321104
N2    N     N_R   0.026849 0.559664 0.253453 0.256121
O23   O     O_R   0.995854 0.658976 0.203685 -0.358089
O24   O     O_R   0.002335 0.527358 0.312947 -0.321205
F1    F     F_    0.675669 0.120662 0.433039 -0.638201
F2    F     F_    0.322674 0.613764 0.565278 -0.648887
F3    F     F_    0.767876 0.283749 0.393893 -0.631015
F4    F     F_    0.228680 0.771113 0.602623 -0.633059
N3    N     N_R   0.911458 0.202273 0.201586 0.245576
O25   O     O_R   0.969029 0.151582 0.216188 -0.370516
O26   O     O_R   0.897848 0.377772 0.196703 -0.324769
N4    N     N_R   0.087912 0.698483 0.797905 0.245028
O27   O     O_R   0.030259 0.647823 0.784008 -0.372433
O28   O     O_R   0.101705 0.873954 0.802566 -0.322754
N5    N     N_R   0.819518 0.675998 0.057540 0.241433
O29   O     O_R   0.830905 0.499922 0.066457 -0.341439
O30   O     O_R   0.808972 0.742306 0.992521 -0.446335
N6    N     N_R   0.180757 0.176107 0.942160 0.243306
O31   O     O_R   0.190199 0.242613 0.007378 -0.445082
O32   O     O_R   0.171330 0.999095 0.932658 -0.338868
N7    N     N_R   0.634429 0.488965 0.181245 0.265451
O33   O     O_R   0.649975 0.316034 0.174266 -0.326309
O34   O     O_R   0.579644 0.543330 0.153931 -0.227701
N8    N     N_R   0.371704 0.011446 0.825254 0.270064
O35   O     O_R   0.424319 0.080559 0.853465 -0.223907
O36   O     O_R   0.359923 0.837185 0.835739 -0.305915
N9    N     N_R   0.525607 0.721304 0.744481 0.267367
O37   O     O_R   0.505168 0.578331 0.706322 -0.343644
O38   O     O_R   0.492362 0.786734 0.792760 -0.207381
N10   N     N_R   0.463467 0.141542 0.263461 0.258054
O39   O     O_R   0.515040 0.207291 0.295491 -0.289649
O40   O     O_R   0.462139 0.971198 0.239969 -0.310934
N11   N     N_R   0.607027 0.683951 0.875065 0.275494
O41   O     O_R   0.628748 0.744624 0.938802 -0.292702
O42   O     O_R   0.572277 0.536297 0.870398 -0.250439
N12   N     N_R   0.393300 0.181473 0.125053 0.275531
O43   O     O_R   0.355575 0.112588 0.072472 -0.312982
O44   O     O_R   0.451290 0.204807 0.115297 -0.215941
N13   N     N_R   0.595033 0.569642 0.308429 0.266215
O45   O     O_R   0.535537 0.592226 0.292924 -0.304781
O46   O     O_R   0.616850 0.409973 0.331456 -0.288195
N14   N     N_R   0.412196 0.085676 0.697609 0.261800
O47   O     O_R   0.470829 0.126031 0.710832 -0.325178
O48   O     O_R   0.395589 0.917152 0.679240 -0.311459

loop_
_geom_bond_atom_site_label_1
_geom_bond_atom_site_label_2
_geom_bond_distance
_ccdc_geom_bond_type
C22   C24   1.399625 A    
C41   C43   1.421902 A    
N6    O31   1.298810 A    
C7    C29   1.415552 A    
C61   C68   1.495406 S    
C64   N6    1.435680 S    
C51   C53   1.411078 A    
C38   F2    1.359887 S    
N13   O45   1.301457 A    
O1    C3    1.338463 A    
C60   N4    1.434415 S    
C48   H12   1.081106 S    
C2    O7    1.343542 A    
N5    O29   1.300712 A    
C23   C25   1.390273 A    
C56   H14   1.082101 S    
O5    C3    1.324811 A    
C55   H13   1.081853 S    
C52   C54   1.410467 A    
C1    C36   1.494077 S    
C58   N8    1.430029 S    
C16   C20   1.438814 A    
C19   C21   1.415570 A    
C5    C29   1.402647 A    
N3    O26   1.300278 A    
H2    C24   1.084255 S    
C56   C58   1.395287 A    
N5    O30   1.299015 A    
C11   C13   1.396022 A    
C36   C38   1.404956 A    
C57   N7    1.432245 S    
C66   O17   1.332833 A    
C59   N3    1.435155 S    
C7    C27   1.409171 A    
C7    C66   1.490605 S    
C38   C40   1.408210 A    
C39   C41   1.416716 A    
C45   F3    1.358109 S    
N2    O23   1.299712 A    
C40   C42   1.416436 A    
O13   V3    1.996099 S    
C53   C63   1.414920 A    
N8    O35   1.301223 A    
C18   C26   1.405780 A    
N1    O21   1.299926 A    
C15   C17   1.433274 A    
C12   N12   1.441103 S    
C19   C27   1.426491 A    
C9    C31   1.417822 A    
C47   H11   1.080940 S    
O12   C68   1.328636 A    
O15   V3    2.001239 S    
C24   C26   1.390413 A    
O2    C4    1.337114 A    
O6    V2    1.992529 S    
C13   C15   1.408604 A    
C62   C67   1.496331 S    
N1    O22   1.301639 A    
O11   V4    2.004547 S    
C3    C32   1.497053 S    
O11   C67   1.328330 A    
C4    C31   1.495894 S    
C6    C30   1.402444 A    
O20   V3    1.754569 S    
C33   C43   1.425123 A    
N4    O28   1.300296 A    
C55   C57   1.394892 A    
O17   V3    1.980767 S    
C37   C39   1.409200 A    
C47   C49   1.406377 A    
C2    C35   1.497173 S    
N9    O37   1.299834 A    
N12   O44   1.301614 A    
C8    C65   1.490960 S    
C49   C51   1.415905 A    
C65   O18   1.333710 A    
C27   H5    1.072074 S    
O5    V1    1.996267 S    
C41   C51   1.426271 A    
O3    C1    1.349446 A    
O16   C68   1.335079 A    
C5    H3    1.084280 S    
C45   C47   1.393032 A    
C42   C44   1.423292 A    
O4    V2    2.003947 S    
C39   C45   1.407510 A    
C33   N13   1.426694 S    
O6    C4    1.325548 A    
C43   C57   1.423657 A    
O1    V2    1.976356 S    
C5    C21   1.401734 A    
O14   C66   1.323766 A    
O2    V1    1.978337 S    
C53   C55   1.401516 A    
C25   H9    1.082137 S    
H1    C23   1.084230 S    
C46   F4    1.358145 S    
C50   C52   1.415704 A    
C61   C63   1.416109 A    
C8    C28   1.409438 A    
C50   C60   1.419197 A    
C60   C62   1.415728 A    
C33   C35   1.414304 A    
C17   C31   1.428444 A    
C15   C19   1.438825 A    
C20   C28   1.426681 A    
O4    C2    1.350864 A    
C18   C32   1.429467 A    
C34   N14   1.431521 S    
C54   C64   1.415581 A    
O3    V1    2.001285 S    
N4    O27   1.301037 A    
N7    O33   1.301282 A    
C13   H7    1.075092 S    
C28   H6    1.071431 S    
N9    O38   1.300021 A    
C14   H8    1.075079 S    
O14   V4    1.992366 S    
N6    O32   1.300806 A    
N13   O46   1.300265 A    
C6    H4    1.084342 S    
C10   C12   1.408513 A    
C54   C56   1.401275 A    
C37   F1    1.359866 S    
C10   N10   1.439332 S    
C59   C61   1.416240 A    
N10   O40   1.301530 A    
C10   C32   1.421069 A    
C9    C11   1.409298 A    
C44   C58   1.422651 A    
O18   V4    1.978741 S    
O16   V4    2.003902 S    
C40   C46   1.407614 A    
N12   O43   1.301831 A    
C8    C30   1.415829 A    
N11   O42   1.301478 A    
C6    C22   1.401686 A    
C17   C25   1.405646 A    
C12   C14   1.396651 A    
C21   C23   1.399655 A    
C30   N2    1.439026 S    
O8    V2    1.995810 S    
N3    O25   1.301122 A    
C26   H10   1.081679 S    
C14   C16   1.408193 A    
O13   C65   1.323098 A    
C34   C44   1.427553 A    
C20   C22   1.415353 A    
C11   N11   1.439489 S    
C34   C36   1.414935 A    
C63   N5    1.435989 S    
O19   V4    1.755195 S    
N14   O48   1.301152 A    
O7    V1    1.994458 S    
C9    N9    1.435961 S    
N2    O24   1.301580 A    
C35   C37   1.405713 A    
N10   O39   1.297381 A    
O12   V3    2.003075 S    
C1    O8    1.343142 A    
N8    O36   1.301483 A    
O9    V2    1.756303 S    
C46   C48   1.392959 A    
C42   C52   1.426851 A    
O10   V1    1.755672 S    
C62   C64   1.416465 A    
C48   C50   1.405951 A    
C49   C59   1.419321 A    
N11   O41   1.301649 A    
O15   C67   1.335598 A    
C29   N1    1.439071 S    
C16   C18   1.433596 A    
N14   O47   1.301394 A    
N7    O34   1.300982 A    
