data_mof_unit_32871.cif
_audit_creation_date              2012-12-10T17:39:13-0500
_audit_creation_method            fapswitch 2.2
_symmetry_space_group_name_H-M    P1
_symmetry_Int_Tables_number       1
_space_group_crystal_system       triclinic
_cell_length_a                    25.535813
_cell_length_b                    34.376651
_cell_length_c                    21.502222
_cell_angle_alpha                 90.010556
_cell_angle_beta                  126.70053
_cell_angle_gamma                 89.987335
_cell_volume                      15133.7463023

loop_
_atom_site_label
_atom_site_type_symbol
_atom_type_description
_atom_site_fract_x
_atom_site_fract_y
_atom_site_fract_z
_atom_type_partial_charge
C1    C     C_R   0.858112 0.750279 0.999090 0.948099
C2    C     C_R   0.141275 0.250145 0.999718 0.942358
C3    C     C_R   0.141943 0.750334 0.001097 0.947652
C4    C     C_R   0.858727 0.250155 0.000285 0.942287
C5    C     C_R   0.358619 0.249938 0.000135 0.944326
C6    C     C_R   0.641880 0.749680 0.000946 0.935333
C7    C     C_R   0.641378 0.249929 0.999860 0.944241
C8    C     C_R   0.358245 0.749885 0.999372 0.932572
C9    C     C_3   0.262995 0.726551 0.057969 0.286558
C10   C     C_3   0.771825 0.286890 0.009610 0.258480
C11   C     C_3   0.733879 0.730932 0.936031 0.283851
C12   C     C_3   0.227953 0.286858 0.990034 0.258413
C13   C     C_3   0.728540 0.213335 0.990717 0.256822
C14   C     C_3   0.237776 0.774388 0.943901 0.288569
C15   C     C_3   0.271675 0.213364 0.009626 0.256735
C16   C     C_3   0.765928 0.769011 0.063855 0.285011
C17   C     C_3   0.733296 0.235742 0.932255 0.243294
C18   C     C_3   0.240595 0.786941 0.014527 0.252089
C19   C     C_3   0.266786 0.235903 0.067874 0.243505
C20   C     C_3   0.765491 0.787153 0.998131 0.257777
C21   C     C_3   0.259954 0.713828 0.987295 0.244989
C22   C     C_3   0.767039 0.264525 0.068109 0.244101
C23   C     C_3   0.734415 0.712771 0.001808 0.252126
C24   C     C_3   0.232874 0.264363 0.931748 0.244100
C25   C     C_3   0.801942 0.250112 0.000753 -0.287362
C26   C     C_3   0.199635 0.750521 0.002500 -0.292762
C27   C     C_3   0.198054 0.250092 0.999238 -0.287435
C28   C     C_3   0.800662 0.750283 0.998295 -0.293608
C29   C     C_3   0.301012 0.750168 0.999027 -0.292843
C30   C     C_3   0.698313 0.250131 0.999582 -0.291137
C31   C     C_3   0.699257 0.749605 0.001680 -0.291368
C32   C     C_3   0.301685 0.250148 0.000412 -0.291126
C33   C     C_3   0.796417 0.227706 0.059353 0.283328
C34   C     C_3   0.197672 0.737970 0.931976 0.249772
C35   C     C_3   0.203713 0.227554 0.940852 0.283395
C36   C     C_3   0.800236 0.732165 0.063989 0.248398
C37   C     C_3   0.303076 0.762930 0.069655 0.255629
C38   C     C_3   0.703957 0.272568 0.941010 0.286330
C39   C     C_3   0.699622 0.767789 0.935988 0.247335
C40   C     C_3   0.295907 0.272717 0.058770 0.286313
C41   C     C_R   0.664019 0.715963 0.336089 -0.293844
C42   C     C_R   0.363246 0.275111 0.663270 -0.297568
C43   C     C_R   0.334870 0.715896 0.663904 -0.296566
C44   C     C_R   0.636437 0.274911 0.336724 -0.297564
C45   C     C_R   0.142985 0.221579 0.336767 -0.289812
C46   C     C_R   0.841837 0.783196 0.663172 -0.296482
C47   C     C_R   0.857265 0.221698 0.663213 -0.289403
C48   C     C_R   0.159150 0.783367 0.336812 -0.298995
C49   C     C_R   0.647597 0.751054 0.296196 -0.161531
C50   C     C_R   0.349847 0.249892 0.703026 -0.193896
C51   C     C_R   0.352413 0.751037 0.703813 -0.161116
C52   C     C_R   0.650114 0.249883 0.296971 -0.194002
C53   C     C_R   0.149057 0.251007 0.296798 -0.175395
C54   C     C_R   0.852285 0.748647 0.703136 -0.159876
C55   C     C_R   0.850896 0.250987 0.703187 -0.175272
C56   C     C_R   0.147631 0.748658 0.296845 -0.159778
C57   C     C_R   0.671523 0.786617 0.336653 0.453564
C58   C     C_R   0.295225 0.224595 0.661160 0.492598
C59   C     C_R   0.329590 0.786659 0.663400 0.452931
C60   C     C_R   0.704967 0.224751 0.338828 0.492795
C61   C     C_R   0.196595 0.280568 0.338047 0.453218
C62   C     C_R   0.822599 0.713713 0.662074 0.437572
C63   C     C_R   0.803015 0.280385 0.661935 0.453070
C64   C     C_R   0.176132 0.713567 0.337869 0.437730
C65   C     C_R   0.716480 0.786542 0.418758 -0.097361
C66   C     C_R   0.260265 0.221037 0.580108 -0.087039
C67   C     C_R   0.284658 0.786661 0.581274 -0.097212
C68   C     C_R   0.739953 0.221157 0.419875 -0.087023
C69   C     C_R   0.241890 0.278308 0.419641 -0.102448
C70   C     C_R   0.786595 0.713154 0.580138 -0.100367
C71   C     C_R   0.757724 0.278083 0.580347 -0.102455
C72   C     C_R   0.212089 0.713100 0.419820 -0.100372
C73   C     C_R   0.731572 0.750416 0.458579 -0.025428
C74   C     C_R   0.272197 0.248549 0.540707 -0.030853
C75   C     C_R   0.268391 0.750458 0.541422 -0.025723
C76   C     C_R   0.727735 0.248495 0.459280 -0.030877
C77   C     C_R   0.232505 0.249283 0.459134 -0.022275
C78   C     C_R   0.772901 0.749140 0.540425 -0.019290
C79   C     C_R   0.767421 0.249224 0.540851 -0.022264
C80   C     C_R   0.227004 0.749190 0.459561 -0.019457
C81   C     C_R   0.705456 0.715380 0.416688 0.072942
C82   C     C_R   0.323489 0.275604 0.582758 0.068636
C83   C     C_R   0.293358 0.715335 0.583295 0.073501
C84   C     C_R   0.676161 0.275384 0.417235 0.068584
C85   C     C_R   0.183067 0.221078 0.417250 0.065682
C86   C     C_R   0.800850 0.783919 0.582460 0.074375
C87   C     C_R   0.817168 0.221185 0.582730 0.065675
C88   C     C_R   0.200176 0.784083 0.417537 0.074512
C89   C     C_R   0.105642 0.749571 0.211764 0.865819
C90   C     C_R   0.894239 0.250433 0.788245 0.820244
C91   C     C_R   0.894336 0.749573 0.788232 0.863938
C92   C     C_R   0.105756 0.250432 0.211746 0.821044
C93   C     C_R   0.606590 0.250163 0.211811 0.823324
C94   C     C_R   0.394345 0.750254 0.788485 0.837015
C95   C     C_R   0.393407 0.250161 0.788192 0.822947
C96   C     C_R   0.605644 0.750267 0.211515 0.838761
C97   C     C_R   0.747074 0.820908 0.462836 0.409053
C98   C     C_R   0.213361 0.191351 0.536719 0.418037
C99   C     C_R   0.255179 0.821171 0.537201 0.409324
C100  C     C_R   0.787161 0.191609 0.463257 0.418118
C101  C     C_R   0.295793 0.304095 0.463485 0.411383
C102  C     C_R   0.763837 0.678205 0.536212 0.395238
C103  C     C_R   0.703523 0.303675 0.536511 0.411317
C104  C     C_R   0.233599 0.678149 0.463735 0.394886
C105  C     C_R   0.788466 0.819133 0.543577 -0.253188
C106  C     C_R   0.175068 0.191950 0.456124 -0.260618
C107  C     C_R   0.213711 0.819413 0.456449 -0.253234
C108  C     C_R   0.825465 0.192205 0.543852 -0.260465
C109  C     C_R   0.335634 0.302416 0.544098 -0.253063
C110  C     C_R   0.722758 0.679820 0.455551 -0.245545
C111  C     C_R   0.663710 0.302005 0.455898 -0.253005
C112  C     C_R   0.274797 0.679747 0.544403 -0.245936
C113  C     C_R   0.956060 0.082113 0.930251 0.425205
C114  C     C_R   0.015455 0.919638 0.066376 0.425588
C115  C     C_R   0.043636 0.082373 0.070315 0.425324
C116  C     C_R   0.989905 0.920021 0.937319 0.472478
C117  C     C_R   0.442751 0.582329 0.942809 0.398846
C118  C     C_R   0.558981 0.417679 0.054216 0.393616
C119  C     C_R   0.558312 0.582371 0.055536 0.399741
C120  C     C_R   0.441822 0.417743 0.945852 0.394539
C121  C     C_R   0.999952 0.102196 0.000106 -0.317769
C122  C     C_R   0.002120 0.898973 0.001438 -0.363010
C123  C     C_R   0.500267 0.602203 0.999798 -0.275333
C124  C     C_R   0.500291 0.397695 0.000220 -0.259847
C125  C     C_R   0.039088 0.041616 0.072192 -0.111874
C126  C     C_R   0.976590 0.960056 0.932073 -0.095582
C127  C     C_R   0.960682 0.041292 0.929065 -0.109708
C128  C     C_R   0.025640 0.960144 0.070735 -0.115508
C129  C     C_R   0.558991 0.541249 0.055287 -0.109520
C130  C     C_R   0.443357 0.458677 0.942005 -0.098448
C131  C     C_R   0.442299 0.541200 0.942799 -0.108952
C132  C     C_R   0.557889 0.458700 0.057296 -0.098634
C133  C     C_R   0.000104 0.021236 0.000813 -0.157086
C134  C     C_R   0.000716 0.980495 0.001210 -0.168880
C135  C     C_R   0.500610 0.520643 0.999296 -0.148454
C136  C     C_R   0.500618 0.479327 0.999561 -0.148481
C137  C     C_R   0.073278 0.020541 0.142851 0.359618
C138  C     C_R   0.940481 0.979835 0.860256 0.356918
C139  C     C_R   0.925937 0.019811 0.858801 0.352288
C140  C     C_R   0.059152 0.980581 0.141837 0.345863
C141  C     C_R   0.616439 0.520145 0.110261 0.361400
C142  C     C_R   0.388488 0.479469 0.881705 0.364674
C143  C     C_R   0.385190 0.520045 0.886982 0.361707
C144  C     C_R   0.613253 0.479626 0.116560 0.363814
C145  C     C_R   0.000574 0.855983 0.000413 0.865055
C146  C     C_R   0.999970 0.144477 0.999980 0.886573
C147  C     C_R   0.500176 0.355542 0.000154 0.840612
C148  C     C_R   0.500121 0.644462 0.000041 0.897164
C149  C     C_R   0.000002 0.644084 0.999998 0.835109
C150  C     C_R   0.999996 0.355913 0.000001 0.812346
C151  C     C_R   0.500002 0.144076 0.000002 0.831589
C152  C     C_R   0.499998 0.855912 0.999993 0.790748
C153  C     C_R   0.940647 0.418707 0.960584 -0.260322
C154  C     C_R   0.059367 0.581283 0.039962 -0.248211
C155  C     C_R   0.059334 0.418698 0.039454 -0.260472
C156  C     C_R   0.940621 0.581297 0.960022 -0.245654
C157  C     C_R   0.440969 0.918705 0.951637 -0.248589
C158  C     C_R   0.559076 0.081250 0.048010 -0.234693
C159  C     C_R   0.559028 0.918696 0.048310 -0.250627
C160  C     C_R   0.440932 0.081260 0.951980 -0.234384
C161  C     C_R   0.999991 0.398382 0.000010 -0.041269
C162  C     C_R   0.999997 0.601611 0.999996 -0.036467
C163  C     C_R   0.499997 0.898378 0.999978 -0.056183
C164  C     C_R   0.500004 0.101588 0.999999 -0.051970
C165  C     C_R   0.059769 0.459225 0.039917 0.112300
C166  C     C_R   0.940200 0.540764 0.959885 0.114483
C167  C     C_R   0.940212 0.459236 0.960143 0.112266
C168  C     C_R   0.059784 0.540751 0.040147 0.114609
C169  C     C_R   0.559461 0.959216 0.048535 0.107455
C170  C     C_R   0.440520 0.040735 0.951595 0.103368
C171  C     C_R   0.440539 0.959225 0.951413 0.106149
C172  C     C_R   0.559485 0.040725 0.048378 0.103780
C173  C     C_R   0.999991 0.479602 0.000031 0.063056
C174  C     C_R   0.999991 0.520386 0.000026 0.061979
C175  C     C_R   0.500001 0.979587 0.999976 0.065370
C176  C     C_R   0.500002 0.020363 0.999983 0.061575
C177  C     C_R   0.118917 0.479698 0.079471 -0.210132
C178  C     C_R   0.881056 0.520285 0.920396 -0.209798
C179  C     C_R   0.881066 0.479721 0.920598 -0.210084
C180  C     C_R   0.118928 0.520261 0.079660 -0.209865
C181  C     C_R   0.618310 0.979686 0.096436 -0.205617
C182  C     C_R   0.381674 0.020261 0.903663 -0.199407
C183  C     C_R   0.381691 0.979705 0.903516 -0.204238
C184  C     C_R   0.618330 0.020241 0.096301 -0.200042
H1    H     H_    0.894783 0.403035 0.930649 0.166162
H2    H     H_    0.105261 0.596956 0.070453 0.157206
H3    H     H_    0.105200 0.403019 0.069384 0.166302
H4    H     H_    0.894723 0.596985 0.929460 0.156464
H5    H     H_    0.395292 0.903045 0.914253 0.180017
H6    H     H_    0.604796 0.096906 0.085092 0.178908
H7    H     H_    0.604703 0.903030 0.085699 0.178631
H8    H     H_    0.395212 0.096922 0.914902 0.178923
H9    H     H_    0.165101 0.464339 0.110280 0.151213
H10   H     H_    0.834861 0.535641 0.889432 0.147883
H11   H     H_    0.834881 0.464371 0.889797 0.151106
H12   H     H_    0.165124 0.535608 0.110628 0.148295
H13   H     H_    0.664260 0.964334 0.133914 0.158128
H14   H     H_    0.335707 0.035610 0.866298 0.159450
H15   H     H_    0.335740 0.964361 0.866033 0.158887
H16   H     H_    0.664298 0.035583 0.133670 0.159028
H17   H     H_    0.645113 0.688891 0.303940 0.184296
H18   H     H_    0.404096 0.295124 0.695064 0.191754
H19   H     H_    0.352926 0.688785 0.696059 0.183852
H20   H     H_    0.595381 0.294788 0.304933 0.191855
H21   H     H_    0.106361 0.199056 0.305086 0.200749
H22   H     H_    0.864184 0.809958 0.695276 0.184052
H23   H     H_    0.894146 0.199300 0.694887 0.200631
H24   H     H_    0.137623 0.810225 0.304688 0.184745
H25   H     H_    0.811337 0.845651 0.576354 0.180772
H26   H     H_    0.138936 0.169285 0.423587 0.186446
H27   H     H_    0.191699 0.846039 0.423685 0.180824
H28   H     H_    0.861839 0.169653 0.576384 0.186390
H29   H     H_    0.376501 0.322353 0.576883 0.180874
H30   H     H_    0.704995 0.652886 0.422834 0.185525
H31   H     H_    0.622624 0.321799 0.423117 0.180932
H32   H     H_    0.291623 0.652795 0.577103 0.186072
O1    O     O_3   0.000000 0.749960 0.000000 -0.510891
O2    O     O_3   0.000000 0.250040 0.000000 -0.521790
O3    O     O_3   0.500000 0.249960 0.000000 -0.513647
O4    O     O_3   0.500000 0.750040 0.000000 -0.520255
O5    O     O_R   0.859810 0.727030 0.954180 -0.627973
O6    O     O_R   0.140190 0.272970 0.045820 -0.616995
O7    O     O_R   0.140190 0.727030 0.045820 -0.626658
O8    O     O_R   0.859810 0.272970 0.954180 -0.616973
O9    O     O_R   0.359810 0.227030 0.954180 -0.636388
O10   O     O_R   0.640190 0.772970 0.045820 -0.614973
O11   O     O_R   0.640190 0.227030 0.045820 -0.636204
O12   O     O_R   0.359810 0.772970 0.954180 -0.615231
O13   O     O_R   0.056680 0.772880 0.174890 -0.645160
O14   O     O_R   0.943320 0.227120 0.825110 -0.646859
O15   O     O_R   0.943320 0.772880 0.825110 -0.641093
O16   O     O_R   0.056680 0.227120 0.174890 -0.646052
O17   O     O_R   0.556680 0.272880 0.174890 -0.654592
O18   O     O_R   0.443320 0.727120 0.825110 -0.650427
O19   O     O_R   0.443320 0.272880 0.825110 -0.654517
O20   O     O_R   0.556680 0.727120 0.174890 -0.649193
O21   O     O_R   0.992160 0.837390 0.045890 -0.612599
O22   O     O_R   0.007840 0.162610 0.954110 -0.620078
O23   O     O_R   0.007840 0.837390 0.954110 -0.636584
O24   O     O_R   0.992160 0.162610 0.045890 -0.619783
O25   O     O_R   0.492160 0.337390 0.045890 -0.651004
O26   O     O_R   0.507840 0.662610 0.954110 -0.639436
O27   O     O_R   0.507840 0.337390 0.954110 -0.650894
O28   O     O_R   0.492160 0.662610 0.045890 -0.642181
O29   O     O_R   0.946340 0.662530 0.954150 -0.652535
O30   O     O_R   0.053660 0.337470 0.045850 -0.653203
O31   O     O_R   0.053660 0.662530 0.045850 -0.651706
O32   O     O_R   0.946340 0.337470 0.954150 -0.653375
O33   O     O_R   0.446340 0.162530 0.954150 -0.636532
O34   O     O_R   0.553660 0.837470 0.045850 -0.641312
O35   O     O_R   0.553660 0.162530 0.045850 -0.636546
O36   O     O_R   0.446340 0.837470 0.954150 -0.638912
O37   O     O_R   0.118180 0.727030 0.174870 -0.625692
O38   O     O_R   0.881820 0.272970 0.825130 -0.592208
O39   O     O_R   0.881820 0.727030 0.825130 -0.624371
O40   O     O_R   0.118180 0.272970 0.174870 -0.592253
O41   O     O_R   0.618180 0.227030 0.174870 -0.611399
O42   O     O_R   0.381820 0.772970 0.825130 -0.592147
O43   O     O_R   0.381820 0.227030 0.825130 -0.611762
O44   O     O_R   0.618180 0.772970 0.174870 -0.590593
O45   O     O_R   0.905650 0.772880 0.045890 -0.629756
O46   O     O_R   0.094350 0.227120 0.954110 -0.618803
O47   O     O_R   0.094350 0.772880 0.954110 -0.632394
O48   O     O_R   0.905650 0.227120 0.045890 -0.618909
O49   O     O_R   0.405650 0.272880 0.045890 -0.608854
O50   O     O_R   0.594350 0.727120 0.954110 -0.626158
O51   O     O_R   0.594350 0.272880 0.954110 -0.608612
O52   O     O_R   0.405650 0.727120 0.045890 -0.625967
Zn1   Zn    Zn3+2 0.076680 0.717210 0.065490 0.992646
Zn2   Zn    Zn3+2 0.923320 0.282790 0.934510 0.993631
Zn3   Zn    Zn3+2 0.923320 0.717210 0.934510 0.991613
Zn4   Zn    Zn3+2 0.076680 0.282790 0.065490 0.993761
Zn5   Zn    Zn3+2 0.576680 0.217210 0.065490 0.999283
Zn6   Zn    Zn3+2 0.423320 0.782790 0.934510 1.004743
Zn7   Zn    Zn3+2 0.423320 0.217210 0.934510 0.998750
Zn8   Zn    Zn3+2 0.576680 0.782790 0.065490 1.005130
Zn9   Zn    Zn3+2 0.988820 0.782710 0.065530 0.990185
Zn10  Zn    Zn3+2 0.011180 0.217290 0.934470 0.989045
Zn11  Zn    Zn3+2 0.011180 0.782710 0.934470 0.985614
Zn12  Zn    Zn3+2 0.988820 0.217290 0.065530 0.989329
Zn13  Zn    Zn3+2 0.488820 0.282710 0.065530 0.978156
Zn14  Zn    Zn3+2 0.511180 0.717290 0.934470 0.971577
Zn15  Zn    Zn3+2 0.511180 0.282710 0.934470 0.978248
Zn16  Zn    Zn3+2 0.488820 0.717290 0.065530 0.970958
O53   O     O_3   0.912489 0.102900 0.862738 -0.532867
C185  C     C_3   0.860196 0.116800 0.862845 0.106176
H33   H     H_    0.874197 0.123801 0.921635 0.098788
H34   H     H_    0.821004 0.094655 0.837185 0.143791
C186  C     C_3   0.832475 0.153638 0.814196 -0.786254
H35   H     H_    0.817579 0.148126 0.754756 0.258579
H36   H     H_    0.789309 0.163558 0.810467 0.216717
H37   H     H_    0.869874 0.176969 0.841617 0.245331
O54   O     O_3   0.019693 0.900298 0.125672 -0.539435
C187  C     C_3   0.956617 0.899987 0.107975 0.162834
H38   H     H_    0.919974 0.886296 0.050510 0.150994
H39   H     H_    0.939757 0.930029 0.106615 0.092515
C188  C     C_3   0.958080 0.876625 0.169054 -0.778716
H40   H     H_    0.909114 0.877304 0.156423 0.195861
H41   H     H_    0.971543 0.845944 0.168664 0.274755
H42   H     H_    0.994062 0.889226 0.227429 0.242036
O55   O     O_3   0.087276 0.103399 0.137447 -0.533998
C189  C     C_3   0.139917 0.116583 0.137396 0.102245
H43   H     H_    0.126430 0.122519 0.078464 0.100600
H44   H     H_    0.179210 0.094434 0.164807 0.143841
C190  C     C_3   0.167122 0.154087 0.183932 -0.784978
H45   H     H_    0.181391 0.149691 0.243380 0.257407
H46   H     H_    0.210610 0.163457 0.187868 0.216931
H47   H     H_    0.129673 0.177353 0.154732 0.243789
O56   O     O_3   0.989309 0.901862 0.879223 -0.555792
C191  C     C_3   0.054615 0.895133 0.905567 0.198306
H48   H     H_    0.054917 0.868464 0.876600 0.176451
H49   H     H_    0.089501 0.889562 0.969212 0.125988
C192  C     C_3   0.080450 0.928601 0.884451 -0.942675
H50   H     H_    0.077435 0.956446 0.908278 0.251628
H51   H     H_    0.132291 0.923083 0.909004 0.224921
H52   H     H_    0.052524 0.930744 0.820672 0.260980
O57   O     O_3   0.390809 0.603006 0.880525 -0.562849
C193  C     C_3   0.355596 0.623474 0.901942 0.148730
H53   H     H_    0.381779 0.627013 0.965599 0.132579
H54   H     H_    0.310177 0.607518 0.879798 0.175730
C194  C     C_3   0.336173 0.663393 0.863430 -0.787135
H55   H     H_    0.308379 0.660211 0.799635 0.246353
H56   H     H_    0.304902 0.678596 0.875667 0.222141
H57   H     H_    0.380096 0.681445 0.885814 0.226456
O58   O     O_3   0.618668 0.398638 0.090244 -0.581517
C195  C     C_3   0.634046 0.376271 0.154412 0.184399
H58   H     H_    0.607937 0.348174 0.135645 0.128098
H59   H     H_    0.622771 0.391847 0.190448 0.141503
C196  C     C_3   0.706374 0.366129 0.203991 -0.831567
H60   H     H_    0.720139 0.349948 0.256506 0.191197
H61   H     H_    0.716610 0.347514 0.170163 0.262744
H62   H     H_    0.736406 0.392918 0.221905 0.290839
O59   O     O_3   0.611250 0.603117 0.116431 -0.564042
C197  C     C_3   0.644537 0.623329 0.092059 0.149804
H63   H     H_    0.616405 0.626745 0.028084 0.138750
H64   H     H_    0.689412 0.607287 0.111949 0.171734
C198  C     C_3   0.665116 0.663322 0.130164 -0.787028
H65   H     H_    0.695904 0.660255 0.194259 0.245823
H66   H     H_    0.693760 0.678620 0.114169 0.214651
H67   H     H_    0.621649 0.681187 0.110844 0.226663
O60   O     O_3   0.381854 0.399072 0.910145 -0.582996
C199  C     C_3   0.366444 0.375772 0.846980 0.188098
H68   H     H_    0.390988 0.347202 0.867021 0.126630
H69   H     H_    0.379509 0.390049 0.811531 0.140251
C200  C     C_3   0.293588 0.367014 0.796088 -0.829377
H70   H     H_    0.264878 0.394388 0.776701 0.291460
H71   H     H_    0.279975 0.349989 0.744474 0.190976
H72   H     H_    0.281453 0.349681 0.829504 0.261240
O61   O     O_3   0.116179 0.039577 0.212853 -0.568912
C201  C     C_3   0.180799 0.027192 0.246379 0.132061
H73   H     H_    0.193218 0.030443 0.205033 0.103610
H74   H     H_    0.188318 0.996353 0.265232 0.184696
C202  C     C_3   0.228042 0.051610 0.318085 -0.792208
H75   H     H_    0.218006 0.047616 0.361324 0.264332
H76   H     H_    0.279020 0.042451 0.344437 0.200468
H77   H     H_    0.222692 0.082853 0.302461 0.263180
O62   O     O_3   0.910039 0.958246 0.792240 -0.583822
C203  C     C_3   0.925771 0.972601 0.743603 0.167010
H78   H     H_    0.977586 0.982207 0.776919 0.128183
H79   H     H_    0.893601 0.997320 0.708157 0.187300
C204  C     C_3   0.913676 0.940645 0.687354 -0.789748
H80   H     H_    0.860967 0.933004 0.649051 0.259566
H81   H     H_    0.928456 0.950847 0.650914 0.211272
H82   H     H_    0.942109 0.914193 0.719478 0.273799
O63   O     O_3   0.881004 0.038317 0.788903 -0.572635
C205  C     C_3   0.817257 0.025832 0.759476 0.106719
H83   H     H_    0.807127 0.030250 0.802678 0.109399
H84   H     H_    0.809814 0.994593 0.743100 0.176796
C206  C     C_3   0.767748 0.048933 0.686663 -0.793254
H85   H     H_    0.775443 0.043653 0.641691 0.260596
H86   H     H_    0.717483 0.039746 0.663643 0.201978
H87   H     H_    0.773021 0.080498 0.699862 0.263917
O64   O     O_3   0.088465 0.960067 0.210724 -0.578532
C207  C     C_3   0.062889 0.971962 0.250658 0.131741
H88   H     H_    0.010588 0.963942 0.217553 0.128247
H89   H     H_    0.067289 0.003763 0.261638 0.180114
C208  C     C_3   0.100655 0.951664 0.329025 -0.765732
H90   H     H_    0.152492 0.961186 0.365009 0.257988
H91   H     H_    0.079143 0.959144 0.359635 0.210727
H92   H     H_    0.098798 0.919638 0.321293 0.261743
O65   O     O_3   0.675037 0.539138 0.163044 -0.563541
C209  C     C_3   0.720218 0.529833 0.147473 0.118415
H93   H     H_    0.704280 0.542741 0.091200 0.110673
H94   H     H_    0.726061 0.497935 0.144900 0.180417
C210  C     C_3   0.787047 0.546019 0.211995 -0.808668
H95   H     H_    0.804922 0.531894 0.267909 0.264671
H96   H     H_    0.822229 0.540092 0.198817 0.206512
H97   H     H_    0.784409 0.577901 0.217807 0.250331
O66   O     O_3   0.337514 0.460370 0.816103 -0.587842
C211  C     C_3   0.341585 0.467656 0.754259 0.120147
H98   H     H_    0.386726 0.454412 0.766613 0.116578
H99   H     H_    0.341705 0.499356 0.743754 0.187967
C212  C     C_3   0.282639 0.450109 0.679719 -0.823723
H100  H     H_    0.236865 0.461007 0.668811 0.264503
H101  H     H_    0.283122 0.458471 0.630181 0.220862
H102  H     H_    0.283951 0.417927 0.683657 0.243339
O67   O     O_3   0.327110 0.539018 0.832262 -0.563510
C213  C     C_3   0.279961 0.529997 0.844808 0.120282
H103  H     H_    0.293822 0.543373 0.899861 0.108012
H104  H     H_    0.274055 0.498165 0.847965 0.180272
C214  C     C_3   0.213838 0.545803 0.777699 -0.803630
H105  H     H_    0.197740 0.530923 0.723055 0.263212
H106  H     H_    0.177163 0.540504 0.788761 0.207204
H107  H     H_    0.216784 0.577537 0.770779 0.252184
O68   O     O_3   0.665044 0.460711 0.181771 -0.585987
C215  C     C_3   0.663616 0.469056 0.245288 0.121017
H108  H     H_    0.619012 0.456481 0.235409 0.115583
H109  H     H_    0.664498 0.500897 0.255264 0.188987
C216  C     C_3   0.723457 0.451615 0.319115 -0.823959
H110  H     H_    0.768560 0.461717 0.327400 0.264692
H111  H     H_    0.725177 0.460894 0.369779 0.220488
H112  H     H_    0.721323 0.419409 0.316188 0.243368
O69   O     O_3   0.721652 0.220739 0.863838 -0.623983
C217  C     C_3   0.654524 0.212408 0.808695 0.125404
H113  H     H_    0.625958 0.239599 0.783213 0.185358
H114  H     H_    0.634183 0.195649 0.834063 0.168756
C218  C     C_3   0.645212 0.188423 0.743321 -0.852404
H115  H     H_    0.671299 0.160233 0.766166 0.240349
H116  H     H_    0.592428 0.182603 0.698484 0.222446
H117  H     H_    0.664603 0.204492 0.716245 0.275344
O70   O     O_3   0.226357 0.823864 0.029914 -0.626565
C219  C     C_3   0.267555 0.852390 0.032684 0.126544
H118  H     H_    0.250061 0.860421 0.973216 0.177726
H119  H     H_    0.319251 0.842595 0.065734 0.172882
C220  C     C_3   0.265965 0.888746 0.071876 -0.886173
H120  H     H_    0.285899 0.882283 0.132906 0.253808
H121  H     H_    0.295959 0.911960 0.071405 0.218829
H122  H     H_    0.215041 0.899327 0.040740 0.258980
O71   O     O_3   0.278520 0.221061 0.136434 -0.623889
C221  C     C_3   0.345700 0.212890 0.191663 0.125232
H123  H     H_    0.374092 0.240154 0.216862 0.185366
H124  H     H_    0.366148 0.196074 0.166467 0.168762
C222  C     C_3   0.355167 0.189075 0.257287 -0.851896
H125  H     H_    0.329298 0.160808 0.234747 0.240320
H126  H     H_    0.407991 0.183406 0.302206 0.222405
H127  H     H_    0.335634 0.205194 0.284162 0.275449
O72   O     O_3   0.785385 0.825042 0.995200 -0.618759
C223  C     C_3   0.748386 0.852965 0.001954 0.135003
H128  H     H_    0.765153 0.854899 0.062750 0.181073
H129  H     H_    0.695199 0.846266 0.964074 0.172726
C224  C     C_3   0.757791 0.892685 0.978822 -0.899218
H130  H     H_    0.742157 0.891892 0.918296 0.256067
H131  H     H_    0.728108 0.914703 0.982854 0.220559
H132  H     H_    0.809922 0.901340 0.018193 0.247666
O73   O     O_3   0.272311 0.676128 0.972600 -0.633920
C225  C     C_3   0.229270 0.649107 0.970191 0.140201
H133  H     H_    0.177721 0.659348 0.933596 0.177272
H134  H     H_    0.243938 0.643186 0.029302 0.183487
C226  C     C_3   0.231785 0.610836 0.936755 -0.923272
H135  H     H_    0.214863 0.615232 0.876225 0.252194
H136  H     H_    0.282476 0.599351 0.972591 0.250150
H137  H     H_    0.199369 0.589231 0.936564 0.227509
O74   O     O_3   0.779247 0.279851 0.136658 -0.637810
C227  C     C_3   0.846650 0.287649 0.191670 0.123406
H138  H     H_    0.868863 0.301032 0.165275 0.172911
H139  H     H_    0.873385 0.260435 0.221389 0.175973
C228  C     C_3   0.856490 0.315622 0.252733 -0.904650
H140  H     H_    0.831564 0.304559 0.277314 0.263349
H141  H     H_    0.909449 0.318759 0.300255 0.221744
H142  H     H_    0.836372 0.344681 0.226763 0.254458
O75   O     O_3   0.715339 0.674637 0.004835 -0.628537
C229  C     C_3   0.752306 0.647172 0.996950 0.149790
H143  H     H_    0.805254 0.654500 0.033059 0.174514
H144  H     H_    0.733988 0.645058 0.935590 0.182391
C230  C     C_3   0.745308 0.607266 0.021735 -0.927331
H145  H     H_    0.767594 0.607348 0.084578 0.245634
H146  H     H_    0.692894 0.599265 0.988208 0.257656
H147  H     H_    0.770756 0.585164 0.010949 0.225397
O76   O     O_3   0.220570 0.279541 0.863059 -0.637340
C231  C     C_3   0.153104 0.287130 0.807938 0.123604
H148  H     H_    0.130769 0.300557 0.834163 0.172801
H149  H     H_    0.126604 0.259815 0.778536 0.176027
C232  C     C_3   0.143035 0.314929 0.746537 -0.904305
H150  H     H_    0.168234 0.303888 0.722272 0.263394
H151  H     H_    0.090062 0.317792 0.698853 0.221708
H152  H     H_    0.162698 0.344112 0.772088 0.253631
O77   O     O_3   0.272280 0.702238 0.116794 -0.604803
C233  C     C_3   0.335684 0.685919 0.160378 0.128885
H153  H     H_    0.373475 0.708353 0.195863 0.186153
H154  H     H_    0.346565 0.671607 0.122898 0.182298
C234  C     C_3   0.341348 0.655525 0.215372 -0.885804
H155  H     H_    0.304156 0.632421 0.181962 0.255075
H156  H     H_    0.390697 0.642136 0.249282 0.223220
H157  H     H_    0.333838 0.669399 0.256139 0.254967
O78   O     O_3   0.798768 0.324187 0.018714 -0.617805
C235  C     C_3   0.764833 0.352142 0.030359 0.132739
H158  H     H_    0.776867 0.349100 0.088869 0.185535
H159  H     H_    0.710946 0.349778 0.986641 0.180861
C236  C     C_3   0.785509 0.392611 0.024363 -0.855535
H160  H     H_    0.773399 0.396951 0.965898 0.251637
H161  H     H_    0.759508 0.414886 0.033967 0.221584
H162  H     H_    0.838964 0.396304 0.068863 0.261213
O79   O     O_3   0.721249 0.711348 0.870542 -0.606174
C237  C     C_3   0.655093 0.699570 0.821355 0.132518
H163  H     H_    0.622732 0.724786 0.789442 0.181991
H164  H     H_    0.638958 0.685212 0.853671 0.183569
C238  C     C_3   0.645946 0.670867 0.761829 -0.886817
H165  H     H_    0.675876 0.644459 0.791453 0.250424
H166  H     H_    0.593793 0.662228 0.721637 0.223472
H167  H     H_    0.660861 0.684453 0.727757 0.255201
O80   O     O_3   0.200777 0.324122 0.980577 -0.617703
C239  C     C_3   0.234506 0.352062 0.968610 0.132166
H168  H     H_    0.222381 0.348905 0.910072 0.184752
H169  H     H_    0.288416 0.349796 0.012260 0.180809
C240  C     C_3   0.213664 0.392536 0.974354 -0.855429
H170  H     H_    0.225844 0.396991 0.032828 0.251738
H171  H     H_    0.239502 0.414800 0.964496 0.221559
H172  H     H_    0.160179 0.396130 0.929907 0.261165
O81   O     O_3   0.701874 0.175937 0.981557 -0.609477
C241  C     C_3   0.735837 0.148167 0.969528 0.111182
H173  H     H_    0.789775 0.151041 0.012198 0.172579
H174  H     H_    0.722663 0.150873 0.910370 0.174968
C242  C     C_3   0.716698 0.107583 0.977371 -0.857569
H175  H     H_    0.663231 0.103348 0.933875 0.266694
H176  H     H_    0.742745 0.085457 0.967540 0.205844
H177  H     H_    0.729922 0.103539 0.036428 0.256702
O82   O     O_3   0.229169 0.799208 0.886061 -0.591984
C243  C     C_3   0.165530 0.815190 0.841437 0.116133
H178  H     H_    0.151261 0.826405 0.877926 0.167177
H179  H     H_    0.129124 0.793165 0.800908 0.184799
C244  C     C_3   0.162479 0.848830 0.793451 -0.823754
H180  H     H_    0.174233 0.838367 0.754214 0.280042
H181  H     H_    0.112608 0.861547 0.757979 0.212051
H182  H     H_    0.197987 0.871752 0.832094 0.249110
O83   O     O_3   0.298560 0.175994 0.019142 -0.609731
C245  C     C_3   0.264762 0.148244 0.031444 0.110512
H183  H     H_    0.210807 0.151010 0.988762 0.172882
H184  H     H_    0.277937 0.151089 0.090583 0.175050
C246  C     C_3   0.284121 0.107647 0.023965 -0.855220
H185  H     H_    0.337611 0.103520 0.067491 0.266330
H186  H     H_    0.258200 0.085539 0.034004 0.206944
H187  H     H_    0.270911 0.103466 0.964942 0.256781
O84   O     O_3   0.777858 0.788587 0.128977 -0.593711
C247  C     C_3   0.843877 0.800448 0.178822 0.109795
H188  H     H_    0.860943 0.813910 0.146806 0.173667
H189  H     H_    0.875937 0.775367 0.212358 0.185094
C248  C     C_3   0.851757 0.830166 0.236268 -0.818544
H190  H     H_    0.837059 0.817157 0.271000 0.279943
H191  H     H_    0.903593 0.839498 0.276032 0.213871
H192  H     H_    0.820877 0.856059 0.204967 0.250963
O85   O     O_3   0.848701 0.205342 0.120133 -0.595405
C249  C     C_3   0.829096 0.185668 0.160768 0.121998
H193  H     H_    0.795665 0.161326 0.125759 0.185097
H194  H     H_    0.804206 0.205297 0.176609 0.163714
C250  C     C_3   0.889084 0.168683 0.234970 -0.833163
H195  H     H_    0.922798 0.192380 0.273095 0.250241
H196  H     H_    0.874174 0.152067 0.266316 0.224864
H197  H     H_    0.914956 0.148757 0.220969 0.271410
O86   O     O_3   0.139172 0.725665 0.861715 -0.613498
C251  C     C_3   0.152031 0.713174 0.809429 0.094835
H198  H     H_    0.177672 0.684769 0.827688 0.179340
H199  H     H_    0.182124 0.734476 0.804390 0.173515
C252  C     C_3   0.087622 0.707935 0.729534 -0.809134
H200  H     H_    0.060759 0.735982 0.708712 0.256449
H201  H     H_    0.097013 0.697862 0.687946 0.214765
H202  H     H_    0.057086 0.685965 0.732130 0.270313
O87   O     O_3   0.151587 0.205024 0.880276 -0.595332
C253  C     C_3   0.171354 0.185273 0.839862 0.121801
H203  H     H_    0.204845 0.160985 0.875070 0.185168
H204  H     H_    0.196244 0.204862 0.823975 0.163541
C254  C     C_3   0.111483 0.168166 0.765710 -0.832322
H205  H     H_    0.077675 0.191797 0.727431 0.250006
H206  H     H_    0.126524 0.151533 0.734504 0.224792
H207  H     H_    0.085664 0.148235 0.779760 0.271748
O88   O     O_3   0.856433 0.714380 0.129266 -0.614879
C255  C     C_3   0.841328 0.697398 0.176633 0.091552
H208  H     H_    0.812068 0.670588 0.149506 0.180064
H209  H     H_    0.813850 0.717576 0.188024 0.169822
C256  C     C_3   0.904444 0.686160 0.254066 -0.808971
H210  H     H_    0.934991 0.712383 0.283713 0.256549
H211  H     H_    0.893178 0.672491 0.291617 0.213701
H212  H     H_    0.932180 0.665091 0.244817 0.271068
O89   O     O_3   0.362042 0.775499 0.139052 -0.621120
C257  C     C_3   0.350778 0.787535 0.192925 0.119122
H213  H     H_    0.323082 0.765501 0.200451 0.169821
H214  H     H_    0.323396 0.815318 0.174594 0.182548
C258  C     C_3   0.416176 0.794071 0.271197 -0.880370
H215  H     H_    0.444462 0.816670 0.266005 0.256251
H216  H     H_    0.408170 0.803883 0.314127 0.216003
H217  H     H_    0.444675 0.766579 0.292038 0.256722
O90   O     O_3   0.652188 0.295167 0.880113 -0.600566
C259  C     C_3   0.672274 0.314192 0.839313 0.118400
H218  H     H_    0.697381 0.294211 0.824183 0.192771
H219  H     H_    0.705718 0.338626 0.873868 0.180933
C260  C     C_3   0.612592 0.330878 0.764387 -0.799157
H220  H     H_    0.587478 0.351959 0.777567 0.256393
H221  H     H_    0.627745 0.346075 0.731911 0.240834
H222  H     H_    0.578103 0.307159 0.727621 0.255199
O91   O     O_3   0.643046 0.785597 0.871278 -0.624153
C261  C     C_3   0.656941 0.802414 0.822699 0.119970
H223  H     H_    0.682934 0.781938 0.809615 0.166331
H224  H     H_    0.687181 0.828923 0.849642 0.181452
C262  C     C_3   0.593089 0.814207 0.746534 -0.883080
H225  H     H_    0.566776 0.835517 0.757548 0.257844
H226  H     H_    0.603205 0.827740 0.707827 0.217860
H227  H     H_    0.561641 0.788251 0.717222 0.252486
O92   O     O_3   0.347544 0.295474 0.119441 -0.600490
C263  C     C_3   0.327346 0.314599 0.160049 0.118556
H228  H     H_    0.302337 0.294655 0.175358 0.192646
H229  H     H_    0.293777 0.338948 0.125256 0.180965
C264  C     C_3   0.386932 0.331467 0.234821 -0.799732
H230  H     H_    0.411942 0.352514 0.221451 0.256597
H231  H     H_    0.371691 0.346745 0.267143 0.240429
H232  H     H_    0.421544 0.307838 0.271817 0.255155
O93   O     O_3   0.650592 0.821034 0.295036 -0.542721
C265  C     C_3   0.590748 0.831996 0.280374 0.127141
H233  H     H_    0.597687 0.838311 0.335688 0.150565
H234  H     H_    0.552991 0.808885 0.248346 0.107191
C266  C     C_3   0.565307 0.868578 0.230745 -0.734043
H235  H     H_    0.557201 0.862941 0.174743 0.246945
H236  H     H_    0.518303 0.877477 0.218881 0.186221
H237  H     H_    0.601131 0.892609 0.261421 0.283867
O94   O     O_3   0.275066 0.204233 0.699051 -0.548082
C267  C     C_3   0.238630 0.229075 0.713006 0.169316
H238  H     H_    0.246945 0.260816 0.711042 0.086295
H239  H     H_    0.254016 0.223142 0.772485 0.191323
C268  C     C_3   0.165881 0.220359 0.656137 -0.834537
H240  H     H_    0.156735 0.189021 0.658379 0.295968
H241  H     H_    0.138367 0.237501 0.671578 0.206362
H242  H     H_    0.147885 0.228191 0.596317 0.251915
O95   O     O_3   0.351448 0.821047 0.705104 -0.543691
C269  C     C_3   0.411728 0.831164 0.720119 0.126358
H243  H     H_    0.405124 0.837340 0.664964 0.151870
H244  H     H_    0.448714 0.807639 0.751919 0.108904
C270  C     C_3   0.438295 0.867568 0.770241 -0.730526
H245  H     H_    0.446128 0.862037 0.826121 0.246227
H246  H     H_    0.485615 0.875838 0.782332 0.185539
H247  H     H_    0.403264 0.891989 0.739835 0.283241
O96   O     O_3   0.725335 0.204606 0.300931 -0.548081
C271  C     C_3   0.761546 0.229681 0.287029 0.168489
H248  H     H_    0.752964 0.261373 0.289079 0.086241
H249  H     H_    0.746199 0.223860 0.227531 0.191378
C272  C     C_3   0.834368 0.221154 0.343883 -0.834450
H250  H     H_    0.843769 0.189862 0.341627 0.295955
H251  H     H_    0.861743 0.238445 0.328450 0.206334
H252  H     H_    0.852306 0.228930 0.403709 0.251834
O97   O     O_3   0.197985 0.311682 0.298284 -0.537739
C273  C     C_3   0.155751 0.340948 0.291083 0.155031
H253  H     H_    0.171558 0.351135 0.349153 0.135966
H254  H     H_    0.104487 0.330221 0.257535 0.098512
C274  C     C_3   0.157227 0.375482 0.247955 -0.735845
H255  H     H_    0.143278 0.365972 0.190585 0.263452
H256  H     H_    0.122340 0.398112 0.239173 0.189867
H257  H     H_    0.207080 0.388162 0.281812 0.275373
O98   O     O_3   0.831539 0.680260 0.703148 -0.554902
C275  C     C_3   0.775989 0.674431 0.701787 0.168858
H258  H     H_    0.731601 0.668947 0.641724 0.140742
H259  H     H_    0.766506 0.700031 0.725536 0.133313
C276  C     C_3   0.787700 0.639123 0.751255 -0.720243
H260  H     H_    0.828702 0.644958 0.812798 0.262485
H261  H     H_    0.743166 0.632548 0.747000 0.184589
H262  H     H_    0.799826 0.613385 0.730851 0.276929
O99   O     O_3   0.801261 0.311375 0.701686 -0.537818
C277  C     C_3   0.843090 0.340894 0.708797 0.155622
H263  H     H_    0.827066 0.351172 0.650696 0.135939
H264  H     H_    0.894481 0.330393 0.742243 0.098752
C278  C     C_3   0.841276 0.375269 0.752011 -0.736088
H265  H     H_    0.855402 0.365650 0.809400 0.263576
H266  H     H_    0.875876 0.398091 0.760758 0.189899
H267  H     H_    0.791278 0.387744 0.718233 0.275204
O100  O     O_3   0.165922 0.679910 0.296706 -0.555583
C279  C     C_3   0.221375 0.672812 0.298415 0.167897
H268  H     H_    0.265517 0.667258 0.358615 0.140724
H269  H     H_    0.231766 0.697803 0.274328 0.132281
C280  C     C_3   0.208602 0.636993 0.249613 -0.721681
H270  H     H_    0.168092 0.642864 0.187893 0.262340
H271  H     H_    0.253068 0.629310 0.254451 0.184843
H272  H     H_    0.195229 0.611930 0.270107 0.278761
Cl1   Cl    Cl    0.739520 0.867072 0.422284 -0.583880
Cl2   Cl    Cl    0.204348 0.150233 0.578714 -0.569680
Cl3   Cl    Cl    0.264291 0.867561 0.577766 -0.582801
Cl4   Cl    Cl    0.796576 0.150648 0.421249 -0.569834
Cl5   Cl    Cl    0.320042 0.337445 0.422683 -0.585958
Cl6   Cl    Cl    0.789129 0.631199 0.576871 -0.586686
Cl7   Cl    Cl    0.678878 0.336742 0.577319 -0.586240
Cl8   Cl    Cl    0.206492 0.631271 0.423052 -0.587013

loop_
_geom_bond_atom_site_label_1
_geom_bond_atom_site_label_2
_ccdc_geom_bond_type
C132  C144  A    
C19   O71   S    
C5    O49   A    
O62   C203  S    
C14   O82   S    
C188  H41   S    
C220  H120  S    
C21   O73   S    
C213  C214  S    
C76   C79   A    
C170  C176  A    
C202  H77   S    
C275  C276  S    
C79   C87   A    
C198  H65   S    
O49   Zn13  S    
C15   C32   S    
C179  H11   S    
O91   C261  S    
C16   C31   S    
C253  C254  S    
C144  O68   S    
C177  H9    S    
C256  H212  S    
C171  C183  A    
O29   Zn3   S    
C111  H31   S    
C210  H95   S    
O30   Zn4   S    
C249  H193  S    
C229  H144  S    
C92   O16   A    
C222  H126  S    
C140  O64   S    
C106  H26   S    
O81   C241  S    
C250  H197  S    
C62   C70   A    
C203  C204  S    
C1    O5    A    
C228  H140  S    
C226  H135  S    
C182  C183  A    
C208  H92   S    
C204  H81   S    
C217  C218  S    
C262  H226  S    
C239  H168  S    
O12   Zn6   S    
C254  H206  S    
C279  C280  S    
C18   C26   S    
C45   H21   S    
O33   Zn7   S    
C195  H58   S    
O34   Zn8   S    
C180  H12   S    
C206  H87   S    
C97   C105  A    
C214  H106  S    
C217  H114  S    
C99   C107  A    
C73   C81   A    
C212  H102  S    
C9    C26   S    
C278  H265  S    
C189  H44   S    
C276  H262  S    
C191  H49   S    
C166  C174  A    
C100  C108  A    
O64   C207  S    
C12   C27   S    
C9    O77   S    
C13   C30   S    
C141  C144  A    
C199  H68   S    
C94   O18   A    
C224  H132  S    
C211  H99   S    
C20   C28   S    
C265  C266  S    
C27   C35   S    
O87   C253  S    
C21   C29   S    
C263  C264  S    
C10   C22   S    
C153  C161  A    
C20   O72   S    
C232  H152  S    
C97   Cl1   S    
C12   C40   S    
O21   Zn9   S    
O73   C225  S    
C24   C32   S    
C13   C33   S    
C257  H213  S    
C233  H154  S    
C142  O66   S    
C178  H10   S    
C175  C176  A    
C156  C166  A    
O2    Zn10  S    
C258  H217  S    
C48   H24   S    
C259  C260  S    
O3    Zn7   S    
O4    Zn16  S    
C260  H220  S    
C118  C124  A    
C280  H272  S    
C265  H234  S    
C272  H250  S    
C278  H266  S    
C116  C122  A    
C93   O41   A    
C146  O24   A    
C69   C101  A    
O97   C273  S    
C228  H142  S    
C215  H109  S    
O85   C249  S    
C160  C164  A    
C198  H67   S    
C131  C143  A    
C268  H240  S    
C150  C161  S    
C253  H203  S    
C225  H134  S    
C185  C186  S    
C231  H148  S    
C245  H183  S    
C3    C26   S    
C33   O85   S    
C199  C200  S    
O95   C269  S    
O56   C191  S    
C243  H178  S    
C119  C123  A    
C212  H100  S    
C223  H129  S    
C103  Cl7   S    
C98   C106  A    
O15   Zn11  S    
C64   O100  S    
C10   C38   S    
C17   C25   S    
O16   Zn12  S    
C101  Cl5   S    
O11   Zn5   S    
C80   C88   A    
C155  H3    S    
O100  C279  S    
C157  C171  A    
C185  H34   S    
C197  C198  S    
C158  C172  A    
C2    O46   A    
C91   O39   A    
C155  C165  A    
C16   O84   S    
C262  H225  S    
C269  H243  S    
O13   Zn9   S    
C220  H122  S    
O8    Zn2   S    
C5    O9    A    
C199  H69   S    
C61   C69   A    
C201  H73   S    
C221  H124  S    
C224  H131  S    
C107  H27   S    
C81   C110  A    
C126  C134  A    
C114  O54   S    
C194  H55   S    
O58   C195  S    
C83   C112  A    
C149  C162  S    
C242  H176  S    
C216  H110  S    
C143  O67   S    
O36   Zn6   S    
O26   Zn14  S    
C10   O78   S    
C270  H246  S    
O17   Zn13  S    
O61   C201  S    
C115  C121  A    
O42   Zn6   S    
C34   O86   S    
C43   C83   A    
C24   O76   S    
C69   C77   A    
O69   C217  S    
C48   C56   A    
C277  H264  S    
C181  H13   S    
C234  H157  S    
C243  C244  S    
C71   C79   A    
C214  H105  S    
C8    O12   A    
O71   C221  S    
C150  O32   A    
C154  H2    S    
C30   C38   S    
O54   C187  S    
C7    O11   A    
O14   Zn10  S    
C8    C29   S    
C62   O98   S    
C148  O28   A    
C110  H30   S    
O7    Zn1   S    
C55   C90   S    
C158  H6    S    
C251  H198  S    
C261  H224  S    
C192  H51   S    
C147  O25   A    
C66   C74   A    
O3    Zn5   S    
C49   C57   A    
C235  C236  S    
C258  H216  S    
C11   C23   S    
C252  H200  S    
C207  H88   S    
C272  H252  S    
C241  H174  S    
C52   C60   A    
C59   C67   A    
C129  C135  A    
C53   C61   A    
C273  H253  S    
C98   Cl2   S    
O4    Zn8   S    
C184  H16   S    
C74   C77   A    
C55   C63   A    
C6    O50   A    
C238  H166  S    
C56   C64   A    
C227  H138  S    
C11   O79   S    
C225  C226  S    
C4    O48   A    
C113  O53   S    
C116  O56   S    
O50   Zn14  S    
C90   O38   A    
C38   O90   S    
C77   C85   A    
O80   C239  S    
C170  C182  A    
C148  O26   A    
O9    Zn7   S    
O90   C259  S    
O76   C231  S    
C218  H116  S    
C246  H185  S    
C51   C59   A    
C207  H89   S    
C96   O20   A    
C268  H242  S    
C237  H164  S    
C240  H171  S    
C114  C128  A    
C82   C109  A    
C52   C93   S    
C251  C252  S    
C104  C112  A    
C197  H63   S    
C245  H184  S    
C275  H259  S    
C193  H53   S    
C226  H136  S    
C268  H241  S    
O2    Zn4   S    
C91   O15   A    
C216  H112  S    
C207  C208  S    
C47   C87   A    
C267  H239  S    
C68   C100  A    
O78   C235  S    
C128  C134  A    
C244  H181  S    
O92   C263  S    
C165  C177  A    
C132  C136  A    
C194  H57   S    
C227  C228  S    
O24   Zn12  S    
C234  H155  S    
C60   O96   S    
C58   O94   S    
O4    Zn14  S    
C264  H232  S    
C203  H79   S    
C236  H161  S    
C205  C206  S    
C28   C36   S    
C259  H218  S    
C267  H238  S    
C42   C50   A    
C10   C25   S    
C56   C89   S    
C23   C36   S    
C235  H158  S    
C219  H118  S    
C190  H47   S    
C213  H104  S    
C42   H18   S    
C67   C75   A    
C14   C29   S    
C85   C106  A    
C35   O87   S    
C152  O36   A    
C214  H107  S    
C150  O30   A    
C71   C103  A    
C255  H208  S    
C273  H254  S    
C22   C30   S    
C257  C258  S    
C247  H188  S    
C154  C162  A    
O22   Zn10  S    
C231  C232  S    
O5    Zn3   S    
C104  Cl8   S    
C227  H139  S    
C196  H61   S    
C222  H125  S    
C103  C111  A    
C232  H151  S    
C12   C24   S    
C13   C17   S    
C45   C85   A    
C223  H128  S    
C274  H257  S    
C264  H230  S    
C72   C80   A    
O96   C271  S    
O48   Zn12  S    
C249  H194  S    
C229  C230  S    
C94   O42   A    
C230  H146  S    
C279  H269  S    
C17   C38   S    
C112  H32   S    
C233  H153  S    
C117  C131  A    
C269  H244  S    
C208  H91   S    
C152  C163  S    
C118  C132  A    
C19   C40   S    
O44   Zn8   S    
C113  C121  A    
C123  C148  S    
C219  C220  S    
C254  H205  S    
C44   H20   S    
C121  C146  S    
C90   O14   A    
C195  H59   S    
C210  H96   S    
O79   C237  S    
C239  C240  S    
C138  O62   S    
O72   C223  S    
C172  C176  A    
C25   C33   S    
C206  H86   S    
C255  C256  S    
C167  C179  A    
C209  H93   S    
C119  C129  A    
C99   Cl3   S    
C252  H201  S    
C151  C164  S    
O20   Zn16  S    
C13   O81   S    
C76   C84   A    
C202  H75   S    
C135  C136  A    
C155  C161  A    
C15   C19   S    
C276  H261  S    
O70   C219  S    
C248  H192  S    
O59   C197  S    
C39   O91   S    
C47   C55   A    
C206  H85   S    
C187  H38   S    
C263  H229  S    
C256  H211  S    
C129  C141  A    
C101  C109  A    
C2    O6    A    
C246  H187  S    
C105  H25   S    
C46   H22   S    
C188  H40   S    
C41   C49   A    
C205  H83   S    
C257  H214  S    
C202  H76   S    
C120  O60   S    
C237  H163  S    
C118  O58   S    
C186  H37   S    
C75   C83   A    
O37   Zn1   S    
O18   Zn14  S    
O23   Zn11  S    
O98   C275  S    
C1    C28   S    
C3    O7    A    
C48   C88   A    
O43   Zn7   S    
C2    C27   S    
C166  C178  A    
C139  O63   S    
C249  C250  S    
C67   C99   A    
O82   C243  S    
C167  C173  A    
C5    C32   S    
O1    Zn9   S    
C6    C31   S    
C271  C272  S    
C7    C30   S    
C57   O93   S    
O84   C247  S    
C153  C167  A    
C220  H121  S    
C277  C278  S    
C154  C168  A    
C236  H162  S    
O10   Zn8   S    
O74   C227  S    
C74   C82   A    
C152  O34   A    
C280  H271  S    
C198  H66   S    
C4    C25   S    
C239  H169  S    
C156  H4    S    
C253  H204  S    
C84   C111  A    
O28   Zn16  S    
C260  H221  S    
O4    Zn6   S    
C50   C58   A    
C159  H7    S    
C160  H8    S    
C187  C188  S    
C88   C107  A    
C229  H143  S    
C151  O35   A    
C21   C34   S    
C54   C62   A    
C209  C210  S    
C93   O17   A    
O88   C255  S    
C243  H179  S    
C223  C224  S    
C168  C174  A    
C14   C34   S    
O86   C251  S    
C250  H196  S    
C133  C134  A    
O40   Zn4   S    
C100  Cl4   S    
C237  C238  S    
O51   Zn15  S    
C96   O44   A    
C254  H207  S    
C41   C81   A    
C46   C54   A    
C169  C175  A    
C59   O95   S    
C235  H159  S    
C221  C222  S    
C169  C181  A    
C63   C71   A    
O38   Zn2   S    
C92   O40   A    
C217  H113  S    
C247  H189  S    
C102  C110  A    
C248  H191  S    
C41   H17   S    
C12   O80   S    
C278  H267  S    
C270  H245  S    
C204  H80   S    
C181  C184  A    
C224  H130  S    
C20   C39   S    
C191  H48   S    
C149  O29   A    
C159  C169  A    
C263  H228  S    
O55   C189  S    
C127  C133  A    
C57   C65   A    
C44   C84   A    
C37   O89   S    
C70   C102  A    
C211  H98   S    
C102  Cl6   S    
C17   O69   S    
C109  H29   S    
C273  C274  S    
C125  C137  A    
C242  H177  S    
C54   C91   S    
O1    Zn3   S    
C7    O51   A    
C251  H199  S    
C261  C262  S    
C66   C98   A    
C192  H50   S    
C11   C28   S    
C43   C51   A    
O47   Zn11  S    
C137  C140  A    
C6    O10   A    
C231  H149  S    
C128  C140  A    
C265  H233  S    
C271  H249  S    
C272  H251  S    
C138  C139  A    
O1    Zn11  S    
C75   C80   A    
C60   C68   A    
C190  H45   S    
C29   C37   S    
C277  H263  S    
C186  H36   S    
C61   O97   S    
O63   C205  S    
C15   O83   S    
O67   C213  S    
C16   C36   S    
C124  C147  S    
C23   C31   S    
C191  C192  S    
C108  H28   S    
O3    Zn15  S    
C225  H133  S    
C70   C78   A    
C196  H60   S    
C14   C18   S    
C42   C82   A    
C8    O52   A    
C222  H127  S    
C211  C212  S    
C218  H115  S    
C256  H210  S    
C151  O33   A    
O39   Zn3   S    
C173  C174  A    
C95   O43   A    
C266  H237  S    
C212  H101  S    
C189  C190  S    
C240  H170  S    
O53   C185  S    
C117  O57   S    
O57   C193  S    
O52   Zn16  S    
C120  C130  A    
C260  H222  S    
O60   C199  S    
C18   C37   S    
O65   C209  S    
C242  H175  S    
C131  C135  A    
C185  H33   S    
O31   Zn1   S    
C197  H64   S    
C50   C95   S    
C201  C202  S    
C165  C173  A    
O46   Zn10  S    
C65   C73   A    
O19   Zn15  S    
C238  H165  S    
C122  C145  S    
C228  H141  S    
C221  H123  S    
C36   O88   S    
C234  H156  S    
C271  H248  S    
C58   C66   A    
C142  C143  A    
C87   C108  A    
C194  H56   S    
C215  C216  S    
C145  O21   A    
C193  H54   S    
C73   C78   A    
C147  O27   A    
C218  H117  S    
C264  H231  S    
C19   C27   S    
C236  H160  S    
C157  C163  A    
C16   C20   S    
C270  H247  S    
O27   Zn15  S    
C226  H137  S    
C32   C40   S    
C156  C162  A    
C149  O31   A    
C116  C126  A    
C219  H119  S    
C245  C246  S    
C203  H78   S    
C127  C139  A    
C195  C196  S    
C130  C142  A    
C95   O19   A    
C15   C35   S    
C266  H236  S    
C26   C34   S    
C250  H195  S    
C205  H84   S    
C255  H209  S    
C267  C268  S    
C24   C35   S    
C266  H235  S    
C146  O22   A    
O77   C233  S    
O2    Zn2   S    
C261  H223  S    
C192  H52   S    
C188  H42   S    
C233  C234  S    
C190  H46   S    
C232  H150  S    
C4    O8    A    
C171  C175  A    
C247  C248  S    
C183  H15   S    
C204  H82   S    
C200  H72   S    
C40   O92   S    
C201  H74   S    
O75   C229  S    
C241  H173  S    
C168  C180  A    
C172  C184  A    
C22   O74   S    
C177  C180  A    
C141  O65   S    
C248  H190  S    
C53   C92   S    
C9    C37   S    
C230  H145  S    
C63   O99   S    
O32   Zn2   S    
C119  O59   S    
C115  O55   S    
C68   C76   A    
C11   C39   S    
C269  C270  S    
C208  H90   S    
C193  C194  S    
C1    O45   A    
O3    Zn13  S    
C3    O47   A    
C43   H19   S    
C196  H62   S    
C159  C163  A    
C86   C105  A    
C216  H111  S    
C9    C21   S    
C262  H227  S    
C186  H35   S    
C274  H255  S    
C244  H180  S    
C125  C133  A    
C215  H108  S    
C22   C33   S    
C189  H43   S    
C126  C138  A    
C240  H172  S    
C209  H94   S    
C279  H268  S    
C130  C136  A    
O35   Zn5   S    
O25   Zn13  S    
C252  H202  S    
C44   C52   A    
C259  H219  S    
O93   C265  S    
C275  H258  S    
C113  C127  A    
C158  C164  A    
O45   Zn9   S    
C276  H260  S    
O41   Zn5   S    
C230  H147  S    
C115  C125  A    
O94   C267  S    
C47   H23   S    
C238  H167  S    
C89   O13   A    
C210  H97   S    
C117  C123  A    
C65   C97   A    
O6    Zn4   S    
O99   C277  S    
C23   O75   S    
C187  H39   S    
C78   C86   A    
C200  H71   S    
O66   C211  S    
C153  H1    S    
O1    Zn1   S    
C145  O23   A    
C246  H186  S    
C18   O70   S    
C31   C39   S    
O68   C215  S    
C64   C72   A    
C49   C96   S    
O89   C257  S    
C244  H182  S    
C157  H5    S    
C51   C94   S    
C45   C53   A    
C114  C122  A    
C137  O61   S    
O2    Zn12  S    
C258  H215  S    
C241  C242  S    
C280  H270  S    
C160  C170  A    
C213  H103  S    
C89   O37   A    
C182  H14   S    
C274  H256  S    
C200  H70   S    
O83   C245  S    
C72   C104  A    
C120  C124  A    
C178  C179  A    
C46   C86   A    
