data_mof_unit_43355.cif
_audit_creation_date              2013-03-05T16:12:47-0500
_audit_creation_method            fapswitch 2.2
_symmetry_space_group_name_H-M    P1
_symmetry_Int_Tables_number       1
_space_group_crystal_system       triclinic
_cell_length_a                    10.6175
_cell_length_b                    9.837673
_cell_length_c                    27.641422
_cell_angle_alpha                 90.162729
_cell_angle_beta                  89.611671
_cell_angle_gamma                 90.040729
_cell_volume                      2887.10915085

loop_
_atom_site_label
_atom_site_type_symbol
_atom_site_description
_atom_site_fract_x
_atom_site_fract_y
_atom_site_fract_z
_atom_type_partial_charge
O1    O     O_R   0.316770 0.614620 0.500000 -0.615066
O2    O     O_R   0.683230 0.385380 0.500000 -0.615408
O3    O     O_R   0.683230 0.614620 0.500000 -0.615053
O4    O     O_R   0.316770 0.385380 0.500000 -0.615186
C1    C     C_R   0.260555 0.499948 0.500356 0.925801
C2    C     C_R   0.739444 0.500048 0.499636 0.925713
O5    O     O_R   0.500030 0.614650 0.428760 -0.620526
O6    O     O_R   0.499970 0.385350 0.571240 -0.622741
O7    O     O_R   0.499970 0.614650 0.571240 -0.626451
O8    O     O_R   0.500030 0.385350 0.428760 -0.628198
C3    C     C_R   0.499888 0.499659 0.405926 0.858479
C4    C     C_R   0.500498 0.500095 0.594083 0.858646
Zn1   Zn    Zn3+2 0.500000 0.653120 0.500000 0.951097
Zn2   Zn    Zn3+2 0.500000 0.346880 0.500000 0.949327
C5    C     C_R   0.393255 0.453469 0.177969 0.519316
C6    C     C_R   0.613538 0.464788 0.821874 0.517991
O9    O     O_2   0.287129 0.432649 0.204094 -0.557219
O10   O     O_2   0.720945 0.454673 0.795698 -0.555607
N1    N     N_R   0.502551 0.487558 0.200778 -0.350442
N2    N     N_R   0.502006 0.489292 0.799202 -0.351275
C7    C     C_R   0.611782 0.511156 0.175843 0.504209
C8    C     C_R   0.390970 0.499744 0.824128 0.503770
C9    C     C_R   0.524984 0.369706 0.278266 0.234933
C10   C     C_R   0.511643 0.620600 0.723551 0.241007
C11   C     C_R   0.523365 0.374268 0.328675 -0.207603
C12   C     C_R   0.511217 0.621702 0.672961 -0.207942
C13   C     C_R   0.482847 0.617204 0.326763 -0.218478
C14   C     C_R   0.489280 0.375864 0.671714 -0.215849
C15   C     C_R   0.483781 0.613362 0.276501 -0.143653
C16   C     C_R   0.489289 0.374143 0.721811 -0.154018
C17   C     C_R   0.504278 0.490310 0.252299 0.319548
C18   C     C_R   0.500492 0.495461 0.747735 0.321038
C19   C     C_R   0.503572 0.459687 0.101220 -0.056337
C20   C     C_R   0.503112 0.458992 0.898612 -0.057104
C21   C     C_R   0.391684 0.438542 0.127650 -0.071680
C22   C     C_R   0.616341 0.449527 0.872144 -0.071967
C23   C     C_R   0.282670 0.396812 0.103726 -0.147049
C24   C     C_R   0.728559 0.419529 0.896002 -0.145858
C25   C     C_R   0.614589 0.497357 0.125490 -0.006260
C26   C     C_R   0.389264 0.484819 0.874411 -0.005446
C27   C     C_R   0.501969 0.497493 0.353095 -0.082541
C28   C     C_R   0.500258 0.499508 0.646937 -0.083576
H1    H     H_    0.466103 0.713238 0.344947 0.165078
H2    H     H_    0.480538 0.280313 0.652462 0.170123
H3    H     H_    0.467963 0.705751 0.256228 0.147173
H4    H     H_    0.480964 0.278244 0.740723 0.144880
H5    H     H_    0.198778 0.370680 0.124288 0.199440
H6    H     H_    0.814408 0.402387 0.875401 0.199783
C29   C     C_R   0.388240 0.444384 0.975367 0.064681
C30   C     C_R   0.619247 0.456935 0.024449 0.064438
C31   C     C_R   0.620144 0.433590 0.973880 0.022265
C32   C     C_R   0.389446 0.421500 0.025899 0.022856
C33   C     C_R   0.503822 0.444447 0.949338 0.031299
C34   C     C_R   0.504199 0.444907 0.050467 0.031848
C35   C     C_R   0.276967 0.478691 0.950692 -0.224978
C36   C     C_R   0.726851 0.503114 0.049196 -0.225342
C37   C     C_R   0.277179 0.497015 0.900904 -0.144456
C38   C     C_R   0.724992 0.521474 0.099023 -0.144423
O11   O     O_2   0.282852 0.523476 0.800179 -0.555043
O12   O     O_2   0.717305 0.545994 0.199866 -0.554693
C39   C     C_R   0.281271 0.382531 0.053425 0.174503
C40   C     C_R   0.731320 0.406095 0.946296 0.179457
H7    H     H_    0.520124 0.717465 0.653965 0.159725
H8    H     H_    0.539251 0.281592 0.348825 0.164487
H9    H     H_    0.189257 0.521815 0.883343 0.191275
H10   H     H_    0.810284 0.555427 0.116649 0.191782
H11   H     H_    0.189587 0.497528 0.969739 0.166297
H12   H     H_    0.812105 0.531117 0.030197 0.168076
C41   C     C_R   0.067466 0.482980 0.455689 0.129588
C42   C     C_R   0.932532 0.517089 0.544299 0.130610
C43   C     C_R   0.936218 0.483077 0.455137 0.140238
C44   C     C_R   0.063778 0.516709 0.544861 0.138675
C45   C     C_R   0.871965 0.500176 0.499533 -0.119673
C46   C     C_R   0.128032 0.499793 0.500459 -0.120020
C47   C     C_R   0.573438 0.072261 0.531616 -0.065157
C48   C     C_R   0.426560 0.927739 0.468385 -0.062641
C49   C     C_R   0.426562 0.071668 0.468384 -0.066682
C50   C     C_R   0.573437 0.928332 0.531617 -0.065224
H13   H     H_    0.632156 0.127070 0.556881 0.130910
H14   H     H_    0.367837 0.872930 0.443121 0.128676
H15   H     H_    0.367843 0.126009 0.443122 0.129200
H16   H     H_    0.632151 0.873989 0.556881 0.126368
N3    N     N_R   0.500000 0.857200 0.500000 -0.081282
N4    N     N_R   0.500000 0.142800 0.500000 -0.082092
C51   C     C_3   0.524676 0.751372 0.751416 -0.885706
H17   H     H_    0.533345 0.840295 0.726939 0.231540
H18   H     H_    0.440633 0.766711 0.774901 0.257969
H19   H     H_    0.610073 0.747269 0.774323 0.254337
C52   C     C_3   0.548754 0.237124 0.252433 -0.889815
H20   H     H_    0.564938 0.152653 0.278233 0.234538
H21   H     H_    0.466280 0.210317 0.229859 0.254492
H22   H     H_    0.633407 0.246462 0.228879 0.254010
C53   C     C_3   0.169735 0.308049 0.032422 -0.932402
H23   H     H_    0.189313 0.267623 0.995654 0.258813
H24   H     H_    0.146677 0.218178 0.055084 0.251812
H25   H     H_    0.086300 0.375905 0.032112 0.238875
C54   C     C_3   0.849249 0.344548 0.967233 -0.940995
H26   H     H_    0.881016 0.257839 0.944382 0.253723
H27   H     H_    0.925759 0.421485 0.967839 0.233761
H28   H     H_    0.833303 0.302006 0.003870 0.258612
C55   C     C_3   0.145613 0.466402 0.409532 -0.856780
H29   H     H_    0.205416 0.374228 0.412262 0.237581
H30   H     H_    0.090129 0.455571 0.376051 0.256629
H31   H     H_    0.207286 0.556623 0.404620 0.228105
C56   C     C_3   0.854390 0.533980 0.590445 -0.858575
H32   H     H_    0.794590 0.626139 0.587645 0.235258
H33   H     H_    0.792711 0.443800 0.595432 0.230589
H34   H     H_    0.909877 0.545066 0.623914 0.256674
C57   C     C_3   0.866313 0.466059 0.407619 -0.843727
H35   H     H_    0.762638 0.468164 0.411230 0.223700
H36   H     H_    0.892059 0.549894 0.382612 0.248405
H37   H     H_    0.890971 0.366682 0.390931 0.246036
C58   C     C_3   0.133684 0.533174 0.592401 -0.840372
H38   H     H_    0.237358 0.530399 0.588818 0.224124
H39   H     H_    0.109494 0.632643 0.609117 0.247132
H40   H     H_    0.107464 0.449417 0.617370 0.247293

loop_
_geom_bond_atom_site_label_1
_geom_bond_atom_site_label_2
_geom_bond_distance
_ccdc_geom_bond_type
C53   H23   1.108714 S    
C13   C15   1.389683 A    
Zn2   N4    2.007672 S    
O3    C2    1.275753 A    
N1    C17   1.424555 S    
C54   H26   1.111217 S    
C51   H17   1.110798 S    
C5    N1    1.365564 A    
C56   H33   1.110652 S    
C19   C25   1.409064 A    
O1    C1    1.275927 A    
N1    C7    1.365158 A    
C10   C12   1.398482 A    
C32   C39   1.426258 A    
C57   H36   1.110446 S    
C39   C53   1.510641 S    
C47   N4    1.366265 A    
C14   C28   1.402028 A    
C1    C46   1.407052 S    
C41   C43   1.393712 A    
C13   C27   1.401823 A    
O7    Zn1   2.006263 S    
C50   N3    1.366164 A    
C38   H10   1.083354 S    
C4    C28   1.460953 S    
C9    C52   1.505821 S    
C23   H5    1.084498 S    
C10   C51   1.504336 S    
C24   H6    1.084505 S    
O3    Zn1   1.982235 S    
C6    N2    1.365452 A    
C58   H40   1.110446 S    
C53   H24   1.111196 S    
O2    C2    1.275893 A    
C31   C40   1.426514 A    
C48   N3    1.366265 A    
C5    C21   1.398415 A    
C54   H27   1.110082 S    
C32   C34   1.417237 A    
C51   H18   1.110063 S    
C56   H34   1.105251 S    
C55   H29   1.110388 S    
C48   C49   1.415924 A    
C7    O12   1.349799 S    
C44   C46   1.409669 A    
O8    Zn2   2.006269 S    
C57   H37   1.110523 S    
C11   C27   1.403712 A    
C8    O11   1.349851 S    
C43   C45   1.409704 A    
C49   N4    1.366157 A    
C29   C35   1.409864 A    
C25   C38   1.398050 A    
C44   C58   1.521757 S    
C14   H2    1.083108 S    
C30   C36   1.409853 A    
C15   H3    1.082918 S    
C31   C33   1.417359 A    
C11   H8    1.083646 S    
C9    C17   1.406616 A    
O5    C3    1.293849 A    
C12   H7    1.083597 S    
C10   C18   1.407076 A    
C40   C54   1.510694 S    
C50   H16   1.081932 S    
C35   H11   1.079507 S    
C7    C25   1.398154 A    
C49   H15   1.081912 S    
O6    C4    1.291884 A    
C29   C32   1.415591 A    
C8    C26   1.398039 A    
C42   C45   1.407760 A    
C30   C31   1.415854 A    
C41   C46   1.407742 A    
C30   C34   1.418347 A    
C52   H22   1.110180 S    
C6    O10   1.349994 S    
N2    C8    1.365247 A    
C55   H31   1.110693 S    
O8    C3    1.291124 A    
C35   C37   1.388471 A    
C20   C26   1.409089 A    
C52   H21   1.109883 S    
C54   H28   1.108780 S    
C12   C28   1.404304 A    
C2    C45   1.407025 S    
C58   H38   1.104882 S    
N2    C18   1.424285 S    
C51   H19   1.110239 S    
C19   C34   1.409974 A    
C5    O9    1.350021 S    
O6    Zn2   2.004152 S    
C26   C37   1.398138 A    
C21   C23   1.397748 A    
C16   H4    1.083144 S    
C48   H14   1.081864 S    
C37   H9    1.083392 S    
O4    C1    1.275723 A    
C42   C56   1.525669 S    
C23   C39   1.397250 A    
C41   C55   1.525624 S    
C53   H25   1.109695 S    
C56   H32   1.110398 S    
Zn1   N3    2.007672 S    
C22   C24   1.397798 A    
C15   C17   1.397890 A    
C36   H12   1.079367 S    
C57   H35   1.104825 S    
C6    C22   1.398567 A    
C16   C18   1.395771 A    
C29   C33   1.418331 A    
C43   C57   1.521803 S    
C14   C16   1.384877 A    
C19   C21   1.406051 A    
C36   C38   1.388591 A    
C3    C27   1.460439 S    
C20   C22   1.406072 A    
C9    C11   1.393967 A    
O4    Zn2   1.982235 S    
O2    Zn2   1.981706 S    
C47   C50   1.415928 A    
O7    C4    1.293389 A    
C13   H1    1.083112 S    
O5    Zn1   2.004158 S    
O1    Zn1   1.981706 S    
C20   C33   1.409915 A    
C55   H30   1.105255 S    
C42   C44   1.393710 A    
C58   H39   1.110487 S    
C52   H20   1.110799 S    
C47   H13   1.081851 S    
C24   C40   1.397368 A    
