data_mof_unit_50764.cif
_audit_creation_date              2012-12-10T17:30:22-0500
_audit_creation_method            fapswitch 2.2
_symmetry_space_group_name_H-M    P1
_symmetry_Int_Tables_number       1
_space_group_crystal_system       triclinic
_cell_length_a                    11.990195
_cell_length_b                    12.812585
_cell_length_c                    14.951813
_cell_angle_alpha                 89.450312
_cell_angle_beta                  85.967454
_cell_angle_gamma                 94.68932
_cell_volume                      2283.34970861

loop_
_atom_site_label
_atom_site_type_symbol
_atom_type_description
_atom_site_fract_x
_atom_site_fract_y
_atom_site_fract_z
_atom_type_partial_charge
C1    C     C_R   0.523687 0.700612 0.495638 0.914560
C2    C     C_R   0.476314 0.299387 0.504365 0.914560
C3    C     C_R   0.673629 0.615946 0.942184 0.425950
C4    C     C_R   0.326282 0.384153 0.057815 0.425952
C5    C     C_R   0.459373 0.187218 0.510005 -0.158406
C6    C     C_R   0.540634 0.812782 0.490006 -0.158417
C7    C     C_R   0.623635 0.974492 0.420516 0.141795
C8    C     C_R   0.376382 0.025511 0.579507 0.141790
C9    C     C_R   0.622578 0.865472 0.429928 0.126100
C10   C     C_R   0.377432 0.134529 0.570087 0.126098
C11   C     C_R   0.463810 0.866295 0.541374 -0.251874
C12   C     C_R   0.536205 0.133705 0.458645 -0.251859
C13   C     C_R   0.459753 0.972787 0.530654 0.053147
C14   C     C_R   0.540266 0.027215 0.469369 0.053139
C15   C     C_R   0.956074 0.433139 0.396627 0.082180
C16   C     C_R   0.043925 0.566850 0.603380 0.082160
C17   C     C_R   0.839519 0.435654 0.409585 0.019527
C18   C     C_R   0.160480 0.564340 0.590419 0.019523
C19   C     C_R   0.856661 0.524043 0.547072 0.001301
C20   C     C_R   0.143338 0.475955 0.452930 0.001317
C21   C     C_R   0.974748 0.523049 0.538365 -0.006827
C22   C     C_R   0.025251 0.476946 0.461640 -0.006821
C23   C     C_R   0.499917 0.500198 0.673131 0.883849
C24   C     C_R   0.500081 0.499801 0.326869 0.883844
C25   C     C_R   0.412606 0.444974 0.191476 -0.193637
C26   C     C_R   0.587379 0.555037 0.808524 -0.193626
C27   C     C_R   0.500774 0.498863 0.231286 -0.091544
C28   C     C_R   0.499214 0.501150 0.768713 -0.091554
C29   C     C_R   0.590580 0.550742 0.180519 -0.158531
C30   C     C_R   0.409368 0.449323 0.819480 -0.158538
C31   C     C_R   0.591316 0.553363 0.087591 0.010637
C32   C     C_R   0.408607 0.446731 0.912409 0.010615
C33   C     C_R   0.500841 0.499277 0.046523 -0.027870
C34   C     C_R   0.499088 0.500802 0.953477 -0.027882
C35   C     C_R   0.412764 0.442442 0.098754 -0.008387
C36   C     C_R   0.587180 0.557617 0.901246 -0.008412
C37   C     C_R   0.678866 0.609827 0.035133 0.069664
C38   C     C_R   0.321027 0.390307 0.964868 0.069647
H1    H     H_    0.344902 0.404109 0.233306 0.192123
H2    H     H_    0.655108 0.595876 0.766695 0.192153
H3    H     H_    0.657326 0.591303 0.214775 0.194708
H4    H     H_    0.342615 0.408771 0.785224 0.194716
H5    H     H_    0.594747 0.177898 0.411568 0.193847
H6    H     H_    0.405270 0.822100 0.588451 0.193841
H7    H     H_    0.184840 0.439537 0.396344 0.161740
H8    H     H_    0.815159 0.560462 0.603657 0.161717
H9    H     H_    0.213744 0.597046 0.640371 0.163962
H10   H     H_    0.786254 0.402945 0.359634 0.163964
N1    N     N_R   0.207800 0.519350 0.516680 -0.123988
N2    N     N_R   0.792200 0.480650 0.483320 -0.123984
O1    O     O_R   0.421700 0.658830 0.504450 -0.614248
O2    O     O_R   0.578300 0.341170 0.495550 -0.614257
O3    O     O_R   0.609310 0.646410 0.493750 -0.596293
O4    O     O_R   0.390690 0.353590 0.506250 -0.596283
O5    O     O_R   0.406180 0.506230 0.637500 -0.622640
O6    O     O_R   0.593820 0.493770 0.362500 -0.622626
O7    O     O_R   0.593800 0.493820 0.626800 -0.623339
O8    O     O_R   0.406200 0.506180 0.373200 -0.623327
Zn1   Zn    Zn3+2 0.374730 0.508290 0.507150 0.984580
Zn2   Zn    Zn3+2 0.625270 0.491710 0.492850 0.984572
I1    I     I_    0.018886 0.365517 0.276161 -0.276938
I2    I     I_    0.981105 0.634443 0.723866 -0.276863
I3    I     I_    0.822691 0.686388 0.090993 -0.212586
I4    I     I_    0.177115 0.313858 0.909006 -0.212597
O9    O     O_3   0.754966 0.677528 0.891016 -0.566623
C39   C     C_3   0.716317 0.778083 0.880863 0.071039
H11   H     H_    0.705148 0.816507 0.947039 0.168644
H12   H     H_    0.635181 0.773798 0.848418 0.130383
C40   C     C_3   0.801970 0.846408 0.821784 -0.671463
H13   H     H_    0.810029 0.813474 0.753431 0.256493
H14   H     H_    0.774308 0.926750 0.816724 0.204475
H15   H     H_    0.884884 0.850610 0.850976 0.285955
O10   O     O_3   0.244927 0.322586 0.108977 -0.566639
C41   C     C_3   0.283499 0.221980 0.119043 0.070919
H16   H     H_    0.364535 0.226177 0.151629 0.130458
H17   H     H_    0.294821 0.183680 0.052820 0.168542
C42   C     C_3   0.197683 0.153579 0.177907 -0.671182
H18   H     H_    0.114811 0.149626 0.148667 0.286024
H19   H     H_    0.225168 0.073115 0.182777 0.204455
H20   H     H_    0.189662 0.186302 0.246328 0.256495
I5    I     I_    0.261655 0.218853 0.651587 -0.250553
I6    I     I_    0.738352 0.781144 0.348415 -0.250529
I7    I     I_    0.751268 0.057772 0.332314 -0.281004
I8    I     I_    0.248755 0.942237 0.667720 -0.281009

loop_
_geom_bond_atom_site_label_1
_geom_bond_atom_site_label_2
_ccdc_geom_bond_type
C39   H12   S    
C8    C13   A    
O5    Zn1   S    
C27   C29   A    
O10   C41   S    
C7    I7    S    
C17   H10   S    
C18   H9    S    
C6    C9    A    
C19   H8    S    
C15   C22   A    
C42   H18   S    
C16   C21   A    
C41   H17   S    
C19   C21   A    
C12   H5    S    
C39   C40   S    
O6    Zn2   S    
C15   C17   A    
C40   H14   S    
C1    O3    A    
O2    Zn2   S    
C7    C14   A    
C41   C42   S    
C24   C27   S    
C32   C38   A    
C20   H7    S    
C9    I6    S    
C39   H11   S    
C4    C35   A    
C21   C22   A    
C3    O9    S    
C16   I2    S    
C37   I3    S    
O3    Zn2   S    
C38   I4    S    
O4    Zn1   S    
C42   H19   S    
C41   H16   S    
C1    C6    S    
C24   O8    A    
C5    C12   A    
C2    O4    A    
C6    C11   A    
O7    Zn2   S    
O8    Zn1   S    
C31   C37   A    
C32   C34   A    
C40   H15   S    
C20   N1    A    
C31   C33   A    
C33   C34   A    
C15   I1    S    
C11   H6    S    
C23   C28   S    
C1    O1    A    
C4    O10   S    
C2    O2    A    
C25   C35   A    
C8    C10   A    
C12   C14   A    
C2    C5    S    
C24   O6    A    
C20   C22   A    
C42   H20   S    
C26   C36   A    
C23   O7    A    
C29   H3    S    
C8    I8    S    
C4    C38   A    
C17   N2    A    
C23   O5    A    
C25   C27   A    
C10   I5    S    
C26   C28   A    
N1    Zn1   S    
N2    Zn2   S    
C28   C30   A    
C5    C10   A    
C29   C31   A    
C25   H1    S    
C30   C32   A    
C11   C13   A    
C19   N2    A    
C26   H2    S    
C3    C36   A    
C33   C35   A    
C34   C36   A    
C40   H13   S    
C7    C9    A    
O1    Zn1   S    
C3    C37   A    
C16   C18   A    
O9    C39   S    
C30   H4    S    
C13   C14   A    
C18   N1    A    
