data_mof_unit_29399.cif
_audit_creation_date              2012-12-11T15:59:45-0500
_audit_creation_method            fapswitch 2.2
_symmetry_space_group_name_H-M    P1
_symmetry_Int_Tables_number       1
_space_group_crystal_system       triclinic
_cell_length_a                    10.733013
_cell_length_b                    10.702884
_cell_length_c                    16.938382
_cell_angle_alpha                 99.235223
_cell_angle_beta                  99.832166
_cell_angle_gamma                 61.04352
_cell_volume                      1670.68275743

loop_
_atom_site_label
_atom_site_type_symbol
_atom_type_description
_atom_site_fract_x
_atom_site_fract_y
_atom_site_fract_z
_atom_type_partial_charge
C1    C     C_R   0.356521 0.767421 0.397066 0.601107
C2    C     C_R   0.880301 0.317984 0.343144 0.016982
C3    C     C_R   0.362244 0.809093 0.155743 -0.003840
C4    C     C_R   0.397237 0.367819 0.353928 0.565306
C5    C     C_R   0.450158 0.848816 0.216054 0.015270
C6    C     C_R   0.421039 0.868628 0.296962 0.018669
C7    C     C_R   0.289509 0.731751 0.255475 -0.152734
C8    C     C_R   0.294145 0.738562 0.175900 -0.152704
C9    C     C_R   0.563077 0.872103 0.199750 0.049650
C10   C     C_R   0.625381 0.935050 0.260965 -0.116462
C11   C     C_R   0.589730 0.962352 0.338627 -0.139498
C12   C     C_R   0.938204 0.165389 0.217856 0.030604
C13   C     C_R   0.479312 0.942006 0.356106 0.026592
C14   C     C_R   0.344437 0.803450 0.316312 0.042043
C15   C     C_R   0.334961 0.343765 0.826235 -0.010371
C16   C     C_R   0.784932 0.373032 0.407414 0.538626
C17   C     C_R   0.465130 0.253851 0.793232 0.019358
C18   C     C_R   0.459571 0.220757 0.710008 0.026078
C19   C     C_R   0.221754 0.428471 0.696051 -0.141060
C20   C     C_R   0.215329 0.435753 0.777796 -0.136722
C21   C     C_R   0.595867 0.182423 0.841735 -0.099846
C22   C     C_R   0.711621 0.063352 0.809562 -0.066958
C23   C     C_R   0.916191 0.183668 0.300245 0.041844
C24   C     C_R   0.698533 0.013111 0.728747 0.017534
C25   C     C_R   0.572295 0.090856 0.679702 -0.098084
C26   C     C_R   0.342857 0.320993 0.660866 0.001018
C27   C     C_1   0.847981 0.327839 0.705154 -0.029085
C28   C     C_R   0.381326 0.714662 0.631644 0.566219
C29   C     C_1   0.895256 0.293056 0.772079 -0.029368
C30   C     C_1   0.358887 0.764185 0.714056 -0.021988
C31   C     C_1   0.325826 0.811196 0.781016 -0.013503
C32   C     C_R   0.963891 0.278815 0.100259 0.551530
C33   C     C_R   0.296969 0.267410 0.124231 0.549718
C34   C     C_R   0.918561 0.410538 0.316242 -0.123046
C35   C     C_R   0.299452 0.885513 0.083470 0.532293
C36   C     C_R   0.944548 0.273319 0.854777 0.574520
C37   C     C_R   0.309686 0.297287 0.895473 0.547091
C38   C     C_R   0.280839 0.880866 0.857958 0.552545
C39   C     C_R   0.369886 0.344812 0.584264 0.564848
C40   C     C_R   0.778545 0.377949 0.628758 0.551246
C41   C     C_1   0.353165 0.341092 0.273322 -0.035863
C42   C     C_1   0.323587 0.310324 0.204983 -0.040302
C43   C     C_R   0.949990 0.276064 0.185824 -0.013311
C44   C     C_2   0.419808 0.012097 0.433413 0.273475
C45   C     C_R   0.960861 0.384577 0.240071 -0.170474
C46   C     C_2   0.815760 0.880802 0.694333 0.231401
C47   C     C_3   0.639589 0.809561 0.124491 -0.253518
C48   C     C_3   0.789765 0.692181 0.144689 -0.448535
C49   C     C_R   0.948752 0.036846 0.173564 -0.087737
C50   C     C_R   0.960289 0.925215 0.211526 -0.149797
C51   C     C_R   0.957164 0.938452 0.294013 -0.128739
C52   C     C_R   0.931537 0.067922 0.338006 -0.062404
Cr1   Cr    Cr6+3 0.608100 0.610860 0.522250 1.008389
Cr2   Cr    Cr6+3 0.288890 0.599990 0.488420 1.019089
Cr3   Cr    Cr6+3 0.603040 0.289190 0.489390 0.981016
Cr4   Cr    Cr6+3 0.053960 0.052250 0.967380 0.997963
Cr5   Cr    Cr6+3 0.059890 0.373160 0.992710 0.990368
Cr6   Cr    Cr6+3 0.373370 0.061690 0.991710 0.990467
H1    H     H_    0.907681 0.508083 0.351999 0.142225
H2    H     H_    0.992722 0.456324 0.221751 0.124973
H3    H     H_    0.977004 0.825805 0.176458 0.102992
H4    H     H_    0.970574 0.849466 0.323473 0.115981
H5    H     H_    0.929490 0.074924 0.402245 0.140272
H6    H     H_    0.238963 0.672482 0.269223 0.132928
H7    H     H_    0.235029 0.698415 0.130230 0.137451
H8    H     H_    0.488654 0.027102 0.484287 0.099536
H9    H     H_    0.803230 0.843420 0.631458 0.088099
H10   H     H_    0.851152 0.660978 0.092090 0.172005
H11   H     H_    0.848731 0.723252 0.197339 0.123548
H12   H     H_    0.705999 0.959173 0.248547 0.136889
H13   H     H_    0.777820 0.602273 0.159875 0.192808
H14   H     H_    0.589442 0.755953 0.079019 0.169321
H15   H     H_    0.643343 0.895156 0.097039 0.162687
H16   H     H_    0.646661 0.003573 0.385025 0.125397
H17   H     H_    0.132069 0.506243 0.660240 0.167533
H18   H     H_    0.606009 0.214768 0.905494 0.136572
H19   H     H_    0.114996 0.508231 0.802277 0.173713
H20   H     H_    0.808537 0.006734 0.848719 0.171078
H21   H     H_    0.562083 0.046942 0.618459 0.110618
H22   H     H_    0.949856 0.014585 0.110024 0.178516
O1    O     O_R   0.749810 0.499790 0.438040 -0.522618
O2    O     O_R   0.411730 0.181020 0.091530 -0.509125
O3    O     O_R   0.365010 0.944360 0.063320 -0.526156
O4    O     O_R   0.477660 0.726260 0.439290 -0.503344
O5    O     O_R   0.159380 0.906670 0.876210 -0.485790
O6    O     O_R   0.930820 0.177420 0.886730 -0.493554
O7    O     O_R   0.910360 0.395420 0.895720 -0.499752
O8    O     O_R   0.186010 0.361730 0.919870 -0.512213
O9    O     O_R   0.400000 0.173010 0.914630 -0.509270
O10   O     O_R   0.354140 0.936940 0.899340 -0.499480
O11   O     O_3   0.162410 0.162370 0.983930 -0.293581
O12   O     O_R   0.298970 0.468800 0.557390 -0.502857
O13   O     O_R   0.260150 0.743000 0.412270 -0.526077
O14   O     O_R   0.297740 0.466550 0.394720 -0.501401
O15   O     O_R   0.488080 0.253500 0.386430 -0.520108
O16   O     O_R   0.722670 0.303800 0.421940 -0.523431
O17   O     O_R   0.751130 0.502220 0.613520 -0.510142
O18   O     O_R   0.478890 0.728510 0.601960 -0.490068
O19   O     O_R   0.261470 0.745430 0.587750 -0.489591
O20   O     O_2   0.292611 0.060040 0.439626 -0.512400
O21   O     O_2   0.927564 0.812057 0.735506 -0.516563
O22   O     O_R   0.489400 0.255930 0.561910 -0.537955
O23   O     O_R   0.723890 0.306050 0.584610 -0.498906
O24   O     O_3   0.500010 0.500010 0.500020 -0.280238
O25   O     O_R   0.171100 0.914680 0.053100 -0.540964
O26   O     O_R   0.941680 0.184840 0.050710 -0.514926
O27   O     O_R   0.922080 0.403420 0.072610 -0.530890
O28   O     O_R   0.196880 0.369150 0.083850 -0.520650

loop_
_geom_bond_atom_site_label_1
_geom_bond_atom_site_label_2
_ccdc_geom_bond_type
C45   H2    S    
C27   C29   T    
C44   O20   D    
C41   C42   T    
C37   O8    A    
C44   H8    S    
C19   C20   A    
C18   C26   A    
C48   H11   S    
C12   C49   A    
C23   C52   A    
C7    C8    A    
C1    O4    A    
Cr2   O12   S    
C18   C25   A    
C12   C23   A    
C20   H19   S    
Cr1   O4    S    
C33   C42   S    
Cr2   O24   S    
C12   C43   A    
Cr6   O2    S    
C30   C31   T    
C26   C39   S    
C4    C41   S    
Cr1   O24   S    
Cr3   O23   S    
Cr1   O1    S    
C19   C26   A    
C15   C37   S    
Cr2   O13   S    
C21   H18   S    
C7    C14   A    
C32   O27   A    
C2    C16   S    
C9    C10   A    
C47   H15   S    
C2    C34   A    
C8    H7    S    
C32   O26   A    
C21   C22   A    
C51   H4    S    
C17   C18   A    
Cr4   O11   S    
C36   O7    A    
C15   C20   A    
C7    H6    S    
C46   O21   D    
Cr3   O22   S    
C16   O16   A    
C38   O5    A    
C51   C52   A    
C24   C25   A    
C22   H20   S    
Cr3   O15   S    
C3    C8    A    
C40   O17   A    
C35   O3    A    
C36   O6    A    
Cr3   O24   S    
C11   H16   S    
C17   C21   A    
Cr5   O7    S    
C5    C9    A    
C35   O25   A    
C6    C14   A    
C4    O15   A    
Cr6   O10   S    
Cr4   O6    S    
C47   C48   S    
C29   C36   S    
C3    C35   S    
C27   C40   S    
C50   C51   A    
C34   C45   A    
C48   H10   S    
C43   C45   A    
Cr4   O26   S    
C4    O14   A    
C10   H12   S    
C28   O19   A    
Cr5   O27   S    
C9    C47   S    
C34   H1    S    
C33   O2    A    
C22   C24   A    
Cr2   O19   S    
C48   H13   S    
C39   O12   A    
Cr4   O25   S    
C39   O22   A    
Cr6   O11   S    
C28   O18   A    
C15   C17   A    
Cr5   O11   S    
C25   H21   S    
Cr3   O16   S    
C3    C5    A    
C52   H5    S    
C31   C38   S    
Cr1   O18   S    
C38   O10   A    
Cr5   O8    S    
C37   O9    A    
C24   C46   S    
C19   H17   S    
C46   H9    S    
Cr6   O3    S    
C40   O23   A    
C11   C13   A    
Cr4   O5    S    
C5    C6    A    
C33   O28   A    
C28   C30   S    
C16   O1    A    
C32   C43   S    
Cr1   O17   S    
Cr6   O9    S    
C47   H14   S    
Cr2   O14   S    
C10   C11   A    
C50   H3    S    
Cr5   O28   S    
C1    O13   A    
C49   C50   A    
C2    C23   A    
C49   H22   S    
C1    C14   S    
C13   C44   S    
C6    C13   A    
