data_mof_unit_62709.cif
_audit_creation_date              2012-10-26T18:46:07-0400
_audit_creation_method            fapswitch 2.2
_symmetry_space_group_name_H-M    P1
_symmetry_Int_Tables_number       1
_space_group_crystal_system       triclinic
_cell_length_a                    13.914459
_cell_length_b                    16.588715
_cell_length_c                    17.774496
_cell_angle_alpha                 89.976585
_cell_angle_beta                  92.768068
_cell_angle_gamma                 85.146408
_cell_volume                      4083.23897558

loop_
_atom_site_label
_atom_site_type_symbol
_atom_type_description
_atom_site_fract_x
_atom_site_fract_y
_atom_site_fract_z
_atom_type_partial_charge
C1    C     C_R   0.495378 0.500144 0.644515 0.599405
C2    C     C_R   0.575314 0.825372 0.534705 0.369975
C3    C     C_R   0.424726 0.260217 0.465406 0.188557
C4    C     C_R   0.575273 0.739783 0.534594 0.188558
C5    C     C_R   0.574572 0.249963 0.535676 0.169996
C6    C     C_R   0.425428 0.750037 0.464324 0.169997
C7    C     C_R   0.576234 0.164438 0.534436 -0.165590
C8    C     C_R   0.423766 0.835562 0.465563 -0.165590
C9    C     C_R   0.500904 0.125872 0.499523 -0.002460
C10   C     C_R   0.499096 0.874128 0.500476 -0.002460
C11   C     C_1   0.500547 0.036938 0.499936 0.122874
C12   C     C_R   0.504622 0.499856 0.355484 0.599406
C13   C     C_1   0.499453 0.963062 0.500064 0.122874
C14   C     C_R   0.682923 0.487116 0.500688 0.562319
C15   C     C_R   0.317076 0.512884 0.499312 0.562319
C16   C     C_1   0.214433 0.520553 0.496653 0.084616
C17   C     C_1   0.785567 0.479447 0.503347 0.084616
C18   C     C_2   0.023955 0.532285 0.490176 0.018835
C19   C     C_2   0.976045 0.467715 0.509824 0.018835
C20   C     C_1   0.872148 0.473533 0.506097 0.041589
C21   C     C_1   0.127851 0.526467 0.493903 0.041589
C22   C     C_R   0.491300 0.430220 0.152939 -0.110340
C23   C     C_R   0.529102 0.569896 0.153258 0.383125
C24   C     C_R   0.508700 0.569780 0.847060 -0.110340
C25   C     C_R   0.494584 0.429399 0.231199 0.372380
C26   C     C_R   0.505415 0.570601 0.768801 0.372380
C27   C     C_R   0.512289 0.499928 0.272390 -0.057000
C28   C     C_R   0.487712 0.500072 0.727610 -0.057000
C29   C     C_R   0.534477 0.570086 0.232392 0.008591
C30   C     C_R   0.465524 0.429914 0.767608 0.008592
C31   C     C_2   0.025272 0.389276 0.538406 0.605464
C32   C     C_2   0.974727 0.610724 0.461594 0.605464
C33   C     C_2   0.569499 0.642243 0.270714 0.675449
C34   C     C_R   0.470899 0.430104 0.846742 0.383125
C35   C     C_2   0.430503 0.357757 0.729286 0.675449
C36   C     C_2   0.338136 0.304720 0.429728 0.693857
C37   C     C_2   0.661864 0.695280 0.570272 0.693857
C38   C     C_2   0.655494 0.283005 0.578220 0.636393
C39   C     C_2   0.344506 0.716995 0.421779 0.636393
C40   C     C_R   0.506723 0.500431 0.114175 -0.041514
C41   C     C_R   0.493277 0.499569 0.885825 -0.041514
C42   C     C_1   0.502014 0.500169 0.033743 0.112800
C43   C     C_1   0.497986 0.499831 0.966257 0.112800
C44   C     C_R   0.424685 0.174628 0.465295 0.369975
Cu1   Cu    Cu3+1 0.500000 0.419580 0.500020 1.112239
Cu2   Cu    Cu3+1 0.500000 0.580420 0.499980 1.112239
F1    F     F_    0.480824 0.358843 0.265969 -0.545994
F2    F     F_    0.519174 0.641157 0.734031 -0.545993
F3    F     F_    0.549050 0.636451 0.114089 -0.556742
F4    F     F_    0.450952 0.363549 0.885911 -0.556742
F5    F     F_    0.349792 0.138921 0.431050 -0.567385
F6    F     F_    0.650208 0.861079 0.568950 -0.567384
H1    H     H_    0.476364 0.375742 0.122434 0.197470
H2    H     H_    0.719882 0.621073 0.653266 0.337892
H3    H     H_    0.799252 0.291111 0.588510 0.366134
H4    H     H_    0.200748 0.708888 0.411490 0.366134
H5    H     H_    0.523635 0.624259 0.877565 0.197470
H6    H     H_    0.635801 0.127948 0.562472 0.177206
H7    H     H_    0.364199 0.872052 0.437528 0.177206
H8    H     H_    0.141943 0.328710 0.590514 0.377154
H9    H     H_    0.858056 0.671290 0.409486 0.377153
H10   H     H_    0.661812 0.686311 0.348291 0.347658
H11   H     H_    0.338190 0.313687 0.651710 0.347658
H12   H     H_    0.280117 0.378927 0.346735 0.337892
N1    N     N_R   0.500030 0.298780 0.500030 -0.310535
N2    N     N_R   0.499970 0.701220 0.499970 -0.310535
O1    O     O_R   0.500010 0.432070 0.608760 -0.471705
O2    O     O_R   0.117831 0.385441 0.573320 -0.655114
O3    O     O_2   0.017133 0.672297 0.466897 -0.451015
O4    O     O_R   0.882169 0.614559 0.426680 -0.655114
O5    O     O_2   0.534659 0.709978 0.252414 -0.394620
O6    O     O_R   0.644567 0.632816 0.326082 -0.664655
O7    O     O_2   0.465344 0.290021 0.747586 -0.394620
O8    O     O_R   0.355434 0.367183 0.673918 -0.664655
O9    O     O_2   0.259143 0.297210 0.454993 -0.457494
O10   O     O_R   0.344930 0.352101 0.365748 -0.589077
O11   O     O_2   0.740857 0.702790 0.545007 -0.457494
O12   O     O_R   0.499990 0.567930 0.391240 -0.471706
O13   O     O_R   0.655070 0.647899 0.634252 -0.589077
O14   O     O_2   0.641640 0.320626 0.636258 -0.477637
O15   O     O_R   0.749307 0.266422 0.554307 -0.647570
O16   O     O_2   0.358361 0.679374 0.363742 -0.477637
O17   O     O_R   0.250693 0.733577 0.445693 -0.647570
O18   O     O_R   0.500000 0.567880 0.608730 -0.409625
O19   O     O_R   0.500000 0.432120 0.391270 -0.409625
O20   O     O_R   0.637850 0.422490 0.500000 -0.494615
O21   O     O_R   0.362150 0.577510 0.500000 -0.494614
O22   O     O_R   0.637840 0.558310 0.499970 -0.491295
O23   O     O_R   0.362160 0.441690 0.500030 -0.491295
O24   O     O_2   0.982867 0.327703 0.533103 -0.451015

loop_
_geom_bond_atom_site_label_1
_geom_bond_atom_site_label_2
_ccdc_geom_bond_type
H9    O4    S    
C35   O8    S    
C16   C21   T    
C27   C29   A    
C18   C21   S    
Cu1   O19   S    
C19   C20   S    
C19   C31   S    
Cu1   Cu2   S    
C1    O18   A    
C37   O13   S    
C30   C35   S    
C23   C29   A    
C24   C26   A    
Cu2   N2    S    
C8    H7    S    
C23   F3    S    
C23   C40   A    
C29   C33   S    
C17   C20   T    
C18   C19   D    
C36   O10   S    
C33   O6    S    
C24   H5    S    
C22   C25   A    
C12   O12   A    
Cu1   O1    S    
C1    C28   S    
H3    O15   S    
Cu1   O23   S    
C25   F1    S    
C7    H6    S    
C26   F2    S    
C40   C42   S    
C5    C38   S    
C24   C41   A    
C41   C43   S    
C14   C17   S    
C3    N1    A    
C34   C41   A    
C22   H1    S    
Cu2   O22   S    
C31   O2    S    
C3    C44   A    
C34   F4    S    
C30   C34   A    
C12   C27   S    
C14   O20   A    
C5    N1    A    
Cu2   O12   S    
C5    C7    A    
C33   O5    D    
C32   O4    S    
C37   O11   D    
C2    C4    A    
C36   O9    D    
C15   O23   A    
C31   O24   D    
C22   C40   A    
H12   O10   S    
H10   O6    S    
C9    C11   S    
C2    F6    S    
Cu2   O18   S    
C12   O19   A    
C44   F5    S    
C38   O15   S    
Cu1   N1    S    
C18   C32   S    
C42   C43   T    
C2    C10   A    
H4    O17   S    
C15   O21   A    
Cu2   O21   S    
C7    C9    A    
C35   O7    D    
C9    C44   A    
C39   O16   D    
C10   C13   S    
C6    C8    A    
C32   O3    D    
H11   O8    S    
C25   C27   A    
C26   C28   A    
C28   C30   A    
Cu1   O20   S    
C39   O17   S    
C4    N2    A    
C11   C13   T    
C38   O14   D    
C3    C36   S    
C1    O1    A    
H2    O13   S    
C14   O22   A    
C6    N2    A    
C4    C37   S    
H8    O2    S    
C8    C10   A    
C6    C39   S    
C15   C16   S    
