data_mof_unit_40356.cif
_audit_creation_date              2012-12-11T21:12:09-0500
_audit_creation_method            fapswitch 2.2
_symmetry_space_group_name_H-M    P1
_symmetry_Int_Tables_number       1
_space_group_crystal_system       triclinic
_cell_length_a                    8.184617
_cell_length_b                    18.854726
_cell_length_c                    26.939957
_cell_angle_alpha                 99.57626
_cell_angle_beta                  92.493836
_cell_angle_gamma                 88.14124
_cell_volume                      4094.1847355

loop_
_atom_site_label
_atom_site_type_symbol
_atom_type_description
_atom_site_fract_x
_atom_site_fract_y
_atom_site_fract_z
_atom_type_partial_charge
Ba1   Ba    Ba6+2 0.160810 0.465630 0.521640 1.639392
Ba2   Ba    Ba6+2 0.649380 0.534380 0.478400 1.647675
C1    C     C_3   0.519246 0.268176 0.694799 -0.350940
C2    C     C_R   0.072945 0.096310 0.451282 -0.101406
C3    C     C_R   0.211937 0.953583 0.460796 -0.102897
C4    C     C_3   0.959345 0.277592 0.622035 0.378389
C5    C     C_R   0.057749 0.977670 0.479518 0.029222
C6    C     C_R   0.266489 0.882787 0.459296 -0.102422
C7    C     C_R   0.169128 0.832164 0.475641 -0.021921
C8    C     C_R   0.021792 0.856067 0.499548 -0.002161
C9    C     C_R   0.966348 0.929348 0.502046 -0.008103
C10   C     C_R   0.216227 0.758537 0.469677 -0.030173
C11   C     C_R   0.116742 0.709719 0.487127 -0.292135
C12   C     C_3   0.495524 0.299045 0.646282 0.298623
C13   C     C_R   0.980822 0.732818 0.515557 0.059169
C14   C     C_R   0.933117 0.807266 0.522293 -0.063541
C15   C     C_R   0.847177 0.072617 0.501120 0.008216
C16   C     C_3   0.941908 0.202820 0.635649 -0.032656
C17   C     C_R   0.787324 0.144837 0.500843 0.004594
C18   C     C_R   0.876349 0.193294 0.477774 -0.017640
C19   C     C_R   0.013432 0.166184 0.450750 -0.028404
C20   C     C_R   0.805535 0.835347 0.553278 -0.048021
C21   C     C_R   0.754059 0.907795 0.558017 0.176774
C22   C     C_R   0.821842 0.953960 0.527636 0.003730
C23   C     C_3   0.455799 0.310914 0.392347 0.289277
C24   C     C_R   0.756126 0.024404 0.523787 0.019686
C25   C     C_R   0.596896 0.046957 0.538778 -0.097136
C26   C     C_R   0.636120 0.168012 0.522494 -0.024535
C27   C     C_R   0.540440 0.117501 0.539655 -0.116397
C28   C     C_3   0.830011 0.635254 0.635426 0.294183
C29   C     C_R   0.582169 0.240356 0.524371 0.005028
C30   C     C_R   0.677960 0.288694 0.505292 -0.270518
C31   C     C_R   0.823025 0.266701 0.481591 0.063370
C32   C     C_R   0.301577 0.443442 0.173233 0.585766
C33   C     C_R   0.148509 0.553644 0.171257 0.563929
C34   C     C_3   0.458282 0.230754 0.370215 -0.085766
C35   C     C_2   0.020983 0.518184 0.268331 -0.082391
C36   C     C_3   0.992262 0.519303 0.323784 -0.069600
C37   C     C_1   0.280619 0.493522 0.335554 0.034230
C38   C     C_2   0.311890 0.492548 0.287667 -0.084545
C39   C     C_2   0.173719 0.503231 0.250507 0.191648
C40   C     C_3   0.813411 0.665258 0.691121 -0.376074
C41   C     C_R   0.299383 0.499203 0.097698 -0.093217
C42   C     C_R   0.352195 0.443306 0.123881 -0.030408
C43   C     C_R   0.455912 0.388410 0.100398 -0.068002
C44   C     C_R   0.189232 0.553012 0.120386 -0.050689
C45   C     C_3   0.883027 0.721611 0.375899 0.373720
C46   C     C_2   0.150668 0.528508 0.354795 -0.270943
C47   C     C_2   0.651664 0.480097 0.642721 -0.294005
C48   C     C_R   0.496213 0.441427 0.973088 -0.008108
C49   C     C_R   0.380284 0.563847 0.976685 0.030475
C50   C     C_R   0.464642 0.503187 0.950247 0.045967
C51   C     C_R   0.568327 0.380179 0.944021 -0.134591
C52   C     C_3   0.979491 0.368720 0.365499 0.297148
C53   C     C_R   0.611545 0.379466 0.894223 0.212980
C54   C     C_R   0.582748 0.441481 0.871395 -0.045722
C55   C     C_R   0.515563 0.504155 0.900374 -0.118118
C56   C     C_3   0.858626 0.796768 0.362586 -0.388167
C57   C     C_R   0.498696 0.568008 0.879541 -0.040076
C58   C     C_R   0.549827 0.568637 0.830271 0.601422
C59   C     C_R   0.613614 0.442279 0.820024 0.580742
C60   C     C_2   0.773129 0.482166 0.728704 -0.113883
C61   C     C_3   0.809096 0.484942 0.674586 -0.068987
C62   C     C_1   0.521940 0.517512 0.660960 0.020421
C63   C     C_2   0.491498 0.525802 0.710393 0.144869
C64   C     C_3   0.013189 0.338474 0.310762 -0.369000
C65   C     C_2   0.624222 0.503849 0.746670 0.217324
C66   C     C_R   0.453404 0.442624 0.024018 0.029411
C67   C     C_3   0.375994 0.723545 0.348852 0.534788
C68   C     C_R   0.354982 0.500415 0.048367 0.045379
C69   C     C_R   0.311404 0.559270 0.023647 0.007549
C70   C     C_R   0.505048 0.387834 0.051561 -0.108593
C71   C     C_R   0.125910 0.605019 0.091592 0.006347
C72   C     C_R   0.368627 0.627417 0.955344 -0.104601
C73   C     C_R   0.429369 0.629724 0.908144 -0.067266
C74   C     C_R   0.192694 0.609579 0.045243 -0.126555
C75   C     C_3   0.331287 0.683779 0.588496 0.313136
C76   C     C_3   0.324066 0.765076 0.604469 -0.393724
C77   C     C_3   0.521368 0.111975 0.391412 -0.256612
C78   C     C_3   0.278166 0.789052 0.335884 -0.418876
C79   C     C_3   0.387129 0.660992 0.260661 -0.239578
C80   C     C_3   0.724872 0.977434 0.641014 -0.260153
C81   C     C_3   0.864203 0.316172 0.871009 -0.161078
C82   C     C_R   0.977944 0.650089 0.105722 0.108336
C83   C     C_R   0.984904 0.725444 0.114547 -0.048675
C84   C     C_R   0.843968 0.767314 0.127352 -0.062587
C85   C     C_R   0.695352 0.734289 0.130996 -0.052433
C86   C     C_R   0.687136 0.659303 0.121722 -0.057623
C87   C     C_R   0.827721 0.617261 0.109011 -0.009232
C88   C     C_3   0.238559 0.534654 0.758536 -0.138248
C89   C     C_R   0.995874 0.048942 0.477945 0.012285
C90   C     C_3   0.025016 0.128119 0.698450 -0.232131
H1    H     H_    0.453270 0.356154 0.655446 0.066691
H2    H     H_    0.207928 0.664539 0.576450 0.008313
H3    H     H_    0.414498 0.670382 0.556739 0.082443
H4    H     H_    0.410457 0.281112 0.718205 0.129025
H5    H     H_    0.232279 0.780143 0.633823 0.125015
H6    H     H_    0.289725 0.792096 0.571940 0.067025
H7    H     H_    0.445849 0.784096 0.619923 0.114547
H8    H     H_    0.615701 0.296380 0.628471 -0.024531
H9    H     H_    0.629313 0.291230 0.716110 0.172807
H10   H     H_    0.581569 0.326910 0.405833 0.017285
H11   H     H_    0.372591 0.320961 0.424307 0.051553
H12   H     H_    0.738080 0.715833 0.695460 0.140285
H13   H     H_    0.558010 0.220027 0.342948 0.111817
H14   H     H_    0.339762 0.216795 0.349627 0.094376
H15   H     H_    0.537593 0.208832 0.686183 0.103300
H16   H     H_    0.812365 0.195818 0.644164 0.080889
H17   H     H_    0.804010 0.718805 0.408007 0.096344
H18   H     H_    0.013168 0.713401 0.387133 -0.071229
H19   H     H_    0.726640 0.809563 0.357052 0.135563
H20   H     H_    0.909339 0.837284 0.393565 0.076493
H21   H     H_    0.920323 0.800553 0.327324 0.124131
H22   H     H_    0.289683 0.682381 0.356419 -0.018514
H23   H     H_    0.752834 0.626715 0.710549 0.082035
H24   H     H_    0.195555 0.773552 0.302360 0.104530
H25   H     H_    0.362054 0.830754 0.328194 0.114093
H26   H     H_    0.084991 0.282427 0.609910 0.108416
H27   H     H_    0.201786 0.812338 0.367594 0.086613
H28   H     H_    0.153704 0.653468 0.482287 0.068174
H29   H     H_    0.384829 0.868092 0.443859 0.106096
H30   H     H_    0.077416 0.198426 0.428697 0.090539
H31   H     H_    0.747965 0.802138 0.576132 0.100227
H32   H     H_    0.418803 0.131230 0.552866 0.111751
H33   H     H_    0.636464 0.344170 0.507613 0.068359
H34   H     H_    0.936253 0.676651 0.709341 0.114623
H35   H     H_    0.295594 0.988629 0.447584 0.064186
H36   H     H_    0.178158 0.080391 0.429030 0.059763
H37   H     H_    0.872352 0.282758 0.590113 -0.072314
H38   H     H_    0.509999 0.010157 0.548342 0.119623
H39   H     H_    0.436578 0.484915 0.275350 0.115088
H40   H     H_    0.500308 0.345286 0.119862 0.120354
H41   H     H_    0.870897 0.467906 0.754068 0.091136
H42   H     H_    0.589337 0.330656 0.958593 0.064988
H43   H     H_    0.588052 0.344617 0.036935 0.068026
H44   H     H_    0.916902 0.523734 0.242765 0.107953
H45   H     H_    0.093911 0.389508 0.384991 0.015893
H46   H     H_    0.317170 0.676979 0.975275 0.067046
H47   H     H_    0.974077 0.161595 0.602729 0.039447
H48   H     H_    0.417281 0.679826 0.893448 0.117944
H49   H     H_    0.140308 0.649804 0.024564 0.067350
H50   H     H_    0.154994 0.558031 0.393039 0.063939
H51   H     H_    0.642473 0.443267 0.607185 0.070682
H52   H     H_    0.708024 0.619687 0.618763 0.023887
H53   H     H_    0.915875 0.588121 0.631080 0.036664
H54   H     H_    0.391979 0.194039 0.434937 0.203176
H55   H     H_    0.536431 0.082511 0.423782 0.118069
H56   H     H_    0.885682 0.412694 0.367128 0.040607
H57   H     H_    0.637563 0.106344 0.371118 0.124376
H58   H     H_    0.420468 0.087479 0.365974 0.101805
H59   H     H_    0.569501 0.723374 0.299992 0.227494
H60   H     H_    0.464654 0.617845 0.239539 0.124865
H61   H     H_    0.358837 0.702609 0.236591 0.108458
H62   H     H_    0.271290 0.637938 0.269393 0.140484
H63   H     H_    0.570719 0.896876 0.607058 0.191128
H64   H     H_    0.631281 0.998805 0.668636 0.112154
H65   H     H_    0.786637 0.023808 0.630129 0.120279
H66   H     H_    0.816045 0.943932 0.659163 0.107196
H67   H     H_    0.095271 0.290094 0.308836 0.139820
H68   H     H_    0.642423 0.268922 0.876224 0.182101
H69   H     H_    0.909413 0.316331 0.910540 0.069907
H70   H     H_    0.909934 0.364120 0.857434 0.127391
H71   H     H_    0.913537 0.267251 0.846976 0.110734
H72   H     H_    0.099348 0.751572 0.111843 0.051220
H73   H     H_    0.849916 0.825400 0.134416 0.061168
H74   H     H_    0.586487 0.766802 0.140884 0.059049
H75   H     H_    0.571885 0.633767 0.124315 0.062259
H76   H     H_    0.819755 0.559185 0.101704 0.050792
H77   H     H_    0.302704 0.606555 0.711107 0.214562
H78   H     H_    0.073628 0.378347 0.292514 0.080970
H79   H     H_    0.115266 0.534798 0.739842 0.087655
H80   H     H_    0.228738 0.566994 0.796666 0.095652
H81   H     H_    0.276645 0.478519 0.762082 0.111544
H82   H     H_    0.169723 0.202348 0.673635 0.226617
H83   H     H_    0.104712 0.127781 0.732836 0.110681
H84   H     H_    0.057843 0.080538 0.670074 0.094987
H85   H     H_    0.895867 0.124829 0.708820 0.114772
H86   H     H_    0.896584 0.323212 0.289641 0.114994
N1    N     N_R   0.205901 0.499595 0.197222 -0.424299
N2    N     N_R   0.595129 0.505166 0.799884 -0.428366
N3    N     N_2   0.483753 0.187081 0.409408 -0.453315
N4    N     N_2   0.473868 0.692334 0.306535 -0.386207
N5    N     N_2   0.646592 0.934620 0.597424 -0.438250
N6    N     N_2   0.687261 0.315926 0.867902 -0.379779
N7    N     N_2   0.352614 0.567580 0.730199 -0.392798
N8    N     N_2   0.048268 0.193624 0.678666 -0.386939
O1    O     O_2   0.106080 0.324280 0.466820 -0.479462
O2    O     O_2   0.658842 0.560567 0.332779 -0.464006
O3    O     O_3   0.841752 0.670303 0.333556 -0.587458
O4    O     O_3   0.859130 0.413620 0.470620 -0.480191
O5    O     O_3   0.459240 0.537930 0.559910 -0.484535
O6    O     O_2   0.583120 0.462390 0.379940 -0.458223
O7    O     O_3   0.399775 0.348899 0.354151 -0.653320
O8    O     O_2   0.547549 0.755882 0.485401 -0.489204
O9    O     O_3   0.483538 0.746634 0.390280 -0.608328
O10   O     O_2   0.342494 0.393241 0.194896 -0.600026
O11   O     O_2   0.654248 0.386719 0.792840 -0.588265
O12   O     O_3   0.387737 0.652935 0.629870 -0.642064
O13   O     O_2   0.067558 0.603888 0.193101 -0.605791
O14   O     O_2   0.551581 0.625459 0.814122 -0.583587
O15   O     O_3   0.376230 0.370290 0.556910 -0.470709
O16   O     O_2   0.237940 0.244274 0.525236 -0.509276
O17   O     O_3   0.920473 0.313117 0.387222 -0.644134
O18   O     O_3   0.378017 0.258993 0.615009 -0.620566
O19   O     O_2   0.227190 0.537650 0.620070 -0.472198
O20   O     O_3   0.971110 0.406970 0.583250 -0.480377
O21   O     O_2   0.141182 0.430985 0.668625 -0.489330
O22   O     O_3   0.924918 0.330869 0.663565 -0.601012
O23   O     O_2   0.704230 0.675760 0.533200 -0.468657
O24   O     O_3   0.951180 0.586390 0.529420 -0.485573
O25   O     O_3   0.434080 0.629720 0.443130 -0.462612
O26   O     O_3   0.892586 0.689016 0.612686 -0.643293
O27   O     O_3   0.351080 0.462080 0.440130 -0.476857
O28   O     O_3   0.839200 0.593040 0.416790 -0.489317
P1    P     P_3+3 0.929380 0.335110 0.452880 0.980017
P2    P     P_3+3 0.398530 0.559060 0.613740 0.983937
P3    P     P_3+3 0.963867 0.415561 0.648313 0.966399
P4    P     P_3+3 0.880940 0.664900 0.547160 0.977058
P5    P     P_3+3 0.832746 0.585060 0.351158 0.995619
P6    P     P_3+3 0.392057 0.277412 0.553906 0.925768
P7    P     P_3+3 0.399031 0.441493 0.376545 0.962087
P8    P     P_3+3 0.416652 0.723028 0.446158 0.935800

loop_
_geom_bond_atom_site_label_1
_geom_bond_atom_site_label_2
_ccdc_geom_bond_type
C53   C54   A    
C47   C61   S    
C25   C27   A    
C75   H2    S    
C17   C18   A    
C15   C89   A    
C49   C72   A    
C85   C86   A    
Ba1   O15   S    
C31   P1    S    
C79   H61   S    
C20   H31   S    
C75   C76   S    
C90   H84   S    
C5    C9    A    
C72   H46   S    
C88   H81   S    
C24   C25   A    
C33   O13   D    
C60   C65   D    
O18   P6    S    
C56   H20   S    
O23   P4    D    
C60   H41   S    
O17   P1    S    
C26   C27   A    
C35   C36   S    
Ba2   O6    S    
O6    P7    D    
C86   C87   A    
O28   P5    S    
C28   O26   S    
C69   C74   A    
C80   H66   S    
H63   N5    S    
C6    H29   S    
C55   C57   A    
C52   H45   S    
Ba1   O4    S    
C13   C14   A    
C27   H32   S    
C9    C22   A    
C67   O9    S    
C28   H52   S    
C54   C55   A    
Ba1   Ba2   S    
O16   P6    D    
C19   H30   S    
O27   P7    S    
C78   H24   S    
O19   P2    D    
C6    C7    A    
C63   C65   S    
C12   O18   S    
C88   H79   S    
C76   H6    S    
C56   H21   S    
C48   C50   A    
C53   N6    S    
Ba1   O1    S    
C68   C69   A    
Ba1   O19   S    
C75   O12   S    
C71   C82   S    
C4    O22   S    
C66   C70   A    
C67   N4    S    
C77   H57   S    
C2    C89   A    
C80   H64   S    
C74   H49   S    
C1    H9    S    
O7    P7    S    
C81   H69   S    
C78   H27   S    
O12   P2    S    
C57   C58   A    
O20   P3    S    
C47   C62   D    
C43   C70   A    
C32   N1    Am   
C84   H73   S    
C49   C69   A    
C79   N4    S    
C76   H5    S    
C4    H37   S    
C7    C8    A    
C64   H67   S    
C41   C44   A    
C62   P2    S    
C73   H48   S    
O1    P1    D    
C51   C53   A    
C90   H83   S    
C33   N1    Am   
C4    C16   S    
C63   N7    S    
C67   H22   S    
Ba2   O24   S    
C48   C51   A    
O21   P3    D    
C72   C73   A    
C2    H36   S    
C34   H14   S    
C49   C50   A    
C32   C42   A    
C82   C83   A    
C90   H85   S    
C59   O11   D    
C37   C38   D    
C3    C5    A    
C80   H65   S    
C40   H34   S    
C84   C85   A    
C23   H11   S    
C70   H43   S    
C77   H55   S    
C1    H15   S    
C83   C84   A    
O25   P8    S    
C80   N5    S    
C16   N8    S    
C64   H78   S    
C79   H62   S    
C77   N3    S    
C30   H33   S    
C45   O3    S    
C41   C42   A    
C87   H76   S    
Ba1   P1    S    
C60   C61   S    
Ba1   O20   S    
O5    P2    S    
C3    C6    A    
C64   H86   S    
C29   C30   A    
C21   C22   A    
C86   H75   S    
C5    C89   A    
C3    H35   S    
Ba1   P2    S    
Ba2   O25   S    
C35   H44   S    
C46   H50   S    
C10   C11   A    
C13   P4    S    
C17   C26   A    
C10   P8    S    
C21   N5    S    
C1    H4    S    
C1    C12   S    
Ba2   O27   S    
C77   H58   S    
C18   C31   A    
Ba1   O5    S    
C38   C39   S    
C38   H39   S    
Ba2   O28   S    
C41   C68   A    
C8    C9    A    
C11   C13   A    
Ba1   O27   S    
C71   C74   A    
C28   H53   S    
C82   C87   A    
C15   C24   A    
C88   H80   S    
C79   H60   S    
C57   C73   A    
C43   H40   S    
C11   H28   S    
C23   O7    S    
C42   C43   A    
H59   N4    S    
C52   H56   S    
C29   P6    S    
O4    P1    S    
O2    P5    D    
C32   O10   D    
O22   P3    S    
C25   H38   S    
C81   H71   S    
C78   H25   S    
Ba2   O23   S    
C14   C20   A    
C12   H1    S    
H54   N3    S    
C34   H13   S    
C54   C59   A    
C36   C46   S    
C36   P5    S    
C39   N1    S    
C26   C29   A    
C37   P7    S    
C51   H42   S    
Ba2   O4    S    
O15   P6    S    
C22   C24   A    
C40   H12   S    
O9    P8    S    
C56   H19   S    
C12   H8    S    
Ba1   O24   S    
C52   C64   S    
C88   N7    S    
C58   N2    Am   
C45   H18   S    
O24   P4    S    
O8    P8    D    
C65   N2    S    
C30   C31   A    
C61   P3    S    
H77   N7    S    
C45   H17   S    
C62   C63   D    
C45   C56   S    
C2    C19   A    
O26   P4    S    
C47   H51   S    
C15   C17   A    
C75   H3    S    
C81   N6    S    
C90   N8    S    
C35   C39   D    
C16   H47   S    
C23   H10   S    
C7    C10   A    
C16   H16   S    
C50   C55   A    
C58   O14   D    
C23   C34   S    
C85   H74   S    
O3    P5    S    
C40   H23   S    
C18   C19   A    
C59   N2    Am   
C66   C68   A    
C81   H70   S    
C76   H7    S    
Ba2   P4    S    
C83   H72   S    
C20   C21   A    
C28   C40   S    
C67   C78   S    
C8    C14   A    
C34   N3    S    
C33   C44   A    
C48   C66   A    
Ba2   O5    S    
H68   N6    S    
C44   C71   A    
H82   N8    S    
C52   O17   S    
C4    H26   S    
C37   C46   D    
