data_mof_unit_65776.cif
_audit_creation_date              2012-10-26T17:24:28-0400
_audit_creation_method            fapswitch 2.2
_symmetry_space_group_name_H-M    P1
_symmetry_Int_Tables_number       1
_space_group_crystal_system       triclinic
_cell_length_a                    42.654271
_cell_length_b                    29.424812
_cell_length_c                    29.419715
_cell_angle_alpha                 90.0
_cell_angle_beta                  133.91323
_cell_angle_gamma                 90.000324
_cell_volume                      26600.0803742

loop_
_atom_site_label
_atom_site_type_symbol
_atom_type_description
_atom_site_fract_x
_atom_site_fract_y
_atom_site_fract_z
_atom_type_partial_charge
C1    C     C_R   0.499979 0.585484 0.499997 0.552568
C2    C     C_1   0.835156 0.000001 0.334512 0.048868
C3    C     C_3   0.761077 0.962896 0.236939 0.044661
C4    C     C_1   0.373349 0.500014 0.373582 0.048411
C5    C     C_1   0.873349 0.000001 0.373582 0.048412
C6    C     C_1   0.120414 0.500004 0.119478 0.019749
C7    C     C_1   0.620414 0.000001 0.119478 0.019748
C8    C     C_3   0.260977 0.499552 0.301506 -0.157934
C9    C     C_3   0.760977 0.999988 0.301508 -0.157934
C10   C     C_3   0.289205 0.500046 0.286817 0.000150
C11   C     C_3   0.789205 0.000002 0.286817 0.000150
C12   C     C_2   0.276605 0.579724 0.229687 0.602342
C13   C     C_1   0.158591 0.500017 0.156488 0.013255
C14   C     C_2   0.276622 0.421392 0.227907 0.602304
C15   C     C_2   0.776614 0.079187 0.228820 0.602322
C16   C     C_2   0.776613 0.920845 0.228768 0.602324
C17   C     C_2   0.216969 0.501073 0.122586 0.623964
C18   C     C_2   0.716969 0.000031 0.122580 0.623964
C19   C     C_1   0.658591 0.000001 0.156488 0.013256
C20   C     C_1   0.499960 0.636531 0.499948 -0.031360
C21   C     C_1   0.499961 0.363469 0.499949 -0.031491
C22   C     C_1   0.999961 0.136531 0.499949 -0.031428
C23   C     C_1   0.999961 0.863469 0.499949 -0.031422
C24   C     C_1   0.499949 0.678852 0.499931 -0.025750
C25   C     C_1   0.499950 0.321147 0.499932 -0.025830
C26   C     C_1   0.999950 0.178852 0.499931 -0.025794
C27   C     C_R   0.499979 0.414516 0.499997 0.552427
C28   C     C_1   0.999950 0.821147 0.499932 -0.025785
C29   C     C_1   0.499943 0.729018 0.499929 0.010913
C30   C     C_1   0.499945 0.270982 0.499930 0.010856
C31   C     C_1   0.999944 0.229018 0.499929 0.010879
C32   C     C_1   0.999944 0.770982 0.499930 0.010890
C33   C     C_1   0.499943 0.771339 0.499937 0.010435
C34   C     C_1   0.499944 0.228661 0.499938 0.010382
C35   C     C_1   0.999943 0.271339 0.499937 0.010403
C36   C     C_1   0.999944 0.728661 0.499938 0.010414
C37   C     C_1   0.499946 0.821505 0.499952 -0.026969
C38   C     C_R   0.999979 0.085484 0.499997 0.552498
C39   C     C_1   0.499947 0.178495 0.499953 -0.027014
C40   C     C_1   0.999946 0.321505 0.499952 -0.026996
C41   C     C_1   0.999947 0.678495 0.499953 -0.026987
C42   C     C_1   0.499950 0.863827 0.499966 -0.033034
C43   C     C_1   0.499951 0.136173 0.499968 -0.033066
C44   C     C_1   0.999950 0.363827 0.499967 -0.033054
C45   C     C_1   0.999951 0.636173 0.499967 -0.033047
C46   C     C_R   0.418288 0.499997 0.418449 0.576753
C47   C     C_R   0.918288 1.000000 0.418449 0.576753
C48   C     C_1   0.635089 0.500000 0.634768 -0.039126
C49   C     C_R   0.999979 0.914516 0.499997 0.552497
C50   C     C_1   0.135089 1.000000 0.634768 -0.039126
C51   C     C_1   0.676568 0.500000 0.676235 -0.023817
C52   C     C_1   0.176568 1.000000 0.676235 -0.023817
C53   C     C_1   0.726140 0.500000 0.725872 0.008322
C54   C     C_1   0.226140 1.000000 0.725872 0.008322
C55   C     C_1   0.767620 0.500000 0.767430 0.008345
C56   C     C_1   0.267620 1.000000 0.767430 0.008345
C57   C     C_1   0.817192 0.499999 0.817105 -0.023790
C58   C     C_1   0.317192 0.999999 0.817105 -0.023790
C59   C     C_1   0.858671 0.500000 0.858669 -0.039161
C60   C     C_3   0.204502 0.500037 0.201253 0.002193
C61   C     C_1   0.358671 1.000000 0.858669 -0.039161
C62   C     C_R   0.994837 0.500000 0.080443 0.547497
C63   C     C_R   0.494837 1.000000 0.080443 0.547497
C64   C     C_R   0.075486 0.500000 0.075694 0.572840
C65   C     C_R   0.575486 0.000000 0.075694 0.572840
C66   C     C_R   0.993241 0.500000 0.907807 0.556728
C67   C     C_R   0.493241 0.000000 0.907807 0.556729
C68   C     C_R   0.909163 0.500000 0.909249 0.542262
C69   C     C_R   0.409163 1.000000 0.909249 0.542262
C70   C     C_R   0.584600 0.500000 0.584496 0.541144
C71   C     C_3   0.704502 0.000002 0.201252 0.002193
C72   C     C_R   0.084600 1.000000 0.584496 0.541144
C73   C     C_R   0.499074 0.000000 0.414022 0.546855
C74   C     C_R   0.999074 0.500000 0.414022 0.546855
C75   C     C_R   0.499957 0.914874 0.499984 0.546994
C76   C     C_R   0.499957 0.085125 0.499984 0.546982
C77   C     C_R   0.999957 0.414874 0.499984 0.546986
C78   C     C_R   0.999957 0.585125 0.499984 0.546990
C79   C     C_R   0.500772 0.000000 0.585909 0.547114
C80   C     C_R   0.000772 0.500000 0.585909 0.547114
C81   C     C_1   0.995575 0.500000 0.132218 -0.037042
C82   C     C_3   0.232590 0.500528 0.186616 0.048223
C83   C     C_1   0.495575 0.000000 0.132218 -0.037042
C84   C     C_1   0.996198 0.500000 0.175159 -0.029696
C85   C     C_1   0.496198 0.000000 0.175159 -0.029697
C86   C     C_1   0.996934 0.500000 0.226050 0.008365
C87   C     C_1   0.496934 0.000000 0.226050 0.008365
C88   C     C_1   0.497538 0.000000 0.268971 0.008533
C89   C     C_1   0.997538 0.500000 0.268971 0.008533
C90   C     C_1   0.498210 0.000000 0.319800 -0.028343
C91   C     C_1   0.998210 0.500000 0.319800 -0.028342
C92   C     C_1   0.498693 0.000000 0.362602 -0.033911
C93   C     C_3   0.732590 0.000016 0.186613 0.048223
C94   C     C_1   0.998693 0.500000 0.362602 -0.033911
C95   C     C_1   0.994270 0.500000 0.857774 -0.027858
C96   C     C_1   0.494270 0.000000 0.857774 -0.027858
C97   C     C_3   0.232259 0.537315 0.251374 -0.136037
C98   C     C_3   0.232268 0.462273 0.250532 -0.136044
C99   C     C_3   0.732264 0.037519 0.250966 -0.136041
C100  C     C_3   0.732263 0.962471 0.250941 -0.136039
C101  C     C_1   0.995448 0.500000 0.816633 -0.022921
C102  C     C_1   0.495448 0.000000 0.816633 -0.022921
C103  C     C_1   0.996993 0.500000 0.768017 0.012887
C104  C     C_1   0.335156 0.500030 0.334512 0.048868
C105  C     C_1   0.496993 0.000000 0.768017 0.012887
C106  C     C_1   0.498289 0.000000 0.726999 0.012083
C107  C     C_1   0.998289 0.500000 0.726999 0.012083
C108  C     C_1   0.499686 0.000000 0.678229 -0.025643
C109  C     C_1   0.999686 0.500000 0.678229 -0.025643
C110  C     C_1   0.500545 0.000000 0.636759 -0.032369
C111  C     C_1   0.000545 0.500000 0.636759 -0.032369
C112  C     C_3   0.261073 0.537397 0.237369 0.044677
C113  C     C_3   0.261082 0.463176 0.236536 0.044647
C114  C     C_3   0.761078 0.037122 0.236963 0.044662
Cu1   Cu    Cu3+1 0.500480 0.500000 0.542990 0.967024
Cu2   Cu    Cu3+1 0.958020 0.500000 0.458050 0.968292
Cu3   Cu    Cu3+1 0.541920 0.000000 0.541950 0.968202
Cu4   Cu    Cu3+1 0.041920 0.500000 0.541950 0.968202
Cu5   Cu    Cu3+1 0.000480 0.000000 0.542990 0.967022
Cu6   Cu    Cu3+1 0.499450 0.500000 0.457010 0.997631
Cu7   Cu    Cu3+1 0.999450 0.000000 0.457010 0.997632
Cu8   Cu    Cu3+1 0.993800 0.542460 0.993900 0.978244
Cu9   Cu    Cu3+1 0.993800 0.457540 0.993900 0.977874
Cu10  Cu    Cu3+1 0.493800 0.042460 0.993900 0.978047
Cu11  Cu    Cu3+1 0.493800 0.957540 0.993900 0.978072
Cu12  Cu    Cu3+1 0.458020 0.000000 0.458050 0.968292
H1    H     H_    0.219340 0.567712 0.256218 0.138726
H2    H     H_    0.827400 0.883267 0.258206 0.347957
H3    H     H_    0.166087 0.501553 0.028182 0.348619
H4    H     H_    0.666087 0.000045 0.028173 0.348619
H5    H     H_    0.219358 0.431476 0.254689 0.138745
H6    H     H_    0.719349 0.068112 0.255478 0.138734
H7    H     H_    0.719348 0.931867 0.255434 0.138738
H8    H     H_    0.273654 0.499154 0.349588 0.133324
H9    H     H_    0.773653 0.999977 0.349592 0.133324
H10   H     H_    0.327389 0.617558 0.259563 0.347942
H11   H     H_    0.327413 0.384061 0.256933 0.347969
H12   H     H_    0.827402 0.116779 0.258282 0.347953
O1    O     O_R   0.500410 0.561970 0.536310 -0.484882
O2    O     O_R   0.963790 0.500000 0.401850 -0.480887
O3    O     O_R   0.534640 0.000000 0.472710 -0.482190
O4    O     O_R   0.034640 0.500000 0.472710 -0.482190
O5    O     O_R   0.464530 0.938000 0.464560 -0.481093
O6    O     O_R   0.464530 0.062000 0.464560 -0.481121
O7    O     O_R   0.964530 0.438000 0.464560 -0.481106
O8    O     O_R   0.964530 0.562000 0.464560 -0.481107
O9    O     O_R   0.535390 0.937990 0.535420 -0.481465
O10   O     O_R   0.535390 0.062010 0.535420 -0.481461
O11   O     O_R   0.035390 0.437990 0.535420 -0.481465
O12   O     O_R   0.500410 0.438030 0.536310 -0.484947
O13   O     O_R   0.035390 0.562010 0.535420 -0.481461
O14   O     O_R   0.465290 0.000000 0.527290 -0.482066
O15   O     O_R   0.965290 0.500000 0.527290 -0.482066
O16   O     O_R   0.536150 0.000000 0.598150 -0.479723
O17   O     O_R   0.036150 0.500000 0.598150 -0.479723
O18   O     O_R   0.499540 0.561910 0.463710 -0.480704
O19   O     O_R   0.499540 0.438090 0.463710 -0.480745
O20   O     O_R   0.999540 0.061910 0.463710 -0.480725
O21   O     O_R   0.999540 0.938090 0.463710 -0.480723
O22   O     O_R   0.439190 0.500000 0.475090 -0.507090
O23   O     O_R   0.000410 0.061970 0.536310 -0.484915
O24   O     O_R   0.939190 0.000000 0.475090 -0.507092
O25   O     O_R   0.438320 0.500000 0.402480 -0.475257
O26   O     O_R   0.938320 0.000000 0.402480 -0.475257
O27   O     O_R   0.561610 0.500000 0.597520 -0.481727
O28   O     O_R   0.061610 0.000000 0.597520 -0.481727
O29   O     O_R   0.560740 0.500000 0.524910 -0.482701
O30   O     O_R   0.060740 0.000000 0.524910 -0.482701
O31   O     O_R   0.994560 0.535840 0.056620 -0.484711
O32   O     O_R   0.994560 0.464160 0.056620 -0.484742
O33   O     O_R   0.494560 0.035840 0.056620 -0.484731
O34   O     O_R   0.000410 0.938030 0.536310 -0.484915
O35   O     O_R   0.494560 0.964160 0.056620 -0.484723
O36   O     O_R   0.055010 0.535850 0.055100 -0.492635
O37   O     O_R   0.055010 0.464150 0.055100 -0.492974
O38   O     O_R   0.555010 0.035850 0.055100 -0.492802
O39   O     O_R   0.555010 0.964150 0.055100 -0.492808
O40   O     O_R   0.993040 0.535870 0.931160 -0.480639
O41   O     O_R   0.993040 0.464130 0.931160 -0.480699
O42   O     O_R   0.493040 0.035870 0.931160 -0.480672
O43   O     O_R   0.493040 0.964130 0.931160 -0.480666
O44   O     O_2   0.250034 0.606912 0.188286 -0.487804
O45   O     O_R   0.932590 0.535860 0.932690 -0.481378
O46   O     O_R   0.321135 0.587919 0.269582 -0.689671
O47   O     O_2   0.250057 0.394537 0.185899 -0.487832
O48   O     O_R   0.321154 0.413321 0.267617 -0.689578
O49   O     O_2   0.750046 0.106216 0.187124 -0.487821
O50   O     O_R   0.821146 0.087323 0.268625 -0.689627
O51   O     O_2   0.750045 0.893826 0.187055 -0.487814
O52   O     O_R   0.821144 0.912713 0.268568 -0.689624
O53   O     O_2   0.243475 0.501430 0.118277 -0.470210
O54   O     O_R   0.172416 0.501171 0.068362 -0.682142
O55   O     O_2   0.743475 0.000041 0.118270 -0.470209
O56   O     O_R   0.932590 0.464140 0.932690 -0.481378
O57   O     O_R   0.672416 0.000034 0.068356 -0.682144
O58   O     O_R   0.432590 0.035860 0.932690 -0.481384
O59   O     O_R   0.432590 0.964140 0.932690 -0.481373
O60   O     O_R   0.463790 0.000000 0.401850 -0.480887

loop_
_geom_bond_atom_site_label_1
_geom_bond_atom_site_label_2
_ccdc_geom_bond_type
C87   C88   T    
C68   O45   A    
C96   C102  T    
Cu4   O11   S    
C72   O30   A    
C74   C94   S    
C105  C106  T    
C19   C71   S    
C97   H1    S    
Cu11  O35   S    
Cu5   O23   S    
C99   C114  S    
C80   O15   A    
C13   C60   S    
C4    C46   S    
C17   O53   D    
C5    C47   S    
C42   C75   S    
C106  C108  S    
C99   H6    S    
Cu3   O10   S    
C32   C36   T    
C48   C70   S    
C44   C77   S    
C84   C86   S    
C60   C98   S    
C67   O42   A    
C109  C111  T    
Cu2   O7    S    
C14   O48   S    
C57   C59   T    
Cu10  O33   S    
C22   C38   S    
H3    O54   S    
C29   C33   T    
Cu12  O5    S    
Cu6   O18   S    
C80   C111  S    
C102  C105  S    
Cu8   O40   S    
C17   C82   S    
C6    C64   S    
C37   C42   T    
C62   O31   A    
C11   C114  S    
C8    C98   S    
C24   C29   S    
C50   C72   S    
C67   O43   A    
Cu6   O25   S    
C47   O24   A    
C60   C82   S    
C3    C100  S    
C48   C51   T    
C12   O44   D    
C20   C24   T    
Cu2   Cu4   S    
C98   H5    S    
C50   C52   T    
Cu9   O56   S    
C10   C112  S    
C45   C78   S    
C89   C91   S    
Cu3   Cu12  S    
C1    O1    A    
Cu5   O34   S    
Cu12  O60   S    
C58   C61   T    
Cu5   Cu7   S    
C74   O4    A    
Cu11  O59   S    
C26   C31   S    
C101  C103  S    
C18   O55   D    
C69   O59   A    
C107  C109  S    
Cu10  O58   S    
C36   C41   S    
Cu12  O14   S    
C2    C11   S    
Cu5   O24   S    
C38   O23   A    
C52   C54   S    
C78   O13   A    
C63   O35   A    
C53   C55   T    
C17   O54   S    
C39   C43   T    
Cu3   O3    S    
C62   O32   A    
C54   C56   T    
C30   C34   T    
C85   C87   S    
Cu11  O43   S    
C34   C39   S    
C28   C32   S    
C38   O20   A    
Cu9   O41   S    
H4    O57   S    
C27   O12   A    
C70   O27   A    
C77   O11   A    
C14   O47   D    
C98   C113  S    
C73   O3    A    
C75   O9    A    
Cu8   O36   S    
Cu7   O26   S    
C74   O2    A    
C69   O58   A    
C33   C37   S    
C63   C83   S    
C51   C53   S    
C82   C112  S    
C1    O18   A    
H12   O50   S    
C8    C97   S    
C79   O16   A    
C59   C68   S    
C7    C65   S    
C66   O40   A    
C63   O33   A    
C8    H8    S    
Cu8   O31   S    
C46   O22   A    
C73   O60   A    
H10   O46   S    
C15   C114  S    
Cu4   O17   S    
C3    C93   S    
C23   C28   T    
C64   O37   A    
C9    C11   S    
Cu5   O28   S    
C68   O56   A    
Cu2   O15   S    
C12   O46   S    
C10   C113  S    
C75   O5    A    
Cu10  O38   S    
C47   O26   A    
C76   O6    A    
C8    C10   S    
Cu8   O45   S    
C83   C85   T    
C62   C81   S    
Cu1   O1    S    
C60   C97   S    
C9    C100  S    
C7    C19   T    
Cu7   O20   S    
C55   C57   S    
C65   O38   A    
Cu11  O39   S    
Cu6   O19   S    
C21   C27   S    
C31   C35   T    
C2    C5    T    
Cu1   O27   S    
C64   O36   A    
Cu7   O21   S    
C9    H9    S    
C12   C112  S    
C81   C84   T    
C100  H7    S    
C66   C95   S    
C80   O17   A    
H11   O48   S    
C15   O50   S    
C61   C69   S    
C25   C30   S    
C97   C112  S    
Cu7   O30   S    
C21   C25   T    
C16   O52   S    
C1    C20   S    
C79   C110  S    
C18   O57   S    
C66   O41   A    
C72   O28   A    
C49   O21   A    
C82   C113  S    
C88   C90   S    
Cu4   O4    S    
C86   C89   T    
C49   O34   A    
Cu9   O37   S    
C108  C110  T    
C73   C92   S    
C71   C93   S    
C27   O19   A    
C14   C113  S    
C71   C100  S    
Cu3   O9    S    
Cu1   O22   S    
C46   O25   A    
C10   C104  S    
C35   C40   S    
C70   O29   A    
C91   C94   T    
Cu2   O8    S    
C67   C96   S    
C77   O7    A    
C65   O39   A    
C4    C104  T    
Cu1   O12   S    
Cu12  O6    S    
C90   C92   T    
C56   C58   S    
H2    O52   S    
C93   C114  S    
C71   C99   S    
Cu4   O13   S    
Cu10  O42   S    
Cu9   O32   S    
C3    C11   S    
C16   O51   D    
C78   O8    A    
C40   C44   T    
C23   C49   S    
C76   O10   A    
C9    C99   S    
Cu1   Cu6   S    
C22   C26   T    
Cu3   O16   S    
C18   C93   S    
C41   C45   T    
C43   C76   S    
C103  C107  T    
C79   O14   A    
Cu2   O2    S    
Cu8   Cu9   S    
C15   O49   D    
C3    C16   S    
C95   C101  T    
Cu6   O29   S    
Cu10  Cu11  S    
C6    C13   T    
