data_mof_unit_11309.cif
_audit_creation_date              2013-03-05T16:12:53-0500
_audit_creation_method            fapswitch 2.2
_symmetry_space_group_name_H-M    P1
_symmetry_Int_Tables_number       1
_space_group_crystal_system       triclinic
_cell_length_a                    10.698121
_cell_length_b                    9.821324
_cell_length_c                    27.664319
_cell_angle_alpha                 88.942846
_cell_angle_beta                  90.321661
_cell_angle_gamma                 90.02264
_cell_volume                      2906.14137267

loop_
_atom_site_label
_atom_site_type_symbol
_atom_site_description
_atom_site_fract_x
_atom_site_fract_y
_atom_site_fract_z
_atom_type_partial_charge
O1    O     O_R   0.316770 0.614620 0.500000 -0.625579
O2    O     O_R   0.683230 0.385380 0.500000 -0.625786
O3    O     O_R   0.683230 0.614620 0.500000 -0.627232
O4    O     O_R   0.316770 0.385380 0.500000 -0.627216
C1    C     C_R   0.259843 0.499982 0.499958 0.875946
C2    C     C_R   0.740157 0.500018 0.500042 0.875927
O5    O     O_R   0.500030 0.614650 0.428760 -0.623858
O6    O     O_R   0.499970 0.385350 0.571240 -0.624041
O7    O     O_R   0.499970 0.614650 0.571240 -0.619973
O8    O     O_R   0.500030 0.385350 0.428760 -0.620442
C3    C     C_R   0.499760 0.501379 0.405892 0.875518
C4    C     C_R   0.500586 0.498597 0.594110 0.875840
Zn1   Zn    Zn3+2 0.500000 0.653120 0.500000 0.951747
Zn2   Zn    Zn3+2 0.500000 0.346880 0.500000 0.951438
C5    C     C_R   0.402304 0.548455 0.175790 0.511087
C6    C     C_R   0.619384 0.459851 0.823025 0.514672
O9    O     O_2   0.294251 0.568348 0.199658 -0.578727
O10   O     O_2   0.727121 0.452088 0.798028 -0.569746
N1    N     N_R   0.509909 0.524375 0.200954 -0.350521
N2    N     N_R   0.508557 0.473794 0.799017 -0.353453
C7    C     C_R   0.622468 0.509361 0.178656 0.488304
C8    C     C_R   0.396671 0.475435 0.822480 0.483378
C9    C     C_R   0.496919 0.638057 0.278308 -0.106500
C10   C     C_R   0.503326 0.607742 0.723733 -0.103680
C11   C     C_R   0.494460 0.632394 0.328448 -0.217234
C12   C     C_R   0.500668 0.614221 0.673445 -0.217110
C13   C     C_R   0.507509 0.385400 0.326756 -0.217305
C14   C     C_R   0.509259 0.367058 0.671359 -0.212441
C15   C     C_R   0.510185 0.391497 0.276497 -0.111472
C16   C     C_R   0.512089 0.361038 0.721487 -0.116208
C17   C     C_R   0.505159 0.517823 0.252391 0.335259
C18   C     C_R   0.508970 0.481140 0.747593 0.336642
C19   C     C_R   0.516405 0.527015 0.101051 -0.078056
C20   C     C_R   0.508386 0.464872 0.898841 -0.083187
C21   C     C_R   0.403467 0.550488 0.125430 -0.055033
C22   C     C_R   0.621382 0.454640 0.873425 -0.056245
C23   C     C_R   0.295035 0.581403 0.099249 -0.183552
C24   C     C_R   0.732775 0.430856 0.898625 -0.164375
C25   C     C_R   0.630020 0.514582 0.127584 -0.042511
C26   C     C_R   0.392905 0.464746 0.873424 -0.036964
C27   C     C_R   0.500185 0.506019 0.353054 -0.041599
C28   C     C_R   0.503287 0.493704 0.646946 -0.041652
H1    H     H_    0.511978 0.286875 0.344929 0.160316
H2    H     H_    0.511662 0.272558 0.651818 0.160443
H3    H     H_    0.516528 0.298490 0.256225 0.131868
H4    H     H_    0.515987 0.263224 0.740157 0.128981
H5    H     H_    0.211699 0.614432 0.117849 0.190782
H6    H     H_    0.817691 0.409008 0.879072 0.189969
C29   C     C_R   0.398218 0.493750 0.974694 0.033040
C30   C     C_R   0.628263 0.492043 0.025486 0.032866
C31   C     C_R   0.626824 0.464670 0.975190 0.037483
C32   C     C_R   0.400264 0.527501 0.024230 0.037256
C33   C     C_R   0.511398 0.475306 0.949721 0.028459
C34   C     C_R   0.514891 0.514811 0.050131 0.027543
C35   C     C_R   0.286083 0.463400 0.950451 -0.251039
C36   C     C_R   0.740447 0.509749 0.051224 -0.247316
C37   C     C_R   0.280509 0.450111 0.900251 0.119369
C38   C     C_R   0.744554 0.512052 0.101666 0.110770
O11   O     O_2   0.291014 0.490553 0.796219 -0.572466
O12   O     O_2   0.724833 0.488312 0.206333 -0.580329
C39   C     C_R   0.293847 0.578885 0.048961 0.189803
C40   C     C_R   0.734193 0.421460 0.948968 0.190549
H7    H     H_    0.496194 0.712933 0.655415 0.159838
H8    H     H_    0.488514 0.726937 0.347855 0.160417
H9    H     H_    0.500538 0.700601 0.744200 0.132214
H10   H     H_    0.493216 0.735694 0.259504 0.133727
H11   H     H_    0.202072 0.444755 0.970977 0.163451
H12   H     H_    0.827280 0.522908 0.032212 0.166359
C41   C     C_R   0.064091 0.378906 0.510733 -0.188565
C42   C     C_R   0.935908 0.621093 0.489267 -0.188465
C43   C     C_R   0.936134 0.378949 0.510797 -0.187081
C44   C     C_R   0.063864 0.621050 0.489202 -0.187234
H13   H     H_    0.113019 0.284932 0.519428 0.158403
H14   H     H_    0.886979 0.715066 0.480572 0.158306
H15   H     H_    0.887389 0.285004 0.519542 0.153868
H16   H     H_    0.112609 0.714995 0.480457 0.153810
C45   C     C_R   0.872550 0.500036 0.500051 -0.013919
C46   C     C_R   0.127449 0.499962 0.499948 -0.014129
C47   C     C_R   0.578194 0.070513 0.530033 -0.077571
C48   C     C_R   0.421805 0.929487 0.469968 -0.077489
C49   C     C_R   0.421789 0.073527 0.469974 -0.072357
C50   C     C_R   0.578210 0.926473 0.530026 -0.072112
H17   H     H_    0.640626 0.124046 0.554018 0.123681
H18   H     H_    0.359371 0.875955 0.445983 0.123505
H19   H     H_    0.359318 0.129457 0.445996 0.128929
H20   H     H_    0.640679 0.870543 0.554006 0.129137
N3    N     N_R   0.500000 0.857200 0.500000 -0.080043
N4    N     N_R   0.500000 0.142800 0.500000 -0.080054
C51   C     C_3   0.154967 0.411078 0.878342 -0.355621
C52   C     C_3   0.158170 0.265471 0.858973 -0.330467
C53   C     C_3   0.032787 0.225589 0.836827 -0.815887
H21   H     H_    0.959298 0.222967 0.864958 0.246354
H22   H     H_    0.005690 0.299020 0.807595 0.293720
H23   H     H_    0.040121 0.122547 0.821237 0.248344
H24   H     H_    0.231541 0.255470 0.831069 0.248465
H25   H     H_    0.180757 0.192933 0.889101 0.212469
H26   H     H_    0.080198 0.414741 0.906029 0.173162
H27   H     H_    0.124922 0.486216 0.850269 0.254492
C54   C     C_3   0.873743 0.510341 0.124812 -0.350357
C55   C     C_3   0.913328 0.363595 0.137572 -0.329121
C56   C     C_3   0.038773 0.359455 0.163994 -0.779709
H28   H     H_    0.113643 0.398998 0.140015 0.259095
H29   H     H_    0.034977 0.421075 0.197223 0.295044
H30   H     H_    0.061737 0.252637 0.174447 0.239489
H31   H     H_    0.842061 0.312588 0.160625 0.259492
H32   H     H_    0.921253 0.304601 0.103794 0.204931
H33   H     H_    0.943898 0.553853 0.099304 0.167885
H34   H     H_    0.878737 0.578462 0.156258 0.246044
C57   C     C_3   0.185056 0.650773 0.024340 -0.954062
H35   H     H_    0.101457 0.583719 0.024324 0.228423
H36   H     H_    0.160865 0.744509 0.044154 0.246162
H37   H     H_    0.208004 0.685812 0.987108 0.259632
C58   C     C_3   0.842485 0.342638 0.971075 -0.967114
H38   H     H_    0.866224 0.254749 0.948134 0.245439
H39   H     H_    0.926565 0.408483 0.973492 0.229092
H40   H     H_    0.818832 0.297497 0.006913 0.255575

loop_
_geom_bond_atom_site_label_1
_geom_bond_atom_site_label_2
_geom_bond_distance
_ccdc_geom_bond_type
C16   C18   1.394918 A    
C56   H28   1.108442 S    
C13   C15   1.391009 A    
C44   H16   1.083780 S    
O3    C2    1.279936 A    
N1    C17   1.424439 S    
C52   H24   1.109651 S    
O5    C3    1.289871 A    
C54   H34   1.108228 S    
C55   H31   1.110121 S    
C19   C25   1.420528 A    
C37   C51   1.522233 S    
O1    C1    1.279857 A    
C9    H10   1.083096 S    
N1    C7    1.365334 A    
C10   C12   1.391585 A    
C48   N3    1.365653 A    
C32   C39   1.428561 A    
C57   H36   1.111459 S    
C50   N3    1.365851 A    
C41   C43   1.368903 A    
O7    Zn1   1.999838 S    
C4    C28   1.461721 S    
C47   H17   1.081857 S    
C42   H14   1.083724 S    
C44   C46   1.396676 A    
C41   H13   1.083723 S    
C23   H5    1.084611 S    
C24   H6    1.083449 S    
C53   H21   1.109293 S    
O6    C4    1.289691 A    
C58   H40   1.109069 S    
C39   C57   1.513585 S    
C56   H29   1.110805 S    
C42   C45   1.396622 A    
C41   C46   1.396625 A    
O2    C2    1.279853 A    
C31   C40   1.430670 A    
C5    C21   1.393064 A    
C47   N4    1.365653 A    
C32   C34   1.421178 A    
C48   H18   1.081854 S    
C7    O12   1.346540 S    
O8    Zn2   1.999843 S    
C57   H37   1.108735 S    
C11   C27   1.405718 A    
C8    O11   1.347005 S    
O4    C1    1.279935 A    
C2    C45   1.416356 S    
C50   H20   1.081796 S    
C25   C38   1.423602 A    
C14   H2    1.083044 S    
C30   C36   1.404420 A    
C51   H26   1.111632 S    
C31   C33   1.421209 A    
C11   H8    1.083198 S    
C9    C17   1.395799 A    
C5    N1    1.360482 A    
C12   H7    1.082999 S    
C10   C18   1.398117 A    
C53   H22   1.110915 S    
C13   C27   1.404037 A    
C23   C39   1.391851 A    
C54   C55   1.536597 S    
C7    C25   1.415602 A    
C6    N2    1.361445 A    
C29   C32   1.415880 A    
C8    C26   1.412088 A    
Zn1   N3    2.004336 S    
C30   C31   1.421995 A    
C30   C34   1.414569 A    
C10   H9    1.082816 S    
C40   C58   1.513531 S    
N2    C8    1.365078 A    
C56   H30   1.110303 S    
C35   C37   1.398209 A    
C20   C26   1.418088 A    
O1    Zn1   1.996206 S    
C22   C24   1.394845 A    
C43   C45   1.396676 A    
C12   C28   1.404080 A    
C58   H38   1.111102 S    
N2    C18   1.423140 S    
C19   C34   1.415933 A    
C5    O9    1.350531 S    
O6    Zn2   2.013530 S    
C26   C37   1.422402 A    
C21   C23   1.394686 A    
C16   H4    1.082998 S    
C38   C54   1.519908 S    
C48   C49   1.414665 A    
O3    Zn1   1.996500 S    
C47   C50   1.414669 A    
C35   H11   1.079572 S    
C52   H25   1.112014 S    
C54   H33   1.112849 S    
C55   H32   1.112200 S    
C51   H27   1.107817 S    
C36   H12   1.076654 S    
C14   C16   1.387082 A    
C51   C52   1.536830 S    
Zn2   N4    2.004336 S    
C15   C17   1.398582 A    
C29   C35   1.405645 A    
C57   H35   1.110462 S    
C6    C22   1.394343 A    
C53   H23   1.110342 S    
C43   H15   1.083780 S    
C52   C53   1.525538 S    
C29   C33   1.410800 A    
C14   C28   1.405662 A    
C55   C56   1.524779 S    
C19   C21   1.408169 A    
C36   C38   1.396472 A    
C3    C27   1.461607 S    
C20   C22   1.406416 A    
C9    C11   1.387575 A    
O4    Zn2   1.996500 S    
O2    Zn2   1.996206 S    
O7    C4    1.293370 A    
C49   N4    1.365850 A    
O8    C3    1.293144 A    
C13   H1    1.083150 S    
O5    Zn1   2.013535 S    
C20   C33   1.413351 A    
C6    O10   1.350345 S    
C15   H3    1.083004 S    
C42   C44   1.368902 A    
C58   H39   1.110060 S    
C1    C46   1.416364 S    
C49   H19   1.081793 S    
C24   C40   1.394040 A    
