data_mof_unit_50018.cif
_audit_creation_date              2013-03-05T15:56:46-0500
_audit_creation_method            fapswitch 2.2
_symmetry_space_group_name_H-M    P1
_symmetry_Int_Tables_number       1
_space_group_crystal_system       triclinic
_cell_length_a                    21.326863
_cell_length_b                    21.366851
_cell_length_c                    13.680337
_cell_angle_alpha                 89.95288
_cell_angle_beta                  89.959136
_cell_angle_gamma                 90.003495
_cell_volume                      6233.96038832

loop_
_atom_site_label
_atom_site_type_symbol
_atom_site_description
_atom_site_fract_x
_atom_site_fract_y
_atom_site_fract_z
_atom_type_partial_charge
O1    O     O_R   0.064880 0.435140 0.582280 -0.590234
O2    O     O_R   0.935120 0.564860 0.417720 -0.589847
O3    O     O_R   0.935120 0.564860 0.582280 -0.584336
O4    O     O_R   0.064880 0.435140 0.417720 -0.584472
O5    O     O_R   0.935120 0.435140 0.417720 -0.584414
O6    O     O_R   0.064880 0.564860 0.582280 -0.583974
O7    O     O_R   0.064880 0.564860 0.417720 -0.591291
O8    O     O_R   0.935120 0.435140 0.582280 -0.591818
O9    O     O_R   0.564880 0.935140 0.582280 -0.590126
O10   O     O_R   0.435120 0.064860 0.417720 -0.589874
O11   O     O_R   0.435120 0.064860 0.582280 -0.583909
O12   O     O_R   0.564880 0.935140 0.417720 -0.584919
O13   O     O_R   0.435120 0.935140 0.417720 -0.584402
O14   O     O_R   0.564880 0.064860 0.582280 -0.584076
O15   O     O_R   0.564880 0.064860 0.417720 -0.591267
O16   O     O_R   0.435120 0.935140 0.582280 -0.591869
C1    C     C_R   0.085813 0.414293 0.499974 0.820260
C2    C     C_R   0.914228 0.585757 0.500031 0.820394
C3    C     C_R   0.914106 0.414365 0.500015 0.820820
C4    C     C_R   0.085897 0.585632 0.499984 0.820838
C5    C     C_R   0.585805 0.914282 0.499972 0.820590
C6    C     C_R   0.414222 0.085749 0.500029 0.820091
C7    C     C_R   0.414107 0.914364 0.500015 0.820936
C8    C     C_R   0.585896 0.085633 0.499984 0.820735
Cu1   Cu    Cu3+1 0.000000 0.500000 0.597420 0.960124
Cu2   Cu    Cu3+1 0.000000 0.500000 0.402580 0.959473
Cu3   Cu    Cu3+1 0.500000 0.000000 0.597420 0.960295
Cu4   Cu    Cu3+1 0.500000 0.000000 0.402580 0.959235
C9    C     C_R   0.157406 0.656937 0.588973 -0.191001
C10   C     C_R   0.842584 0.343074 0.411025 -0.191725
C11   C     C_R   0.841095 0.655523 0.589017 -0.198119
C12   C     C_R   0.160659 0.346242 0.411280 -0.193306
C13   C     C_R   0.657431 0.156912 0.588974 -0.191282
C14   C     C_R   0.342617 0.843041 0.411025 -0.191502
C15   C     C_R   0.339675 0.154097 0.588809 -0.197667
C16   C     C_R   0.659210 0.844779 0.411056 -0.193708
C17   C     C_R   0.134826 0.633506 0.500150 -0.088108
C18   C     C_R   0.865186 0.366482 0.499850 -0.087793
C19   C     C_R   0.866227 0.634559 0.500292 -0.086448
C20   C     C_R   0.133933 0.365626 0.499733 -0.086606
C21   C     C_R   0.634824 0.133508 0.500149 -0.088097
C22   C     C_R   0.365188 0.866479 0.499849 -0.087764
C23   C     C_R   0.366206 0.134534 0.500298 -0.086276
C24   C     C_R   0.633898 0.865585 0.499738 -0.086796
C25   C     C_R   0.158846 0.655892 0.411733 -0.214350
C26   C     C_R   0.841198 0.344063 0.588267 -0.214952
C27   C     C_R   0.845537 0.660171 0.412031 -0.211392
C28   C     C_R   0.153195 0.338610 0.587760 -0.211929
C29   C     C_R   0.658814 0.155924 0.411732 -0.214442
C30   C     C_R   0.341174 0.844087 0.588265 -0.214903
C31   C     C_R   0.346915 0.161536 0.412276 -0.211607
C32   C     C_R   0.654556 0.839957 0.588010 -0.211710
C33   C     C_R   0.204447 0.702459 0.411318 0.093765
C34   C     C_R   0.795604 0.297490 0.588681 0.094096
C35   C     C_R   0.799211 0.705997 0.411581 0.093327
C36   C     C_R   0.199602 0.292856 0.588266 0.090148
C37   C     C_R   0.704413 0.202492 0.411317 0.093760
C38   C     C_R   0.295581 0.797513 0.588680 0.094135
C39   C     C_R   0.300628 0.207410 0.411816 0.093226
C40   C     C_R   0.700987 0.794235 0.588499 0.090099
C41   C     C_R   0.227408 0.726127 0.500631 0.057849
C42   C     C_R   0.772616 0.273849 0.499368 0.057894
C43   C     C_R   0.773870 0.727402 0.500777 0.058736
C44   C     C_R   0.226436 0.272925 0.499306 0.057103
C45   C     C_R   0.727402 0.226132 0.500630 0.057835
C46   C     C_R   0.272622 0.773843 0.499367 0.057910
C47   C     C_R   0.273867 0.227398 0.500812 0.058690
C48   C     C_R   0.726397 0.772882 0.499335 0.057201
C49   C     C_R   0.204982 0.702148 0.590945 0.032857
C50   C     C_R   0.795013 0.297857 0.409055 0.032760
C51   C     C_R   0.795935 0.703175 0.591131 0.029162
C52   C     C_R   0.205899 0.298689 0.409127 0.033343
C53   C     C_R   0.705006 0.202125 0.590943 0.032856
C54   C     C_R   0.295048 0.797822 0.409053 0.032760
C55   C     C_R   0.294474 0.201710 0.591020 0.029208
C56   C     C_R   0.704395 0.797176 0.409003 0.033265
C57   C     C_R   0.226371 0.726184 0.322387 -0.242034
C58   C     C_R   0.773712 0.273733 0.677611 -0.242758
C59   C     C_R   0.777489 0.729803 0.322635 -0.242506
C60   C     C_R   0.219929 0.267687 0.677084 -0.235458
C61   C     C_R   0.726308 0.226247 0.322387 -0.242167
C62   C     C_R   0.273662 0.773782 0.677611 -0.242689
C63   C     C_R   0.280377 0.232695 0.323019 -0.242461
C64   C     C_R   0.722766 0.770526 0.677458 -0.235520
C65   C     C_R   0.770566 0.274530 0.319798 -0.024361
C66   C     C_R   0.229404 0.725498 0.680203 -0.024586
C67   C     C_R   0.232553 0.277441 0.320081 -0.018846
C68   C     C_R   0.770817 0.726088 0.680374 -0.022607
C69   C     C_R   0.270631 0.774466 0.319795 -0.024321
C70   C     C_R   0.729455 0.225449 0.680200 -0.024583
C71   C     C_R   0.729582 0.774458 0.319804 -0.019246
C72   C     C_R   0.267912 0.223179 0.680122 -0.022075
H1    H     H_    0.136545 0.640441 0.656156 0.193386
H2    H     H_    0.863421 0.359594 0.343839 0.192901
H3    H     H_    0.856301 0.633340 0.655854 0.188611
H4    H     H_    0.146707 0.369594 0.344740 0.188741
H5    H     H_    0.636593 0.140393 0.656160 0.193317
H6    H     H_    0.363476 0.859540 0.343843 0.192904
H7    H     H_    0.353793 0.130812 0.655316 0.187848
H8    H     H_    0.644172 0.867024 0.344169 0.189418
H9    H     H_    0.207496 0.708129 0.254377 0.176159
H10   H     H_    0.792610 0.291766 0.745620 0.175608
H11   H     H_    0.796877 0.712169 0.254664 0.173633
H12   H     H_    0.199405 0.284251 0.744902 0.180767
H13   H     H_    0.707411 0.208214 0.254378 0.176140
H14   H     H_    0.292538 0.791836 0.745620 0.175574
H15   H     H_    0.300873 0.216177 0.255151 0.174086
H16   H     H_    0.703339 0.788194 0.745379 0.180997
C73   C     C_R   0.055711 0.500351 0.793193 0.024206
C74   C     C_R   0.944290 0.499623 0.206809 0.023929
C75   C     C_R   0.944291 0.499730 0.793318 0.029992
C76   C     C_R   0.055711 0.500194 0.206685 0.026124
C77   C     C_R   0.555710 0.000406 0.793192 0.024002
C78   C     C_R   0.444290 0.999567 0.206809 0.024134
C79   C     C_R   0.444290 0.999686 0.793317 0.031078
C80   C     C_R   0.555710 0.000263 0.206684 0.025055
N1    N     N_R   1.000000 0.500000 0.743810 -0.188995
N2    N     N_R   1.000000 0.500000 0.256190 -0.188208
N3    N     N_R   0.500000 0.000000 0.743810 -0.189083
N4    N     N_R   0.500000 0.000000 0.256190 -0.188223
C81   C     C_R   0.942953 0.499694 0.896420 0.000063
C82   C     C_R   0.057051 0.500182 0.103585 -0.006381
C83   C     C_R   0.057050 0.500321 0.896289 -0.005597
C84   C     C_R   0.942953 0.499586 0.103715 -0.003825
C85   C     C_R   0.442951 0.999651 0.896419 0.000349
C86   C     C_R   0.557048 0.000259 0.103583 -0.006566
C87   C     C_R   0.557048 0.000389 0.896287 -0.005630
C88   C     C_R   0.442952 0.999537 0.103714 -0.003823
C89   C     C_R   0.000002 0.499972 0.948165 0.091499
C90   C     C_R   0.000002 0.499912 0.051839 0.092306
C91   C     C_R   0.500000 0.999984 0.948163 0.091102
C92   C     C_R   0.500000 0.999925 0.051838 0.092173
C93   C     C_R   0.886197 0.499359 0.948767 -0.176958
C94   C     C_R   0.113806 0.500479 0.051239 -0.184158
C95   C     C_R   0.113806 0.500584 0.948502 -0.186514
C96   C     C_R   0.886198 0.499283 0.051504 -0.189840
C97   C     C_R   0.386196 0.999264 0.948765 -0.175790
C98   C     C_R   0.613803 0.000626 0.051237 -0.183008
C99   C     C_R   0.613803 0.000720 0.948500 -0.186141
C100  C     C_R   0.386197 0.999183 0.051502 -0.189868
H17   H     H_    0.841820 0.499154 0.910283 0.149425
H18   H     H_    0.158183 0.500657 0.089726 0.153587
H19   H     H_    0.158181 0.500848 0.909911 0.157437
H20   H     H_    0.841823 0.499020 0.090095 0.154699
H21   H     H_    0.341818 0.999023 0.910281 0.149405
H22   H     H_    0.658180 0.000862 0.089723 0.153145
H23   H     H_    0.658178 0.001031 0.909909 0.157118
H24   H     H_    0.341822 0.998876 0.090094 0.154698
H25   H     H_    0.141382 0.637763 0.342906 0.158003
H26   H     H_    0.858682 0.362172 0.657095 0.157370
H27   H     H_    0.864963 0.643926 0.343289 0.158969
H28   H     H_    0.132546 0.353658 0.656301 0.159189
H29   H     H_    0.641328 0.137817 0.342904 0.157976
H30   H     H_    0.358635 0.862219 0.657093 0.157326
H31   H     H_    0.367471 0.146406 0.343712 0.159326
H32   H     H_    0.635040 0.856128 0.656733 0.159027
C101  C     C_2   0.788110 0.300343 0.222665 0.850711
O17   O     O_2   0.796712 0.264892 0.153789 -0.563633
O18   O     O_R   0.791929 0.365072 0.208500 -0.777004
H33   H     H_    0.803766 0.376628 0.138994 0.337187
C102  C     C_2   0.211836 0.699709 0.777340 0.851796
O19   O     O_2   0.203223 0.735176 0.846193 -0.562687
O20   O     O_R   0.208007 0.634983 0.791538 -0.776338
H34   H     H_    0.196152 0.623443 0.861043 0.338033
C103  C     C_2   0.210826 0.298974 0.222522 0.832474
O21   O     O_2   0.249156 0.309991 0.158214 -0.576326
O22   O     O_R   0.146718 0.303880 0.202468 -0.761365
H35   H     H_    0.138102 0.318605 0.133291 0.342905
C104  C     C_2   0.793972 0.706787 0.778272 0.838793
O23   O     O_2   0.850189 0.701395 0.793687 -0.588105
O24   O     O_R   0.751213 0.697968 0.854602 -0.745978
H36   H     H_    0.772422 0.685953 0.918228 0.347976
C105  C     C_2   0.288208 0.800246 0.222655 0.850774
O25   O     O_2   0.296834 0.764772 0.153816 -0.563551
O26   O     O_R   0.292030 0.864970 0.208440 -0.777045
H37   H     H_    0.303891 0.876503 0.138934 0.337146
C106  C     C_2   0.711915 0.199632 0.777332 0.851600
O27   O     O_2   0.703320 0.235080 0.846214 -0.562790
O28   O     O_R   0.708094 0.134903 0.791490 -0.776468
H38   H     H_    0.696261 0.123344 0.860996 0.337904
C107  C     C_2   0.706180 0.794292 0.222308 0.832989
O29   O     O_2   0.743387 0.804134 0.155955 -0.576638
O30   O     O_R   0.641748 0.798873 0.204740 -0.761031
H39   H     H_    0.631939 0.812322 0.135310 0.343472
C108  C     C_2   0.289448 0.202235 0.778094 0.838804
O31   O     O_2   0.345391 0.196600 0.795550 -0.588420
O32   O     O_R   0.245438 0.192100 0.852264 -0.747196
H40   H     H_    0.265587 0.178988 0.916192 0.346465
H41   H     H_    0.099133 0.500633 0.752140 0.140025
H42   H     H_    0.900868 0.499363 0.247861 0.139377
H43   H     H_    0.900873 0.499529 0.752357 0.125958
H44   H     H_    0.099129 0.500377 0.247648 0.126651
H45   H     H_    0.599132 0.000725 0.752140 0.139756
H46   H     H_    0.400869 0.999261 0.247861 0.139703
H47   H     H_    0.400872 0.999449 0.752355 0.125853
H48   H     H_    0.599128 0.000495 0.247645 0.126784

loop_
_geom_bond_atom_site_label_1
_geom_bond_atom_site_label_2
_geom_bond_distance
_ccdc_geom_bond_type
C63   C67   1.398597 A    
O24   H36   1.014066 S    
C75   H43   1.082680 S    
C103  O21   1.223199 D    
C8    C21   1.461213 S    
C75   C81   1.410737 A    
C104  O23   1.222912 D    
C57   H9    1.085179 S    
O20   H34   1.013955 S    
C14   C22   1.400323 A    
C69   C105  1.485929 S    
O30   H39   1.014078 S    
C44   C52   1.420037 A    
C23   C31   1.397040 A    
C100  H24   1.083362 S    
C51   C68   1.420298 A    
C102  O19   1.223191 D    
C108  O31   1.222851 D    
C29   C37   1.391288 A    
C12   C52   1.401522 A    
C105  O25   1.223195 D    
O10   C6    1.290701 A    
C94   H18   1.083350 S    
C99   H23   1.083360 S    
C35   C59   1.397777 A    
C101  O17   1.223196 D    
C7    C22   1.461213 S    
C65   C101  1.485931 S    
O12   Cu4   1.969327 S    
C54   C69   1.418840 A    
C29   H29   1.084639 S    
C39   C63   1.397782 A    
C53   C70   1.418840 A    
C38   C62   1.397825 A    
C108  O32   1.398450 S    
O6    Cu1   1.968999 S    
C58   H10   1.085180 S    
C41   C49   1.419809 A    
C46   C54   1.419811 A    
C45   C53   1.419811 A    
C42   C50   1.419812 A    
O3    C2    1.289917 A    
C20   C28   1.397049 A    
O14   C8    1.289893 A    
C14   C54   1.401223 A    
C27   C35   1.391043 A    
C82   C94   1.405955 A    
C32   C40   1.391093 A    
C39   C47   1.410782 A    
C77   N3    1.367213 A    
C33   C41   1.410753 A    
C41   C46   1.403372 A    
C38   C46   1.410753 A    
O18   H33   1.013957 S    
C73   H41   1.082702 S    
C106  O28   1.398760 S    
C35   C43   1.410763 A    
C93   C96   1.405467 A    
C36   C44   1.410621 A    
O13   Cu4   1.969002 S    
O11   Cu3   1.969327 S    
O14   Cu3   1.968999 S    
C15   C23   1.400332 A    
C10   C50   1.401221 A    
C63   H15   1.085196 S    
C59   C71   1.398519 A    
C61   C65   1.398672 A    
C74   C84   1.410669 A    
C24   C32   1.397103 A    
O16   Cu3   1.969450 S    
C95   H19   1.083359 S    
C70   C106  1.485928 S    
C25   C33   1.391287 A    
C101  O18   1.398760 S    
C80   C86   1.410721 A    
C83   C89   1.408095 A    
O1    Cu1   1.969359 S    
O8    Cu1   1.969450 S    
C104  O24   1.398493 S    
C59   H11   1.085198 S    
C103  O22   1.398591 S    
C87   C99   1.405900 A    
C15   H7    1.079655 S    
C88   C92   1.408099 A    
C21   C29   1.397282 A    
C102  O20   1.398762 S    
O13   C7    1.289890 A    
C98   H22   1.083344 S    
C9    C49   1.401221 A    
C105  O26   1.398759 S    
C97   C100  1.405474 A    
C61   H13   1.085178 S    
O8    C3    1.290718 A    
C10   C18   1.400325 A    
C84   C96   1.405894 A    
C73   N1    1.367223 A    
C30   C38   1.391287 A    
C44   C47   1.403593 A    
C64   C68   1.397643 A    
O3    Cu1   1.969327 S    
C16   H8    1.079723 S    
Cu4   N4    2.002665 S    
C107  O30   1.398564 S    
C37   C45   1.410752 A    
O22   H35   1.013965 S    
C9    H1    1.079694 S    
C72   C108  1.485775 S    
C73   C83   1.410698 A    
C34   C42   1.410753 A    
C85   C97   1.405976 A    
Cu1   Cu2   2.665475 S    
C107  O29   1.223315 D    
O12   C5    1.289900 A    
C74   H42   1.082704 S    
C58   C70   1.398671 A    
O28   H38   1.013957 S    
C83   C95   1.405913 A    
C1    C20   1.461039 S    
C60   C72   1.397662 A    
C33   C57   1.397824 A    
C2    C19   1.461306 S    
C76   C82   1.410717 A    
C3    C18   1.461213 S    
C76   H44   1.082686 S    
C5    C24   1.461102 S    
C78   C88   1.410679 A    
C85   C91   1.408076 A    
O26   H37   1.013955 S    
C86   C92   1.408071 A    
C57   C69   1.398673 A    
C26   C34   1.391284 A    
C84   C90   1.408103 A    
O2    Cu2   1.969359 S    
C66   C102  1.485934 S    
C74   N2    1.367200 A    
O7    Cu2   1.969447 S    
C43   C51   1.420245 A    
C55   C72   1.420243 A    
C22   C30   1.397277 A    
C77   C87   1.410686 A    
O4    C1    1.289901 A    
C13   C53   1.401221 A    
O15   C8    1.290717 A    
C26   H26   1.084639 S    
C60   H12   1.085174 S    
O7    C4    1.290716 A    
O16   C7    1.290718 A    
C79   N3    1.367188 A    
C12   C20   1.400199 A    
C28   H28   1.084644 S    
C37   C61   1.397824 A    
C15   C55   1.401914 A    
C31   C39   1.391184 A    
C17   C25   1.397281 A    
C91   C92   1.418304 A    
C52   C67   1.418861 A    
O9    Cu3   1.969359 S    
C19   C27   1.397073 A    
C89   C90   1.418303 A    
O10   Cu4   1.969359 S    
C28   C36   1.391195 A    
C79   H47   1.082686 S    
C43   C48   1.403513 A    
C86   C98   1.405956 A    
C68   C104  1.485824 S    
C78   H46   1.082702 S    
C42   C45   1.403371 A    
C12   H4    1.079719 S    
C77   H45   1.082705 S    
Cu2   N2    2.002665 S    
C81   C89   1.408076 A    
O2    C2    1.290737 A    
Cu1   N1    2.002665 S    
O4    Cu2   1.969327 S    
C97   H21   1.083354 S    
C94   C95   1.405481 A    
O5    C3    1.289889 A    
Cu3   N3    2.002665 S    
C48   C56   1.420057 A    
O6    C4    1.289893 A    
O11   C6    1.289921 A    
O1    C1    1.290616 A    
C36   C60   1.397575 A    
C75   N1    1.367182 A    
C13   C21   1.400324 A    
C71   C107  1.485844 S    
C88   C100  1.405905 A    
O32   H40   1.013978 S    
C96   H20   1.083363 S    
C62   C66   1.398671 A    
C31   H31   1.084641 S    
C76   N2    1.367189 A    
C4    C17   1.461214 S    
C40   C64   1.397583 A    
O9    C5    1.290656 A    
O15   Cu4   1.969447 S    
C67   C103  1.485792 S    
C30   H30   1.084639 S    
C11   H3    1.079630 S    
C79   C85   1.410734 A    
C11   C51   1.401879 A    
C14   H6    1.079694 S    
C11   C19   1.400437 A    
C50   C65   1.418840 A    
C25   H25   1.084638 S    
C62   H14   1.085179 S    
C32   H32   1.084668 S    
C87   C91   1.408099 A    
C18   C26   1.397279 A    
C16   C24   1.400313 A    
C98   C99   1.405474 A    
C27   H27   1.084678 S    
C56   C71   1.418915 A    
O5    Cu2   1.969002 S    
C80   H48   1.082682 S    
C80   N4    1.367180 A    
C16   C56   1.401444 A    
C47   C55   1.420228 A    
C40   C48   1.410585 A    
C10   H2    1.079694 S    
C106  O27   1.223195 D    
C9    C17   1.400322 A    
Cu3   Cu4   2.665475 S    
C93   H17   1.083350 S    
C13   H5    1.079695 S    
C81   C93   1.405973 A    
C64   H16   1.085185 S    
C82   C90   1.408075 A    
C6    C23   1.461277 S    
C78   N4    1.367209 A    
C49   C66   1.418840 A    
C34   C58   1.397823 A    
