data_mof_unit_67696.cif
_audit_creation_date              2012-12-10T19:48:31-0500
_audit_creation_method            fapswitch 2.2
_symmetry_space_group_name_H-M    P1
_symmetry_Int_Tables_number       1
_space_group_crystal_system       triclinic
_cell_length_a                    10.945704
_cell_length_b                    10.699749
_cell_length_c                    9.543088
_cell_angle_alpha                 91.731876
_cell_angle_beta                  91.233639
_cell_angle_gamma                 91.137392
_cell_volume                      1116.64649366

loop_
_atom_site_label
_atom_site_type_symbol
_atom_type_description
_atom_site_fract_x
_atom_site_fract_y
_atom_site_fract_z
_atom_type_partial_charge
C1    C     C_R   0.503936 0.259895 0.498540 0.857018
C2    C     C_R   0.496064 0.740105 0.501460 0.857018
C3    C     C_R   0.871569 0.508604 0.503752 -0.095609
C4    C     C_R   0.128431 0.491396 0.496248 -0.095609
C5    C     C_R   0.947373 0.596307 0.580765 0.086922
C6    C     C_R   0.052627 0.403693 0.419234 0.086921
C7    C     C_3   0.575453 0.044596 0.603994 -0.148889
C8    C     C_3   0.424548 0.955404 0.396005 -0.148889
C9    C     C_3   0.611774 0.954407 0.481980 -0.264203
C10   C     C_3   0.388226 0.045593 0.518019 -0.264203
C11   C     C_3   0.494353 0.877267 0.503000 -0.174137
C12   C     C_3   0.505647 0.122733 0.497000 -0.174136
C13   C     C_3   0.458244 0.965928 0.623124 0.492775
C14   C     C_3   0.541756 0.034072 0.376876 0.492775
C15   C     C_3   0.442860 0.594816 0.051296 0.393655
C16   C     C_3   0.557140 0.405184 0.948703 0.393653
C17   C     C_3   0.391550 0.495018 0.947728 0.019412
C18   C     C_3   0.608450 0.504982 0.052272 0.019411
C19   C     C_3   0.552850 0.600074 0.954761 0.354146
C20   C     C_3   0.447150 0.399926 0.045239 0.354147
C21   C     C_R   0.262758 0.491151 0.498105 0.780690
C22   C     C_R   0.737242 0.508849 0.501895 0.780690
C23   C     C_R   0.107523 0.192003 0.102974 0.367542
C24   C     C_R   0.892476 0.807998 0.897025 0.367541
C25   C     C_R   0.090178 0.302026 0.186086 0.092840
C26   C     C_R   0.909821 0.697975 0.813913 0.092841
C27   C     C_R   0.096907 0.297214 0.333441 -0.032307
C28   C     C_R   0.903093 0.702786 0.666559 -0.032308
C29   C     C_R   0.110336 0.181767 0.396299 -0.297185
C30   C     C_R   0.889664 0.818233 0.603700 -0.297186
C31   C     C_R   0.121979 0.072147 0.314549 0.317531
C32   C     C_R   0.878021 0.927854 0.685449 0.317531
C33   C     C_R   0.126852 0.078134 0.168312 0.410206
C34   C     C_R   0.873148 0.921867 0.831687 0.410206
C35   C     C_R   0.925713 0.414351 0.423845 -0.094074
C36   C     C_R   0.074287 0.585649 0.576155 -0.094075
Cu1   Cu    Cu3+1 0.500030 0.499990 0.643150 1.084017
Cu2   Cu    Cu3+1 0.499970 0.500010 0.356850 1.084017
H1    H     H_    0.104801 0.176429 0.509094 0.248583
H2    H     H_    0.895200 0.823572 0.490905 0.248583
H3    H     H_    0.867996 0.346378 0.365517 0.194656
H4    H     H_    0.132004 0.653622 0.634483 0.194656
H5    H     H_    0.701357 0.913695 0.459379 0.209247
H6    H     H_    0.298643 0.086305 0.540621 0.209247
H7    H     H_    0.636489 0.079559 0.690820 0.270309
H8    H     H_    0.363511 0.920441 0.309180 0.270309
N1    N     N_3   0.500090 0.499970 0.858290 -0.258016
N2    N     N_3   0.499910 0.500030 0.141710 -0.258016
O1    O     O_R   0.500060 0.316850 0.620870 -0.537946
O2    O     O_R   0.499940 0.683150 0.379130 -0.537947
O3    O     O_R   0.500000 0.316860 0.379090 -0.520446
O4    O     O_R   0.500000 0.683140 0.620910 -0.520446
O5    O     O_R   0.319670 0.500010 0.620890 -0.545416
O6    O     O_R   0.680330 0.499990 0.379110 -0.545416
O7    O     O_R   0.319620 0.500010 0.379110 -0.556497
O8    O     O_R   0.680380 0.499990 0.620890 -0.556497
Cl1   Cl    Cl    0.159745 0.943724 0.066333 -0.340462
Cl2   Cl    Cl    0.840255 0.056276 0.933665 -0.340462
N3    N     N_3   0.269407 0.496022 0.885337 -0.482530
H9    H     H_    0.237344 0.403965 0.875953 0.277622
H10   H     H_    0.212699 0.546315 0.951582 0.249130
N4    N     N_3   0.730593 0.503978 0.114663 -0.482529
H11   H     H_    0.762657 0.596035 0.124046 0.277622
H12   H     H_    0.787300 0.453682 0.048418 0.249131
Cl3   Cl    Cl    0.358275 0.721446 0.119307 -0.436869
Cl4   Cl    Cl    0.641724 0.278554 0.880692 -0.436870
Cl5   Cl    Cl    0.616829 0.741482 0.895769 -0.497875
Cl6   Cl    Cl    0.383171 0.258518 0.104231 -0.497875
Cl7   Cl    Cl    0.108627 0.194150 0.917509 -0.488013
Cl8   Cl    Cl    0.891372 0.805851 0.082490 -0.488012
N5    N     N_3   0.059509 0.418356 0.124950 -0.567648
H13   H     H_    0.052510 0.409414 0.016316 0.264905
H14   H     H_    0.130284 0.482462 0.150622 0.255709
N6    N     N_3   0.940488 0.581644 0.875050 -0.567647
H15   H     H_    0.947488 0.590586 0.983684 0.264904
H16   H     H_    0.869711 0.517540 0.849378 0.255710
Cl9   Cl    Cl    0.120616 0.926976 0.396568 -0.547042
Cl10  Cl    Cl    0.879384 0.073025 0.603430 -0.547042
Cl11  Cl    Cl    0.394440 0.925731 0.786117 -0.341749
Cl12  Cl    Cl    0.605560 0.074269 0.213883 -0.341750

loop_
_geom_bond_atom_site_label_1
_geom_bond_atom_site_label_2
_ccdc_geom_bond_type
C30   C32   A    
C4    C36   A    
C27   C29   A    
C23   Cl7   S    
C36   H4    S    
C13   Cl11  S    
C24   Cl8   S    
C22   O6    A    
C15   C19   S    
Cu1   Cu2   S    
N6    H16   S    
C7    H7    S    
C24   C26   A    
C19   N1    S    
C15   Cl3   S    
C5    C36   A    
C17   C20   S    
C6    C35   A    
C15   C17   S    
C18   C19   S    
N4    H12   S    
C2    O2    A    
Cu1   O8    S    
Cu2   O7    S    
C23   C33   A    
C33   Cl1   S    
C31   C33   A    
C19   Cl5   S    
C25   N5    S    
C14   Cl12  S    
Cu1   N1    S    
Cu2   N2    S    
Cu1   O5    S    
N3    H9    S    
C1    C12   S    
C15   N2    S    
C2    C11   S    
C10   C12   S    
C16   N1    S    
C31   Cl9   S    
C7    C12   S    
C9    H5    S    
N3    H10   S    
N6    H15   S    
C10   H6    S    
C4    C6    A    
N5    H14   S    
Cu1   O4    S    
C18   N4    S    
C22   O8    A    
Cu2   O3    S    
C24   C34   A    
C32   C34   A    
C9    C14   S    
N4    H11   S    
C5    C28   S    
Cu1   O1    S    
C6    C27   S    
Cu2   O6    S    
C3    C35   A    
C16   C20   S    
C29   H1    S    
C30   H2    S    
C1    O3    A    
C20   N2    S    
C2    O4    A    
C17   N3    S    
C16   C18   S    
C12   C14   S    
C9    C11   S    
C16   Cl4   S    
C21   O7    A    
C7    C9    S    
C8    C14   S    
C20   Cl6   S    
C17   N1    S    
C3    C5    A    
C10   C13   S    
C18   N2    S    
Cu2   O2    S    
C25   C27   A    
C26   C28   A    
C28   C30   A    
N5    H13   S    
C29   C31   A    
C21   O5    A    
C4    C21   S    
C11   C13   S    
C8    C11   S    
C26   N6    S    
C23   C25   A    
C35   H3    S    
C8    H8    S    
C32   Cl10  S    
C7    C13   S    
C8    C10   S    
C34   Cl2   S    
C3    C22   S    
C1    O1    A    
