data_mof_unit_29946.cif
_audit_creation_date              2012-12-10T16:51:11-0500
_audit_creation_method            fapswitch 2.2
_symmetry_space_group_name_H-M    P1
_symmetry_Int_Tables_number       1
_space_group_crystal_system       triclinic
_cell_length_a                    27.791864
_cell_length_b                    8.691248
_cell_length_c                    7.452574
_cell_angle_alpha                 103.264337
_cell_angle_beta                  93.872116
_cell_angle_gamma                 92.265292
_cell_volume                      1745.30723312

loop_
_atom_site_label
_atom_site_type_symbol
_atom_type_description
_atom_site_fract_x
_atom_site_fract_y
_atom_site_fract_z
_atom_type_partial_charge
C1    C     C_R   0.498549 0.199640 0.453051 0.888679
C2    C     C_R   0.501450 0.800360 0.546949 0.888660
C3    C     C_R   0.102273 0.503371 0.513132 -0.053103
C4    C     C_R   0.897735 0.496745 0.487026 -0.053119
C5    C     C_R   0.125072 0.365119 0.432868 -0.002946
C6    C     C_R   0.874937 0.635005 0.567265 -0.002914
C7    C     C_R   0.097458 0.225687 0.353830 -0.187742
C8    C     C_R   0.902552 0.774435 0.646312 -0.187742
C9    C     C_R   0.130903 0.642473 0.599470 -0.066379
C10   C     C_R   0.869105 0.357644 0.400691 -0.066379
C11   C     C_R   0.354792 0.501497 0.510510 -0.034569
C12   C     C_R   0.645210 0.498587 0.489510 -0.034631
C13   C     C_R   0.971805 0.356365 0.425418 0.021496
C14   C     C_R   0.028204 0.643745 0.574758 0.021498
C15   C     C_R   0.976939 0.641744 0.572239 0.058332
C16   C     C_R   0.023069 0.358367 0.427934 0.058323
C17   C     C_R   0.949000 0.498313 0.494077 0.064069
C18   C     C_R   0.051009 0.501798 0.506094 0.064069
C19   C     C_R   0.942554 0.215128 0.361945 -0.253929
C20   C     C_R   0.057454 0.784982 0.638229 -0.253930
C21   C     C_R   0.892019 0.213009 0.345083 0.018795
C22   C     C_R   0.107988 0.787104 0.655088 0.018791
C23   C     C_R   0.407557 0.500284 0.503093 0.795879
C24   C     C_R   0.592444 0.499734 0.496910 0.795894
C25   C     C_R   0.047571 0.222077 0.350362 -0.222439
C26   C     C_R   0.952438 0.778038 0.649802 -0.222455
C27   C     C_2   0.497851 0.031561 0.426844 -0.364972
C28   C     C_2   0.502148 0.968439 0.573156 -0.364966
C29   C     C_R   0.175332 0.370281 0.429235 0.500066
C30   C     C_R   0.824678 0.629862 0.570863 0.500056
C31   C     C_R   0.181423 0.629637 0.624307 0.509151
C32   C     C_R   0.818585 0.370487 0.375834 0.509188
C33   C     C_R   0.274907 0.498857 0.356603 -0.106489
C34   C     C_R   0.725094 0.501534 0.643459 -0.106445
C35   C     C_R   0.324843 0.498191 0.349815 -0.210996
C36   C     C_R   0.675157 0.502200 0.650228 -0.211095
C37   C     C_R   0.333851 0.506102 0.678096 -0.219808
C38   C     C_R   0.666153 0.493771 0.321929 -0.219851
C39   C     C_R   0.283839 0.506440 0.684418 -0.122739
C40   C     C_R   0.716167 0.493515 0.315633 -0.122693
C41   C     C_R   0.254136 0.502172 0.523545 0.341757
C42   C     C_R   0.745870 0.497992 0.476524 0.341564
Cu1   Cu    Cu3+1 0.505380 0.517380 0.684380 0.954477
Cu2   Cu    Cu3+1 0.494620 0.482620 0.315620 0.954478
H1    H     H_    0.356032 0.508826 0.804149 0.157807
H2    H     H_    0.643972 0.490829 0.195861 0.157867
H3    H     H_    0.462180 0.378463 0.948664 0.224378
H4    H     H_    0.537820 0.621537 0.051335 0.224380
H5    H     H_    0.268280 0.509792 0.814320 0.137776
H6    H     H_    0.731728 0.490074 0.185739 0.137863
H7    H     H_    0.114407 0.117892 0.292973 0.183094
H8    H     H_    0.885603 0.882235 0.707159 0.183107
H9    H     H_    0.660080 0.505271 0.781187 0.156719
H10   H     H_    0.339920 0.495364 0.218861 0.156668
H11   H     H_    0.747774 0.503991 0.768239 0.135852
H12   H     H_    0.252223 0.496595 0.231842 0.135758
H13   H     H_    0.958176 0.101706 0.330700 0.138194
H14   H     H_    0.041833 0.898404 0.669475 0.138196
H15   H     H_    0.029465 0.110636 0.280365 0.136085
H16   H     H_    0.970543 0.889480 0.719800 0.136086
H17   H     H_    0.493800 0.959441 0.286069 0.180062
H18   H     H_    0.506199 0.040559 0.713931 0.180062
N1    N     N_R   0.202561 0.500060 0.527744 -0.461650
N2    N     N_R   0.797447 0.500082 0.472359 -0.461633
N3    N     N_2   0.486510 0.456430 0.038510 -0.218804
N4    N     N_2   0.513490 0.543570 0.961490 -0.218804
O1    O     O_R   0.503500 0.286120 0.619780 -0.583147
O2    O     O_R   0.496500 0.713880 0.380220 -0.583154
O3    O     O_R   0.494410 0.256780 0.308360 -0.582652
O4    O     O_R   0.505590 0.743220 0.691640 -0.582658
O5    O     O_R   0.434810 0.514700 0.655690 -0.591624
O6    O     O_R   0.565190 0.485300 0.344310 -0.591630
O7    O     O_R   0.425720 0.485350 0.344280 -0.584637
O8    O     O_R   0.574280 0.514650 0.655720 -0.584648
O9    O     O_2   0.196944 0.245512 0.330505 -0.564518
O10   O     O_2   0.803069 0.754654 0.669555 -0.564580
O11   O     O_2   0.790880 0.257003 0.254915 -0.540038
O12   O     O_2   0.209131 0.743107 0.745239 -0.540008
C43   C     C_R   0.865411 0.054603 0.282283 0.143795
C44   C     C_R   0.827089 0.010851 0.378129 -0.049358
C45   C     C_R   0.800892 0.866085 0.310901 -0.079729
C46   C     C_R   0.815914 0.756117 0.160611 -0.112296
C47   C     C_R   0.856198 0.792791 0.073678 -0.069291
C48   C     C_R   0.880057 0.942469 0.130262 -0.156288
H19   H     H_    0.816348 0.091010 0.500919 0.138405
H20   H     H_    0.769423 0.837834 0.377566 0.169645
H21   H     H_    0.796747 0.641861 0.112377 0.121400
H22   H     H_    0.868567 0.705341 0.961197 0.146142
H23   H     H_    0.910131 0.970414 0.055961 0.118262
C49   C     C_R   0.134594 0.945512 0.717872 0.143815
C50   C     C_R   0.119947 0.057656 0.869882 -0.156306
C51   C     C_R   0.143803 0.207342 0.926447 -0.069248
C52   C     C_R   0.184084 0.244016 0.839503 -0.112229
C53   C     C_R   0.199106 0.134039 0.689214 -0.079806
C54   C     C_R   0.172912 0.989261 0.622010 -0.049408
H24   H     H_    0.089873 0.029713 0.944188 0.118260
H25   H     H_    0.131433 0.294802 0.038922 0.146135
H26   H     H_    0.203250 0.358277 0.887731 0.121409
H27   H     H_    0.230572 0.162289 0.622535 0.169644
H28   H     H_    0.183653 0.909094 0.499224 0.138388

loop_
_geom_bond_atom_site_label_1
_geom_bond_atom_site_label_2
_ccdc_geom_bond_type
C29   N1    A    
C52   C53   A    
C30   N2    A    
C8    C26   A    
C14   C18   A    
C34   C42   A    
C45   C46   A    
C49   C54   A    
C39   C41   A    
C19   H13   S    
C19   C21   A    
C2    O2    A    
C43   C48   A    
C9    C22   A    
C46   H21   S    
C3    C18   A    
C11   C37   A    
C36   H9    S    
C27   H17   S    
C33   C35   A    
C50   H24   S    
C12   C36   A    
C8    H8    S    
C45   H20   S    
C33   H12   S    
C40   C42   A    
C47   H22   S    
C32   O11   S    
C34   H11   S    
C35   H10   S    
Cu2   N3    S    
C53   C54   A    
C23   O7    A    
C51   H25   S    
C5    C29   A    
C10   C21   A    
C13   C19   A    
C14   C20   A    
C32   N2    A    
C4    C6    A    
C50   C51   A    
C5    C7    A    
C54   H28   S    
C15   C26   A    
C6    C8    A    
C1    O3    A    
Cu1   Cu2   S    
C44   H19   S    
C3    C9    A    
C31   N1    A    
C30   O10   S    
C47   C48   A    
C21   C43   S    
C22   C49   S    
Cu2   O3    S    
C4    C17   A    
C16   C18   A    
C39   H5    S    
C20   C22   A    
N3    N4    D    
Cu1   O4    S    
Cu2   O2    S    
C48   H23   S    
C41   N1    S    
C20   H14   S    
C42   N2    S    
C24   O6    A    
C31   O12   S    
C16   C25   A    
C15   C17   A    
Cu1   O5    S    
C6    C30   A    
C4    C10   A    
C44   C45   A    
C3    C5    A    
C29   O9    S    
C12   C24   S    
C7    C25   A    
C13   C17   A    
C33   C41   A    
C11   C35   A    
C7    H7    S    
C37   C39   A    
C38   C40   A    
C24   O8    A    
C49   C50   A    
C26   H16   S    
C53   H27   S    
Cu1   O8    S    
Cu1   N4    S    
C40   H6    S    
C11   C23   S    
C51   C52   A    
C1    O1    A    
Cu2   O6    S    
C34   C36   A    
C12   C38   A    
Cu2   O7    S    
C38   H2    S    
C9    C31   A    
C43   C44   A    
C10   C32   A    
C23   O5    A    
Cu1   O1    S    
C46   C47   A    
C13   C16   A    
C27   C28   D    
C1    C27   S    
C14   C15   A    
C2    C28   S    
C25   H15   S    
H4    N4    S    
C2    O4    A    
C37   H1    S    
C52   H26   S    
H3    N3    S    
C28   H18   S    
