data_mof_unit_59847.cif
_audit_creation_date              2012-12-11T15:14:50-0500
_audit_creation_method            fapswitch 2.2
_symmetry_space_group_name_H-M    P1
_symmetry_Int_Tables_number       1
_space_group_crystal_system       triclinic
_cell_length_a                    22.298973
_cell_length_b                    7.225913
_cell_length_c                    19.285689
_cell_angle_alpha                 89.999987
_cell_angle_beta                  98.985063
_cell_angle_gamma                 90.0
_cell_volume                      3069.37953682

loop_
_atom_site_label
_atom_site_type_symbol
_atom_type_description
_atom_site_fract_x
_atom_site_fract_y
_atom_site_fract_z
_atom_type_partial_charge
O1    O     O_R   0.448470 0.506130 0.415700 -0.533241
O2    O     O_R   0.551530 0.006130 0.584300 -0.533241
O3    O     O_R   0.436320 0.174490 0.555800 -0.532320
O4    O     O_R   0.563680 0.674490 0.444200 -0.532320
C1    C     C_R   0.421601 0.344303 0.575721 0.698560
C2    C     C_R   0.578399 0.844303 0.424279 0.698559
O5    O     O_R   0.441350 0.176340 0.414480 -0.535118
O6    O     O_R   0.558650 0.676340 0.585520 -0.535118
O7    O     O_R   0.556600 0.007100 0.441970 -0.530757
O8    O     O_R   0.443400 0.507100 0.558030 -0.530758
C3    C     C_R   0.427367 0.345058 0.389024 0.673429
C4    C     C_R   0.572633 0.845058 0.610976 0.673430
O9    O     O_3   0.537810 0.339550 0.509190 -0.373372
O10   O     O_3   0.462190 0.839550 0.490810 -0.373372
V1    V     V_3+5 0.492990 0.064280 0.498300 1.432806
V2    V     V_3+5 0.507010 0.564280 0.501700 1.432806
C5    C     C_R   0.863181 0.044949 0.701762 -0.184714
C6    C     C_R   0.136819 0.544959 0.298237 -0.184715
H1    H     H_    0.947182 0.087763 0.769323 0.117501
H2    H     H_    0.052819 0.587773 0.230676 0.117502
H3    H     H_    0.882270 0.103309 0.658471 0.114435
H4    H     H_    0.117731 0.603323 0.341528 0.114435
C7    C     C_R   0.882948 0.945675 0.822853 -0.070424
C8    C     C_R   0.117051 0.445676 0.177147 -0.070427
C9    C     C_R   0.588618 0.844808 0.740167 -0.156893
C10   C     C_R   0.411381 0.344799 0.259833 -0.156893
C11   C     C_R   0.623712 0.879399 0.805081 -0.114733
C12   C     C_R   0.376287 0.379387 0.194918 -0.114733
C13   C     C_R   0.685821 0.912223 0.809984 -0.168567
C14   C     C_R   0.314178 0.412216 0.190016 -0.168570
C15   C     C_R   0.715177 0.899441 0.750481 0.074028
C16   C     C_R   0.284823 0.399440 0.249519 0.074030
C17   C     C_R   0.677800 0.891461 0.683504 0.036710
C18   C     C_R   0.322200 0.391464 0.316496 0.036710
C19   C     C_R   0.779620 0.918552 0.755168 0.028831
C20   C     C_R   0.220380 0.418553 0.244832 0.028830
C21   C     C_R   0.802153 0.987382 0.694815 0.074455
C22   C     C_R   0.197847 0.487388 0.305185 0.074455
C23   C     C_R   0.763393 0.998844 0.628845 0.072952
C24   C     C_R   0.236607 0.498852 0.371155 0.072952
C25   C     C_R   0.703395 0.933628 0.623566 -0.202604
C26   C     C_R   0.296605 0.433636 0.376434 -0.202604
C27   C     C_R   0.822718 0.874704 0.817043 0.010132
C28   C     C_R   0.177281 0.374702 0.182958 0.010130
C29   C     C_R   0.901468 0.033356 0.765475 -0.187648
C30   C     C_R   0.098533 0.533363 0.234525 -0.187648
C31   C     C_R   0.614399 0.855302 0.678635 -0.070082
C32   C     C_R   0.385601 0.355301 0.321366 -0.070083
H5    H     H_    0.540331 0.820930 0.737515 0.112570
H6    H     H_    0.459668 0.320916 0.262485 0.112570
H7    H     H_    0.710215 0.955506 0.860322 0.120034
H8    H     H_    0.289784 0.455496 0.139678 0.120035
H9    H     H_    0.602423 0.884657 0.851792 0.129359
H10   H     H_    0.397576 0.384639 0.148207 0.129359
H11   H     H_    0.674746 0.928506 0.573060 0.104165
H12   H     H_    0.325255 0.428516 0.426939 0.104166
C33   C     C_3   0.774462 0.833189 0.310670 -0.195615
C34   C     C_3   0.225538 0.333190 0.689330 -0.195615
C35   C     C_3   0.791413 0.014932 0.274821 -0.289712
C36   C     C_3   0.208586 0.514933 0.725179 -0.289712
H13   H     H_    0.826806 0.115543 0.297265 0.145320
H14   H     H_    0.173194 0.615544 0.702735 0.145320
H15   H     H_    0.796065 0.783198 0.363088 0.145921
H16   H     H_    0.203934 0.283199 0.636911 0.145921
C37   C     C_1   0.874467 0.939193 0.119909 -0.184836
C38   C     C_1   0.125533 0.439194 0.880091 -0.184836
C39   C     C_1   0.623280 0.853766 0.377311 -0.182777
C40   C     C_1   0.376720 0.353766 0.622688 -0.182776
C41   C     C_3   0.773388 0.726625 0.240259 -0.166768
C42   C     C_3   0.226612 0.226626 0.759740 -0.166768
C43   C     C_3   0.789656 0.908614 0.204938 -0.028004
C44   C     C_3   0.210343 0.408614 0.795061 -0.028004
C45   C     C_3   0.705091 0.774706 0.219912 -0.035306
C46   C     C_3   0.294908 0.274707 0.780088 -0.035307
C47   C     C_3   0.706297 0.879557 0.289692 -0.018521
C48   C     C_3   0.293702 0.379557 0.710307 -0.018521
C49   C     C_3   0.721906 0.954411 0.184550 0.578019
C50   C     C_3   0.278094 0.454411 0.815449 0.578019
C51   C     C_3   0.723086 0.058424 0.254139 0.573966
C52   C     C_3   0.276914 0.558424 0.745860 0.573966
C53   C     C_1   0.836036 0.926306 0.157942 0.032576
C54   C     C_1   0.163964 0.426306 0.842058 0.032576
C55   C     C_1   0.660571 0.864654 0.337738 0.024872
C56   C     C_1   0.339428 0.364654 0.662262 0.024872
H17   H     H_    0.794323 0.589138 0.234630 0.153654
H18   H     H_    0.205676 0.089139 0.765369 0.153654
O11   O     O_R   0.056650 0.288730 0.942060 -0.532613
O12   O     O_R   0.943350 0.788730 0.057940 -0.532614
O13   O     O_R   0.058660 0.616870 0.085540 -0.537813
O14   O     O_R   0.941340 0.116870 0.914460 -0.537813
C57   C     C_R   0.073589 0.448584 0.110436 0.682048
C58   C     C_R   0.926411 0.948584 0.889564 0.682047
O15   O     O_R   0.063700 0.618520 0.944220 -0.532713
O16   O     O_R   0.936300 0.118520 0.055780 -0.532713
O17   O     O_R   0.948460 0.787610 0.915680 -0.535432
O18   O     O_R   0.051540 0.287610 0.084320 -0.535434
C59   C     C_R   0.079095 0.449862 0.924983 0.706506
C60   C     C_R   0.920905 0.949862 0.075017 0.706503
O19   O     O_3   0.962230 0.453430 0.990860 -0.373089
O20   O     O_3   0.037770 0.953430 0.009140 -0.373088
V3    V     V_3+5 0.007010 0.728750 0.001700 1.392689
V4    V     V_3+5 0.992990 0.228750 0.998300 1.392687
F1    F     F_    0.696802 0.229242 0.260567 -0.718129
F2    F     F_    0.303198 0.729242 0.739432 -0.718130
F3    F     F_    0.694805 0.018181 0.119580 -0.702460
F4    F     F_    0.305195 0.518181 0.880420 -0.702460
C61   C     C_3   0.654466 0.642704 0.188852 -0.306384
C62   C     C_3   0.670452 0.541013 0.124466 -0.261938
C63   C     C_3   0.618957 0.413053 0.092807 -0.648840
H19   H     H_    0.609837 0.308171 0.131976 0.272733
H20   H     H_    0.576979 0.494152 0.075427 0.199493
H21   H     H_    0.631880 0.340270 0.046628 0.237341
H22   H     H_    0.679178 0.642938 0.084036 0.213762
H23   H     H_    0.712183 0.456978 0.139727 0.233015
H24   H     H_    0.646756 0.541192 0.229733 0.238191
H25   H     H_    0.612081 0.723906 0.173997 0.174969
C64   C     C_3   0.345533 0.142704 0.811147 -0.306384
C65   C     C_3   0.329548 0.041013 0.875533 -0.261938
C66   C     C_3   0.381043 0.913054 0.907192 -0.648841
H26   H     H_    0.390162 0.808172 0.868023 0.272733
H27   H     H_    0.423021 0.994152 0.924572 0.199493
H28   H     H_    0.368119 0.840270 0.953372 0.237342
H29   H     H_    0.320822 0.142938 0.915964 0.213762
H30   H     H_    0.287817 0.956978 0.860273 0.233016
H31   H     H_    0.353244 0.041193 0.770266 0.238191
H32   H     H_    0.387919 0.223906 0.826003 0.174970
C67   C     C_3   0.786734 0.082736 0.565304 -0.369607
C68   C     C_3   0.739797 0.108042 0.498666 -0.318418
C69   C     C_3   0.766945 0.213590 0.442484 -0.730343
H33   H     H_    0.782289 0.353153 0.461878 0.219669
H34   H     H_    0.806047 0.136308 0.427593 0.220457
H35   H     H_    0.731919 0.230870 0.395406 0.271991
H36   H     H_    0.724527 0.970218 0.477377 0.193567
H37   H     H_    0.700106 0.187603 0.511037 0.206889
H38   H     H_    0.805105 0.222426 0.580720 0.177955
H39   H     H_    0.824341 0.994978 0.552124 0.169735
C70   C     C_3   0.213267 0.582748 0.434695 -0.369608
C71   C     C_3   0.260203 0.608052 0.501334 -0.318418
C72   C     C_3   0.233055 0.713599 0.557516 -0.730343
H40   H     H_    0.217712 0.853162 0.538122 0.219669
H41   H     H_    0.193953 0.636317 0.572406 0.220457
H42   H     H_    0.268081 0.730877 0.604594 0.271992
H43   H     H_    0.275472 0.470226 0.522623 0.193567
H44   H     H_    0.299895 0.687611 0.488963 0.206889
H45   H     H_    0.194897 0.722439 0.419279 0.177954
H46   H     H_    0.175659 0.494993 0.447875 0.169736
C73   C     C_3   0.810290 0.725145 0.869017 -0.380609
C74   C     C_3   0.831226 0.535052 0.846623 -0.272114
C75   C     C_3   0.814145 0.382917 0.894956 -0.708507
H47   H     H_    0.837145 0.405933 0.949616 0.235965
H48   H     H_    0.764228 0.379683 0.894106 0.214936
H49   H     H_    0.828126 0.246832 0.876676 0.216527
H50   H     H_    0.809050 0.504500 0.792077 0.193406
H51   H     H_    0.881141 0.533774 0.847611 0.211201
H52   H     H_    0.833120 0.759355 0.922860 0.168492
H53   H     H_    0.762165 0.708885 0.873567 0.185191
C76   C     C_3   0.189708 0.225139 0.130985 -0.380608
C77   C     C_3   0.168770 0.035049 0.153378 -0.272101
C78   C     C_3   0.185857 0.882907 0.105052 -0.708506
H54   H     H_    0.162862 0.905917 0.050389 0.235959
H55   H     H_    0.235775 0.879672 0.105909 0.214935
H56   H     H_    0.171874 0.746824 0.123332 0.216528
H57   H     H_    0.190940 0.004503 0.207928 0.193402
H58   H     H_    0.118853 0.033772 0.152383 0.211201
H59   H     H_    0.166881 0.259349 0.077142 0.168490
H60   H     H_    0.237834 0.208874 0.126437 0.185194

loop_
_geom_bond_atom_site_label_1
_geom_bond_atom_site_label_2
_ccdc_geom_bond_type
C14   C16   A    
C39   C55   T    
C76   C77   S    
C7    C29   A    
O18   V4    S    
C11   C13   A    
C73   C74   S    
O1    C3    A    
O2    C4    A    
C68   C69   S    
C48   C56   S    
C2    O7    A    
O12   V3    S    
C34   C48   S    
C23   C25   A    
C10   H6    S    
O5    C3    A    
C46   C48   S    
C52   F2    S    
C76   H59   S    
C16   C20   A    
C38   C59   S    
C70   H45   S    
C19   C21   A    
C5    C29   A    
C37   C60   S    
C71   H43   S    
C63   H20   S    
C72   H42   S    
C50   C52   S    
C45   C61   S    
C75   H47   S    
O16   C60   A    
C34   C36   S    
C7    C27   A    
C62   C63   S    
C36   H14   S    
C62   H23   S    
C41   C43   S    
C65   C66   S    
C25   H11   S    
C44   C50   S    
C26   H12   S    
C57   O18   A    
C37   C53   T    
O14   V4    S    
C12   C14   A    
C18   C26   A    
C42   C46   S    
C61   C62   S    
C78   H55   S    
C41   C45   S    
O13   C57   A    
C73   H52   S    
C64   H32   S    
C9    C31   A    
C7    C58   S    
C77   H58   S    
C69   H35   S    
C24   C26   A    
O6    V2    S    
C28   C76   S    
C45   C47   S    
C51   F1    S    
C3    C32   S    
C74   H51   S    
C4    C31   S    
C6    C30   A    
C1    C40   S    
C33   H15   S    
C9    H5    S    
C49   C51   S    
C34   H16   S    
C35   H13   S    
C23   C67   S    
C40   C56   T    
C70   H46   S    
C27   C73   S    
C67   H39   S    
O4    C2    A    
C75   H49   S    
C35   C51   S    
C12   H10   S    
C34   C42   S    
C65   H30   S    
C58   O17   A    
C5    H3    S    
H1    C29   S    
C16   C18   A    
C62   H22   S    
O4    V2    S    
C73   H53   S    
C41   H17   S    
C68   H37   S    
C38   C54   T    
O11   V4    S    
O14   C58   A    
C78   H54   S    
O12   C60   A    
O6    C4    A    
C24   C70   S    
C15   C17   A    
C78   H56   S    
O1    V2    S    
C5    C21   A    
C74   C75   S    
C66   H26   S    
O2    V1    S    
C61   H24   S    
C66   H27   S    
C77   H57   S    
O11   C59   A    
C2    C39   S    
C77   C78   S    
C17   C31   A    
C15   C19   A    
C63   H21   S    
C33   C35   S    
C18   C32   A    
C74   H50   S    
O15   V3    S    
C67   C68   S    
C42   H18   S    
C8    C57   S    
O15   C59   A    
C43   C49   S    
C19   C27   A    
C69   H33   S    
C13   H7    S    
C66   H28   S    
C46   C64   S    
C14   H8    S    
C36   C52   S    
C45   C49   S    
O13   V3    S    
C6    H4    S    
C48   C52   S    
C67   H38   S    
O3    C1    A    
C76   H60   S    
C42   C44   S    
C72   H40   S    
C11   H9    S    
C10   C32   A    
C9    C11   A    
C70   C71   S    
C10   C12   A    
C49   F3    S    
C43   C53   S    
C50   F4    S    
C8    C30   A    
C33   C47   S    
C75   H48   S    
C6    C22   A    
C17   C25   A    
C1    O8    A    
C13   C15   A    
O8    V2    S    
C64   C65   S    
C20   C22   A    
C22   C24   A    
C72   H41   S    
C47   C55   S    
C64   H31   S    
C8    C28   A    
O5    V1    S    
O20   V3    S    
C65   H29   S    
O7    V1    S    
H2    C30   S    
C61   H25   S    
C20   C28   A    
C71   C72   S    
O19   V4    S    
O16   V4    S    
C21   C23   A    
C46   C50   S    
O9    V2    S    
C63   H19   S    
C36   C44   S    
O10   V1    S    
O3    V1    S    
C71   H44   S    
C33   C41   S    
C68   H36   S    
C47   C51   S    
C44   C54   S    
O17   V3    S    
C35   C43   S    
C69   H34   S    
