data_mof_unit_17115.cif
_audit_creation_date              2012-12-10T19:12:25-0500
_audit_creation_method            fapswitch 2.2
_symmetry_space_group_name_H-M    P1
_symmetry_Int_Tables_number       1
_space_group_crystal_system       triclinic
_cell_length_a                    15.71131
_cell_length_b                    10.634258
_cell_length_c                    9.701829
_cell_angle_alpha                 89.889375
_cell_angle_beta                  90.10915
_cell_angle_gamma                 90.030975
_cell_volume                      1620.95719288

loop_
_atom_site_label
_atom_site_type_symbol
_atom_type_description
_atom_site_fract_x
_atom_site_fract_y
_atom_site_fract_z
_atom_type_partial_charge
C1    C     C_R   0.500449 0.257583 0.500439 0.830156
C2    C     C_3   0.502545 0.928321 0.651564 -0.401053
C3    C     C_3   0.422601 0.072663 0.424338 -0.441587
C4    C     C_R   0.337747 0.499789 0.499828 0.918218
C5    C     C_3   0.584630 0.071751 0.427077 -0.050063
C6    C     C_3   0.502784 0.121215 0.501593 0.154943
C7    C     C_3   0.501123 0.878746 0.500794 0.171458
C8    C     C_3   0.420613 0.928602 0.426925 -0.418324
C9    C     C_3   0.581592 0.926220 0.424721 -0.419013
C10   C     C_3   0.496681 0.369477 0.082729 -0.228226
C11   C     C_3   0.497150 0.367681 0.920260 -0.237924
C12   C     C_3   0.082442 0.499252 0.499269 0.219904
C13   C     C_3   0.423183 0.566223 0.079847 -0.237126
C14   C     C_3   0.575071 0.562053 0.080972 -0.233958
C15   C     C_3   0.423529 0.564290 0.917336 -0.229070
C16   C     C_R   0.500101 0.742475 0.500120 0.843081
C17   C     C_3   0.575422 0.560382 0.918618 -0.231968
C18   C     C_R   0.662207 0.500850 0.500142 0.910145
C19   C     C_3   0.971503 0.432480 0.607003 -0.171180
C20   C     C_3   0.027128 0.381093 0.488432 -0.167451
C21   C     C_1   0.248744 0.499150 0.499464 -0.219731
C22   C     C_1   0.751116 0.502107 0.500329 -0.212814
C23   C     C_3   0.972575 0.619815 0.510669 -0.166878
C24   C     C_3   0.028606 0.550599 0.617855 -0.167182
C25   C     C_3   0.669043 0.119899 0.492309 -0.414268
C26   C     C_3   0.745119 0.102016 0.394975 -0.359440
C27   C     C_3   0.828597 0.138076 0.465305 -0.893109
C28   C     C_3   0.917287 0.501723 0.499845 0.219459
C29   C     C_3   0.028175 0.568416 0.392070 -0.169218
C30   C     C_3   0.971059 0.450286 0.381267 -0.166820
C31   C     C_1   0.173376 0.498838 0.499250 -0.097532
C32   C     C_1   0.826434 0.502642 0.500191 -0.104484
C33   C     C_3   0.499758 0.070960 0.652117 -0.405556
H1    H     H_    0.051470 0.283480 0.479330 0.126854
H2    H     H_    0.439258 0.319246 0.121112 0.141252
H3    H     H_    0.946030 0.376914 0.694719 0.126561
H4    H     H_    0.552650 0.316256 0.122130 0.139918
H5    H     H_    0.553379 0.313906 0.883404 0.139217
H6    H     H_    0.439971 0.316673 0.882027 0.141731
H7    H     H_    0.363587 0.521687 0.117732 0.151836
H8    H     H_    0.364078 0.518728 0.880173 0.151428
H9    H     H_    0.578660 0.660764 0.118342 0.139335
H10   H     H_    0.633323 0.514126 0.119577 0.152416
H11   H     H_    0.633899 0.511915 0.882291 0.150741
H12   H     H_    0.446872 0.891705 0.710253 0.169781
H13   H     H_    0.579032 0.658347 0.878588 0.141017
H14   H     H_    0.422129 0.665133 0.116975 0.139162
H15   H     H_    0.945209 0.409249 0.284721 0.128239
H16   H     H_    0.422372 0.662322 0.877136 0.140261
H17   H     H_    0.053530 0.623862 0.304178 0.124682
H18   H     H_    0.948060 0.717344 0.519737 0.126085
H19   H     H_    0.054313 0.591457 0.714588 0.124374
H20   H     H_    0.440075 0.102433 0.703413 0.170800
H21   H     H_    0.553849 0.107816 0.714274 0.162842
H22   H     H_    0.561357 0.896037 0.705314 0.165282
H23   H     H_    0.363768 0.109953 0.473355 0.163865
H24   H     H_    0.825940 0.236616 0.502166 0.272282
H25   H     H_    0.841096 0.074849 0.554323 0.253506
H26   H     H_    0.881919 0.129291 0.390996 0.244721
H27   H     H_    0.749543 0.002476 0.361241 0.220251
H28   H     H_    0.736348 0.161900 0.301959 0.214167
H29   H     H_    0.664221 0.221702 0.516049 0.194608
H30   H     H_    0.681463 0.069936 0.591107 0.209398
H31   H     H_    0.362451 0.895686 0.481618 0.160672
H32   H     H_    0.582488 0.105881 0.318374 0.141017
H33   H     H_    0.639031 0.884131 0.473886 0.155720
H34   H     H_    0.580936 0.893743 0.315661 0.151300
H35   H     H_    0.422864 0.105587 0.315299 0.168025
H36   H     H_    0.417321 0.892624 0.319328 0.170375
N1    N     N_3   0.498170 0.499750 0.138610 -0.030039
N2    N     N_3   0.498850 0.496730 0.861320 -0.029914
O1    O     O_R   0.499980 0.314910 0.616040 -0.634284
O2    O     O_R   0.500040 0.314680 0.383960 -0.638963
O3    O     O_R   0.376750 0.500100 0.616020 -0.622554
O4    O     O_R   0.376810 0.499870 0.383940 -0.620995
O5    O     O_R   0.499960 0.685320 0.616040 -0.637107
O6    O     O_R   0.500020 0.685090 0.383960 -0.633200
O7    O     O_R   0.623190 0.500130 0.616060 -0.625099
O8    O     O_R   0.623250 0.499900 0.383980 -0.621846
Zn1   Zn    Zn3+2 0.499960 0.500150 0.654960 0.897556
Zn2   Zn    Zn3+2 0.500040 0.499850 0.345040 0.899337

loop_
_geom_bond_atom_site_label_1
_geom_bond_atom_site_label_2
_ccdc_geom_bond_type
C24   H19   S    
C12   C29   S    
C19   C20   S    
C3    C6    S    
C7    C8    S    
C20   C30   S    
C21   C31   T    
C8    H36   S    
C22   C32   T    
C10   H4    S    
C23   C29   S    
C30   H15   S    
C26   H28   S    
C19   H3    S    
C5    C6    S    
C11   N2    S    
C13   N1    S    
C16   O6    A    
C25   H30   S    
N1    Zn2   S    
C9    H33   S    
C4    O4    A    
C2    C7    S    
C3    H35   S    
C18   O8    A    
C13   H7    S    
C23   C24   S    
C10   H2    S    
C18   C22   S    
C4    O3    A    
C14   H9    S    
C20   H1    S    
O3    Zn1   S    
C14   N1    S    
C14   C17   S    
O2    Zn2   S    
N2    Zn1   S    
C29   H17   S    
C2    H12   S    
C33   H20   S    
C1    O1    A    
C1    C6    S    
C28   C32   S    
C17   H13   S    
C15   H8    S    
C5    H32   S    
C3    C8    S    
C27   H24   S    
C13   H14   S    
O4    Zn2   S    
C25   C26   S    
C11   H5    S    
C9    H34   S    
C5    C9    S    
C29   C30   S    
C3    H23   S    
C23   H18   S    
O6    Zn2   S    
C18   O7    A    
C12   C20   S    
C26   C27   S    
C23   C28   S    
C11   H6    S    
C19   C28   S    
C8    H31   S    
C5    C25   S    
C10   N1    S    
C2    C33   S    
C7    C16   S    
C17   N2    S    
C13   C15   S    
C12   C31   S    
O8    Zn2   S    
C33   H21   S    
C7    C9    S    
C16   O5    A    
O5    Zn1   S    
C27   H25   S    
C15   N2    S    
C12   C24   S    
C6    C33   S    
C2    H22   S    
C1    O2    A    
C28   C30   S    
C19   C24   S    
C17   H11   S    
O1    Zn1   S    
C27   H26   S    
C4    C21   S    
O7    Zn1   S    
C25   H29   S    
C15   H16   S    
C10   C11   S    
C26   H27   S    
C14   H10   S    
