data_mof_unit_10644.cif
_audit_creation_date              2012-12-11T15:08:31-0500
_audit_creation_method            fapswitch 2.2
_symmetry_space_group_name_H-M    P1
_symmetry_Int_Tables_number       1
_space_group_crystal_system       triclinic
_cell_length_a                    25.941325
_cell_length_b                    27.61854
_cell_length_c                    8.534158
_cell_angle_alpha                 90.05081
_cell_angle_beta                  96.536445
_cell_angle_gamma                 89.550357
_cell_volume                      6074.46304511

loop_
_atom_site_label
_atom_site_type_symbol
_atom_type_description
_atom_site_fract_x
_atom_site_fract_y
_atom_site_fract_z
_atom_type_partial_charge
Ba1   Ba    Ba6+2 0.999910 0.465960 0.844870 1.683844
Ba2   Ba    Ba6+2 0.999910 0.534040 0.344870 1.688860
Ba3   Ba    Ba6+2 0.499910 0.965960 0.844870 1.683841
Ba4   Ba    Ba6+2 0.499910 0.034040 0.344870 1.688860
C1    C     C_3   0.041661 0.245003 0.565300 -0.387255
C2    C     C_R   0.841199 0.638861 0.601890 -0.024907
C3    C     C_3   0.506766 0.212867 0.048803 0.240646
C4    C     C_R   0.912898 0.385664 0.300187 -0.210898
C5    C     C_R   0.911525 0.614309 0.797785 -0.172949
C6    C     C_R   0.412899 0.885663 0.300187 -0.210901
C7    C     C_R   0.411525 0.114309 0.797785 -0.172950
C8    C     C_3   0.322598 0.577952 0.337862 0.192516
C9    C     C_3   0.289993 0.391743 0.894884 0.112125
C10   C     C_3   0.822599 0.077949 0.337861 0.192506
C11   C     C_3   0.789991 0.891743 0.894899 0.112145
C12   C     C_3   0.309092 0.470826 0.254504 0.234347
C13   C     C_R   0.344800 0.859670 0.100389 -0.092081
C14   C     C_3   0.316816 0.500306 0.752946 0.208561
C15   C     C_3   0.809090 0.970819 0.254531 0.234351
C16   C     C_3   0.816816 0.000306 0.752959 0.208551
C17   C     C_3   0.771342 0.539040 0.789896 0.130452
C18   C     C_3   0.771909 0.461960 0.290499 0.141075
C19   C     C_3   0.271342 0.039039 0.789896 0.130450
C20   C     C_3   0.271909 0.961960 0.290498 0.141077
C21   C     C_3   0.244735 0.672201 0.410891 0.107056
C22   C     C_3   0.302484 0.348709 0.477841 0.125696
C23   C     C_3   0.744738 0.172199 0.410888 0.107055
C24   C     C_R   0.341199 0.138862 0.601888 -0.024908
C25   C     C_3   0.802454 0.848709 0.477768 0.125599
C26   C     C_3   0.693450 0.367891 0.054296 0.153317
C27   C     C_3   0.703804 0.628646 0.440062 0.131538
C28   C     C_3   0.193450 0.867892 0.054291 0.153316
C29   C     C_3   0.203802 0.128644 0.440090 0.131540
C30   C     C_3   0.949197 0.252696 0.237968 0.072723
C31   C     C_3   0.947263 0.749985 0.720469 0.118542
C32   C     C_3   0.449197 0.752695 0.237978 0.072726
C33   C     C_3   0.447265 0.249986 0.720474 0.118542
C34   C     C_3   0.905309 0.220095 0.827647 0.126263
C35   C     C_R   0.828890 0.323947 0.203181 0.031080
C36   C     C_3   0.910512 0.809365 0.266903 0.198326
C37   C     C_3   0.405300 0.720104 0.827668 0.126266
C38   C     C_3   0.410513 0.309368 0.266920 0.198356
C39   C     C_3   0.194145 0.429315 0.277229 0.178598
C40   C     C_3   0.208190 0.568281 0.742901 0.163060
C41   C     C_3   0.694138 0.929316 0.277238 0.178600
C42   C     C_3   0.708190 0.068281 0.742899 0.163055
C43   C     C_R   0.826077 0.675283 0.703806 0.066350
C44   C     C_R   0.328890 0.823947 0.203181 0.031080
C45   C     C_R   0.326078 0.175284 0.703802 0.066356
C46   C     C_R   0.854981 0.321524 0.358532 -0.161004
C47   C     C_R   0.853382 0.679345 0.855945 -0.141502
C48   C     C_R   0.354981 0.821525 0.358532 -0.161003
C49   C     C_3   0.055902 0.702039 0.157481 -0.341379
C50   C     C_R   0.353383 0.179347 0.855942 -0.141497
C51   C     C_R   0.897497 0.351421 0.405488 -0.000584
C52   C     C_R   0.895900 0.648698 0.902637 0.003409
C53   C     C_R   0.397497 0.851421 0.405487 -0.000585
C54   C     C_R   0.395901 0.148699 0.902635 0.003409
C55   C     C_R   0.790776 0.240710 0.209739 -0.197445
C56   C     C_R   0.792609 0.759701 0.653760 -0.190188
C57   C     C_R   0.290775 0.740711 0.209741 -0.197445
C58   C     C_R   0.292611 0.259702 0.653742 -0.190197
C59   C     C_R   0.251615 0.706253 0.172245 0.426668
C60   C     C_3   0.541661 0.745004 0.565310 -0.387239
C61   C     C_R   0.254131 0.293476 0.594832 0.407316
C62   C     C_R   0.751617 0.206252 0.172243 0.426669
C63   C     C_R   0.754131 0.793474 0.594843 0.407317
C64   C     C_R   0.210339 0.715690 0.051507 -0.039638
C65   C     C_R   0.202980 0.278005 0.550431 -0.028180
C66   C     C_R   0.710340 0.215689 0.051506 -0.039639
C67   C     C_R   0.702981 0.778005 0.550426 -0.028190
C68   C     C_R   0.206522 0.763347 0.990697 -0.213353
C69   C     C_R   0.193007 0.227957 0.547315 -0.208782
C70   C     C_R   0.706522 0.263347 0.990698 -0.213353
C71   C     C_3   0.555903 0.202038 0.157485 -0.341380
C72   C     C_R   0.693008 0.727957 0.547298 -0.208779
C73   C     C_R   0.742651 0.299710 0.043079 0.423260
C74   C     C_R   0.732935 0.693617 0.591522 0.425128
C75   C     C_R   0.242651 0.799711 0.043078 0.423259
C76   C     C_R   0.232935 0.193618 0.591534 0.425129
C77   C     C_3   0.998711 0.272442 0.034826 0.692695
C78   C     C_3   0.986319 0.716883 0.507559 0.716444
C79   C     C_3   0.498708 0.772442 0.034832 0.692701
C80   C     C_3   0.486320 0.216883 0.507562 0.716445
C81   C     C_R   0.786988 0.287958 0.149165 -0.044521
C82   C     C_R   0.885407 0.391484 0.150617 0.106929
C83   C     C_R   0.782878 0.709802 0.650635 -0.033811
C84   C     C_R   0.286987 0.787958 0.149165 -0.044522
C85   C     C_R   0.282879 0.209804 0.650631 -0.033808
C86   C     C_R   0.143437 0.681370 0.835940 -0.167190
C87   C     C_R   0.132456 0.309589 0.348976 -0.160871
C88   C     C_R   0.643437 0.181370 0.835940 -0.167189
C89   C     C_R   0.632458 0.809590 0.348972 -0.160874
C90   C     C_R   0.103253 0.649008 0.784069 0.041091
C91   C     C_R   0.094489 0.344083 0.296242 0.042624
C92   C     C_R   0.603254 0.149008 0.784070 0.041092
C93   C     C_R   0.883601 0.608153 0.649570 0.135122
C94   C     C_R   0.594489 0.844083 0.296241 0.042622
C95   C     C_R   0.118061 0.605919 0.030738 0.001297
C96   C     C_R   0.113927 0.389980 0.538904 0.008230
C97   C     C_R   0.618061 0.105919 0.030739 0.001303
C98   C     C_R   0.613927 0.889980 0.538904 0.008232
C99   C     C_R   0.156575 0.639044 0.085615 -0.121214
C100  C     C_R   0.150796 0.354228 0.594187 -0.100506
C101  C     C_R   0.656576 0.139043 0.085615 -0.121209
C102  C     C_R   0.650797 0.854228 0.594185 -0.100513
C103  C     C_R   0.170528 0.677792 0.990176 0.040942
C104  C     C_R   0.385407 0.891484 0.150617 0.106929
C105  C     C_R   0.160692 0.313840 0.499142 0.038815
C106  C     C_R   0.670529 0.177791 0.990175 0.040940
C107  C     C_R   0.660694 0.813841 0.499138 0.038801
C108  C     C_R   0.091015 0.611527 0.881676 -0.226073
C109  C     C_R   0.084537 0.383290 0.392848 -0.261827
C110  C     C_R   0.591015 0.111528 0.881677 -0.226074
C111  C     C_R   0.584537 0.883289 0.392849 -0.261832
C112  C     C_3   0.990322 0.222658 0.950535 0.260467
C113  C     C_3   0.973983 0.765706 0.418978 0.334978
C114  C     C_3   0.490315 0.722660 0.950533 0.260458
C115  C     C_R   0.383601 0.108154 0.649570 0.135120
C116  C     C_3   0.473984 0.265707 0.418981 0.334981
C117  C     C_3   0.195391 0.514804 0.293438 0.680947
C118  C     C_3   0.193574 0.485617 0.797129 0.669994
C119  C     C_3   0.695391 0.014805 0.293439 0.680955
C120  C     C_3   0.693573 0.985618 0.797131 0.669994
C121  C     C_3   0.246960 0.535334 0.244735 0.685291
C122  C     C_3   0.240695 0.453867 0.764150 0.724104
C123  C     C_3   0.746962 0.035330 0.244737 0.685283
C124  C     C_3   0.740694 0.953867 0.764158 0.724104
C125  C     C_3   0.842020 0.532318 0.990920 0.718702
C126  C     C_R   0.844800 0.359670 0.100389 -0.092077
C127  C     C_3   0.842785 0.467980 0.490616 0.712155
C128  C     C_3   0.342020 0.032318 0.990919 0.718701
C129  C     C_3   0.342785 0.967980 0.490615 0.712155
C130  C     C_3   0.810928 0.561463 0.103348 -0.324045
C131  C     C_3   0.812109 0.439266 0.603900 -0.304561
C132  C     C_3   0.310929 0.061463 0.103347 -0.324042
C133  C     C_3   0.312109 0.939266 0.603899 -0.304561
C134  C     C_3   0.017368 0.294933 0.583844 0.306861
C135  C     C_3   0.006765 0.712867 0.048800 0.240645
C136  C     C_3   0.517369 0.794933 0.583850 0.306857
H1    H     H_    0.043039 0.315943 0.671924 0.077442
H2    H     H_    0.819941 0.399899 0.594713 0.081599
H3    H     H_    0.269705 0.945757 0.582478 0.042664
H4    H     H_    0.018602 0.196547 0.011462 0.055511
H5    H     H_    0.983361 0.796968 0.499188 -0.052525
H6    H     H_    0.518597 0.696547 0.011449 0.055512
H7    H     H_    0.483363 0.296968 0.499191 -0.052535
H8    H     H_    0.172487 0.634894 0.206257 0.109612
H9    H     H_    0.172070 0.357944 0.710004 0.073173
H10   H     H_    0.672489 0.134893 0.206256 0.109609
H11   H     H_    0.672071 0.857943 0.710002 0.073180
H12   H     H_    0.209585 0.695394 0.416299 0.045890
H13   H     H_    0.317686 0.100815 0.091395 0.075452
H14   H     H_    0.278862 0.688732 0.480969 0.026446
H15   H     H_    0.236959 0.637309 0.467470 0.079893
H16   H     H_    0.288981 0.333231 0.359881 0.026608
H17   H     H_    0.340996 0.333564 0.524109 0.043514
H18   H     H_    0.307808 0.388054 0.463029 0.060265
H19   H     H_    0.709587 0.195392 0.416298 0.045889
H20   H     H_    0.778865 0.188730 0.480966 0.026446
H21   H     H_    0.736962 0.137307 0.467467 0.079894
H22   H     H_    0.788881 0.833295 0.359771 0.026595
H23   H     H_    0.840955 0.833495 0.523816 0.043611
H24   H     H_    0.319942 0.899899 0.594711 0.081599
H25   H     H_    0.807836 0.888052 0.463132 0.060274
H26   H     H_    0.174196 0.773525 0.905536 0.095988
H27   H     H_    0.153992 0.215589 0.511898 0.088296
H28   H     H_    0.674196 0.273524 0.905538 0.095988
H29   H     H_    0.653993 0.715589 0.511870 0.088296
H30   H     H_    0.698531 0.364744 0.185297 0.012965
H31   H     H_    0.655798 0.352024 0.005084 0.027171
H32   H     H_    0.692013 0.407011 0.024711 0.046899
H33   H     H_    0.726908 0.643153 0.348385 0.022384
H34   H     H_    0.662122 0.638168 0.411562 0.041963
H35   H     H_    0.821537 0.549989 0.225653 0.145366
H36   H     H_    0.707101 0.588596 0.436521 0.050966
H37   H     H_    0.198531 0.864745 0.185293 0.012966
H38   H     H_    0.155798 0.852024 0.005079 0.027171
H39   H     H_    0.192013 0.907012 0.024706 0.046900
H40   H     H_    0.226907 0.143147 0.348409 0.022385
H41   H     H_    0.162121 0.138169 0.411588 0.041960
H42   H     H_    0.207097 0.088595 0.436559 0.050964
H43   H     H_    0.843141 0.295886 0.443040 0.060988
H44   H     H_    0.842082 0.706613 0.936992 0.069852
H45   H     H_    0.343141 0.795887 0.443040 0.060987
H46   H     H_    0.822054 0.451580 0.725468 0.147902
H47   H     H_    0.342084 0.206615 0.936988 0.069850
H48   H     H_    0.060853 0.586201 0.840333 0.071449
H49   H     H_    0.056568 0.410680 0.348556 0.073771
H50   H     H_    0.560852 0.086201 0.840335 0.071448
H51   H     H_    0.556567 0.910679 0.348558 0.073770
H52   H     H_    0.947431 0.212595 0.242169 0.114282
H53   H     H_    0.916348 0.267784 0.157157 0.046340
H54   H     H_    0.943758 0.264971 0.357192 0.074158
H55   H     H_    0.984707 0.768520 0.755153 0.019535
H56   H     H_    0.930600 0.739633 0.828536 0.057396
H57   H     H_    0.321537 0.049989 0.225653 0.145365
H58   H     H_    0.918858 0.775573 0.658071 0.065194
H59   H     H_    0.447430 0.712593 0.242174 0.114282
H60   H     H_    0.416347 0.767783 0.157172 0.046337
H61   H     H_    0.443760 0.764968 0.357203 0.074159
H62   H     H_    0.484710 0.268520 0.755158 0.019536
H63   H     H_    0.430602 0.239635 0.828540 0.057398
H64   H     H_    0.418861 0.275575 0.658076 0.065187
H65   H     H_    0.918063 0.208901 0.712802 0.062199
H66   H     H_    0.899882 0.259877 0.833136 0.083021
H67   H     H_    0.866891 0.203501 0.835632 0.058716
H68   H     H_    0.322054 0.951579 0.725467 0.147902
H69   H     H_    0.933579 0.810504 0.164749 0.031816
H70   H     H_    0.917657 0.842268 0.341280 -0.024435
H71   H     H_    0.868942 0.809531 0.218916 0.040134
H72   H     H_    0.418048 0.708914 0.712813 0.062207
H73   H     H_    0.399875 0.759887 0.833175 0.083008
H74   H     H_    0.366881 0.703513 0.835660 0.058716
H75   H     H_    0.433586 0.310516 0.164781 0.031783
H76   H     H_    0.417648 0.342268 0.341315 -0.024438
H77   H     H_    0.368945 0.309530 0.218909 0.040141
H78   H     H_    0.183294 0.540691 0.381300 -0.006687
H79   H     H_    0.015154 0.313534 0.467883 0.023753
H80   H     H_    0.176900 0.467895 0.895448 0.029230
H81   H     H_    0.683296 0.040695 0.381295 -0.006697
H82   H     H_    0.676898 0.967897 0.895451 0.029234
H83   H     H_    0.151987 0.426177 0.241747 0.052310
H84   H     H_    0.207670 0.396324 0.343477 0.060061
H85   H     H_    0.213757 0.430666 0.168692 0.092893
H86   H     H_    0.167592 0.577272 0.696518 0.058132
H87   H     H_    0.230243 0.558197 0.643954 0.109071
H88   H     H_    0.226011 0.601435 0.798006 0.032380
H89   H     H_    0.651980 0.926183 0.241738 0.052316
H90   H     H_    0.009882 0.750968 0.010725 0.025265
H91   H     H_    0.707655 0.896325 0.343496 0.060029
H92   H     H_    0.713756 0.930662 0.168713 0.092888
H93   H     H_    0.667592 0.077272 0.696513 0.058137
H94   H     H_    0.730244 0.058196 0.643954 0.109075
H95   H     H_    0.726011 0.101435 0.798002 0.032379
H96   H     H_    0.515154 0.813534 0.467888 0.023754
H97   H     H_    0.005207 0.689571 0.941754 0.007774
H98   H     H_    0.509883 0.250968 0.010731 0.025266
H99   H     H_    0.066626 0.245573 0.468383 0.115547
H100  H     H_    0.089339 0.713476 0.097963 0.060148
H101  H     H_    0.566633 0.745576 0.468410 0.115534
H102  H     H_    0.589340 0.213475 0.097967 0.060147
H103  H     H_    0.066218 0.234390 0.675156 0.095016
H104  H     H_    0.058508 0.663064 0.185169 0.154811
H105  H     H_    0.566213 0.734388 0.675176 0.095018
H106  H     H_    0.558508 0.163063 0.185172 0.154812
H107  H     H_    0.824174 0.230033 0.290344 0.083960
H108  H     H_    0.543039 0.815944 0.671929 0.077447
H109  H     H_    0.830716 0.772428 0.698920 0.078145
H110  H     H_    0.324172 0.730033 0.290347 0.083960
H111  H     H_    0.330718 0.272429 0.698894 0.078138
H112  H     H_    0.825758 0.363469 0.981659 0.128082
H113  H     H_    0.819639 0.633802 0.486894 0.063576
H114  H     H_    0.325758 0.863469 0.981658 0.128082
H115  H     H_    0.319640 0.133803 0.486892 0.063571
H116  H     H_    0.152841 0.709320 0.755509 0.076352
H117  H     H_    0.141133 0.280368 0.271153 0.080385
H118  H     H_    0.652842 0.209319 0.755509 0.076353
H119  H     H_    0.505208 0.189571 0.941756 0.007773
H120  H     H_    0.641134 0.780369 0.271149 0.080386
H121  H     H_    0.011288 0.217280 0.536198 0.129062
H122  H     H_    0.058384 0.722468 0.268742 0.114321
H123  H     H_    0.511289 0.717281 0.536186 0.129063
H124  H     H_    0.558385 0.222467 0.268746 0.114322
H125  H     H_    0.944445 0.409865 0.338582 0.051259
H126  H     H_    0.943692 0.590283 0.835699 0.036757
H127  H     H_    0.444445 0.909865 0.338582 0.051259
H128  H     H_    0.443692 0.090283 0.835700 0.036758
H129  H     H_    0.968766 0.299061 0.985050 -0.005683
H130  H     H_    0.235232 0.565932 0.163421 0.012748
H131  H     H_    0.978727 0.687958 0.418087 0.081311
H132  H     H_    0.468765 0.799064 0.985065 -0.005697
H133  H     H_    0.478727 0.187958 0.418090 0.081309
H134  H     H_    0.000551 0.224565 0.828691 0.035967
H135  H     H_    0.999297 0.770326 0.324656 -0.011354
H136  H     H_    0.500541 0.724569 0.828686 0.035982
H137  H     H_    0.499298 0.270326 0.324659 -0.011351
H138  H     H_    0.319462 0.590354 0.212910 0.079605
H139  H     H_    0.357152 0.554174 0.362445 0.008815
H140  H     H_    0.330100 0.610001 0.415018 0.067919
H141  H     H_    0.223949 0.422779 0.694085 -0.023463
H142  H     H_    0.314759 0.382681 0.005543 0.023483
H143  H     H_    0.315565 0.391097 0.798990 0.094250
H144  H     H_    0.259444 0.363675 0.877238 0.067990
H145  H     H_    0.819463 0.090352 0.212911 0.079600
H146  H     H_    0.857153 0.054170 0.362439 0.008826
H147  H     H_    0.830104 0.109997 0.415020 0.067915
H148  H     H_    0.814755 0.882681 0.005561 0.023477
H149  H     H_    0.815564 0.891097 0.799009 0.094272
H150  H     H_    0.759441 0.863676 0.877251 0.067995
H151  H     H_    0.304512 0.471544 0.382212 0.114077
H152  H     H_    0.735238 0.065926 0.163415 0.012758
H153  H     H_    0.349373 0.480667 0.236826 0.002456
H154  H     H_    0.303856 0.432847 0.215711 0.034821
H155  H     H_    0.347407 0.472892 0.788653 0.025787
H156  H     H_    0.306616 0.520446 0.858016 0.115319
H157  H     H_    0.333364 0.526719 0.675016 0.044944
H158  H     H_    0.804504 0.971537 0.382234 0.114095
H159  H     H_    0.849372 0.980659 0.236870 0.002458
H160  H     H_    0.803855 0.932839 0.215738 0.034803
H161  H     H_    0.847408 0.972893 0.788662 0.025788
H162  H     H_    0.806615 0.020444 0.858032 0.115323
H163  H     H_    0.723949 0.922779 0.694093 -0.023470
H164  H     H_    0.833363 0.026720 0.675033 0.044945
H165  H     H_    0.750991 0.572274 0.823960 0.081238
H166  H     H_    0.755285 0.506255 0.841765 0.036299
H167  H     H_    0.762594 0.536305 0.660342 0.099178
H168  H     H_    0.755930 0.495094 0.342083 0.029052
H169  H     H_    0.751610 0.429144 0.325352 0.024638
H170  H     H_    0.762947 0.464535 0.160995 0.092305
H171  H     H_    0.255285 0.006254 0.841765 0.036299
H172  H     H_    0.262594 0.036304 0.660342 0.099174
H173  H     H_    0.250990 0.072273 0.823959 0.081243
H174  H     H_    0.817686 0.600815 0.091396 0.075451
H175  H     H_    0.255930 0.995094 0.342083 0.029052
H176  H     H_    0.251610 0.929144 0.325352 0.024637
H177  H     H_    0.262947 0.964535 0.160995 0.092304
H178  H     H_    0.883111 0.543503 0.016972 -0.007532
H179  H     H_    0.884002 0.456580 0.516296 -0.000212
H180  H     H_    0.383111 0.043503 0.016971 -0.007533
H181  H     H_    0.384002 0.956580 0.516295 -0.000212
H182  H     H_    0.768676 0.554590 0.082864 0.033336
H183  H     H_    0.769704 0.445758 0.582479 0.042665
H184  H     H_    0.268677 0.054591 0.082864 0.033336
O1    O     O_2   0.898940 0.431940 0.867860 -0.482123
O2    O     O_3   0.039085 0.715495 0.571080 -0.685575
O3    O     O_3   0.547868 0.788653 0.001649 -0.640134
O4    O     O_3   0.539086 0.215495 0.571081 -0.685576
O5    O     O_3   0.058810 0.523750 0.066650 -0.452219
O6    O     O_3   0.058810 0.476250 0.566650 -0.452537
O7    O     O_3   0.558810 0.023750 0.066650 -0.452222
O8    O     O_3   0.558810 0.976250 0.566650 -0.452537
O9    O     O_3   0.941140 0.476130 0.123050 -0.497007
O10   O     O_3   0.941140 0.523870 0.623050 -0.498233
O11   O     O_3   0.441140 0.976130 0.123050 -0.497007
O12   O     O_2   0.898940 0.568060 0.367860 -0.484018
O13   O     O_3   0.441140 0.023870 0.623050 -0.498233
O14   O     O_3   0.982430 0.389880 0.635700 -0.486868
O15   O     O_3   0.982430 0.610120 0.135700 -0.497221
O16   O     O_3   0.482430 0.889880 0.635700 -0.486867
O17   O     O_3   0.482430 0.110120 0.135700 -0.497221
O18   O     O_2   0.900144 0.349372 0.738671 -0.504255
O19   O     O_2   0.897687 0.649954 0.232742 -0.468523
O20   O     O_2   0.400144 0.849373 0.738670 -0.504257
O21   O     O_2   0.397687 0.149954 0.232741 -0.468523
O22   O     O_3   0.835953 0.482487 0.017326 -0.638432
O23   O     O_2   0.398940 0.931940 0.867860 -0.482122
O24   O     O_3   0.836293 0.517872 0.516330 -0.648963
O25   O     O_3   0.335953 0.982487 0.017326 -0.638431
O26   O     O_3   0.336293 0.017872 0.516330 -0.648962
O27   O     O_3   0.967650 0.290381 0.633917 -0.637528
O28   O     O_3   0.962260 0.709934 0.128666 -0.595276
O29   O     O_3   0.467650 0.790382 0.633920 -0.637527
O30   O     O_3   0.462260 0.209934 0.128669 -0.595272
O31   O     O_2   0.100770 0.431440 0.821660 -0.480853
O32   O     O_2   0.100770 0.568560 0.321660 -0.482183
O33   O     O_2   0.600770 0.931440 0.821660 -0.480857
O34   O     O_2   0.398940 0.068060 0.367860 -0.484018
O35   O     O_2   0.600770 0.068560 0.321660 -0.482179
O36   O     O_3   0.017130 0.389790 0.053700 -0.477524
O37   O     O_3   0.017130 0.610210 0.553700 -0.474751
O38   O     O_3   0.517130 0.889790 0.053700 -0.477526
O39   O     O_3   0.517130 0.110210 0.553700 -0.474752
O40   O     O_2   0.109851 0.360576 0.996153 -0.490521
O41   O     O_2   0.101798 0.651432 0.461790 -0.519857
O42   O     O_2   0.609849 0.860574 0.996148 -0.490522
O43   O     O_2   0.601799 0.151431 0.461791 -0.519857
O44   O     O_3   0.277964 0.554004 0.379493 -0.702794
O45   O     O_3   0.156562 0.490104 0.660968 -0.662157
O46   O     O_3   0.267503 0.437901 0.910075 -0.679116
O47   O     O_3   0.777965 0.054002 0.379494 -0.702797
O48   O     O_3   0.767501 0.937902 0.910086 -0.679109
O49   O     O_3   0.273738 0.500868 0.158776 -0.629238
O50   O     O_3   0.273345 0.478253 0.666988 -0.640692
O51   O     O_3   0.773739 0.000860 0.158791 -0.629239
O52   O     O_3   0.773346 0.978253 0.666998 -0.640701
O53   O     O_3   0.825688 0.543528 0.830393 -0.696997
O54   O     O_3   0.826274 0.456637 0.330435 -0.684435
O55   O     O_3   0.325688 0.043528 0.830393 -0.696996
O56   O     O_3   0.156958 0.509692 0.160778 -0.672414
O57   O     O_3   0.326274 0.956637 0.330434 -0.684434
O58   O     O_3   0.254957 0.663113 0.253807 -0.670316
O59   O     O_3   0.265498 0.342095 0.584669 -0.671543
O60   O     O_3   0.754959 0.163111 0.253803 -0.670315
O61   O     O_3   0.765503 0.842093 0.584701 -0.671540
O62   O     O_3   0.735153 0.346430 0.986429 -0.650589
O63   O     O_3   0.722581 0.644464 0.593175 -0.654574
O64   O     O_3   0.235154 0.846431 0.986427 -0.650589
O65   O     O_3   0.222581 0.144465 0.593198 -0.654574
O66   O     O_3   0.998438 0.267398 0.200225 -0.703358
O67   O     O_3   0.656562 0.990104 0.660968 -0.662150
O68   O     O_3   0.953492 0.708324 0.627374 -0.671677
O69   O     O_3   0.498437 0.767396 0.200231 -0.703353
O70   O     O_3   0.453493 0.208325 0.627378 -0.671677
O71   O     O_3   0.940036 0.203403 0.955558 -0.679504
O72   O     O_3   0.921090 0.766817 0.356442 -0.617471
O73   O     O_3   0.440030 0.703406 0.955563 -0.679504
O74   O     O_3   0.421091 0.266818 0.356444 -0.617466
O75   O     O_3   0.204756 0.470196 0.375478 -0.654214
O76   O     O_3   0.209945 0.531597 0.858959 -0.666904
O77   O     O_3   0.704751 0.970197 0.375486 -0.654216
O78   O     O_3   0.656959 0.009694 0.160776 -0.672418
O79   O     O_3   0.709944 0.031598 0.858959 -0.666914
O80   O     O_3   0.047871 0.288654 0.001646 -0.640136
P1    P     P_3+3 0.893960 0.447890 0.040050 1.025763
P2    P     P_3+3 0.064546 0.655723 0.590443 0.930620
P3    P     P_3+3 0.565234 0.844825 0.089588 0.982887
P4    P     P_3+3 0.564546 0.155723 0.590443 0.930619
P5    P     P_3+3 0.933090 0.653399 0.099050 0.953418
P6    P     P_3+3 0.934834 0.345824 0.603140 0.910440
P7    P     P_3+3 0.433090 0.153400 0.099049 0.953419
P8    P     P_3+3 0.434834 0.845824 0.603140 0.910440
P9    P     P_3+3 0.893960 0.552110 0.540050 1.019920
P10   P     P_3+3 0.393960 0.947890 0.040050 1.025764
P11   P     P_3+3 0.393960 0.052110 0.540050 1.019920
P12   P     P_3+3 0.105800 0.447360 0.649510 0.996618
P13   P     P_3+3 0.105800 0.552640 0.149510 0.990510
P14   P     P_3+3 0.605800 0.947360 0.649510 0.996621
P15   P     P_3+3 0.605800 0.052640 0.149510 0.990513
P16   P     P_3+3 0.065235 0.344825 0.089588 0.982894

loop_
_geom_bond_atom_site_label_1
_geom_bond_atom_site_label_2
_ccdc_geom_bond_type
C95   C99   A    
C14   H155  S    
C129  C133  S    
C110  H50   S    
C135  H97   S    
C117  H78   S    
C25   H23   S    
C3    H119  S    
C13   C44   A    
C98   P14   S    
O43   P4    D    
Ba4   P15   S    
C21   H12   S    
O13   P11   S    
O33   P14   D    
C86   C103  A    
C68   C75   A    
C33   O70   S    
C55   C62   A    
C9    H142  S    
C113  O72   S    
C10   H145  S    
C124  O52   S    
C96   C100  A    
C18   H168  S    
C57   C59   A    
Ba1   P12   S    
C57   H110  S    
C66   C70   A    
C49   H104  S    
C130  H174  S    
C131  H46   S    
C121  O49   S    
C102  C107  A    
C111  H51   S    
C118  C122  S    
C30   H54   S    
Ba2   O9    S    
C95   P13   S    
C12   O49   S    
C29   H40   S    
C1    H121  S    
C28   H38   S    
O22   P1    S    
C49   H100  S    
C73   O62   S    
C2    C93   A    
C119  O77   S    
O42   P3    D    
C2    C43   A    
O9    P1    S    
Ba3   O16   S    
C60   H101  S    
C36   H69   S    
C16   H162  S    
O24   P9    S    
C37   H73   S    
C114  H6    S    
C64   C68   A    
C1    H103  S    
C31   H56   S    
O39   P4    S    
C120  H82   S    
C118  O45   S    
C50   H47   S    
O67   P14   S    
Ba4   P11   S    
C35   C81   S    
C10   O47   S    
Ba3   O7    S    
C60   C136  S    
C86   H116  S    
Ba4   O7    S    
C21   H14   S    
C49   C135  S    
C68   H26   S    
C32   H59   S    
O31   P12   D    
C4    H125  S    
C134  H1    S    
O34   P11   D    
C38   O74   S    
C34   O71   S    
C9    H144  S    
O78   P15   S    
C11   H150  S    
C9    O46   S    
Ba2   O6    S    
C112  O71   S    
O1    P1    D    
O27   P6    S    
C30   H52   S    
C80   O70   S    
C132  H13   S    
O12   P9    D    
C62   C66   A    
Ba2   P13   S    
C22   H18   S    
C4    C82   A    
C94   P3    S    
O45   P12   S    
C79   H132  S    
C40   H87   S    
Ba2   O32   S    
O14   P6    S    
C44   C48   A    
C116  O74   S    
C82   P1    S    
C29   H42   S    
C99   C103  A    
C26   O62   S    
C74   C83   A    
C74   O63   S    
C122  O46   S    
C96   P12   S    
O8    P14   S    
C42   O79   S    
C119  O78   S    
C130  H182  S    
C113  H135  S    
C77   O80   S    
C114  H136  S    
C60   H123  S    
Ba3   O8    S    
C119  H81   S    
Ba1   O36   S    
C16   H164  S    
C134  O27   S    
C42   H94   S    
C72   C74   A    
C20   O57   S    
O21   P7    D    
C23   H19   S    
C128  O25   S    
C122  H141  S    
C88   C92   A    
C19   H173  S    
C129  O57   S    
O5    P13   S    
C38   H75   S    
C66   C106  S    
C112  H4    S    
C56   C63   A    
C52   P5    S    
C70   C73   A    
C31   O68   S    
C33   H62   S    
O19   P5    D    
C7    C54   A    
Ba2   O37   S    
C125  H178  S    
C129  O26   S    
C73   C81   A    
C80   O4    S    
C120  O79   S    
C27   H36   S    
C131  H2    S    
C124  O48   S    
C13   H114  S    
C59   O58   S    
Ba2   O12   S    
C34   H67   S    
C79   O3    S    
C29   O65   S    
C11   O48   S    
C82   C126  A    
C124  H163  S    
C2    H113  S    
C12   H154  S    
C78   H131  S    
C43   C83   S    
C39   H83   S    
C55   C81   A    
C117  C121  S    
C20   H177  S    
C3    O30   S    
C24   C45   A    
C117  O75   S    
O10   P9    S    
C119  C123  S    
C118  O76   S    
C128  C132  S    
Ba1   O31   S    
C19   H172  S    
C5    C52   A    
C26   H32   S    
O32   P13   D    
C71   H106  S    
C64   C103  S    
C134  H79   S    
C12   H151  S    
C56   H109  S    
C14   H157  S    
C90   P2    S    
C32   H61   S    
Ba3   Ba4   S    
Ba4   O35   S    
O56   P13   S    
C8    H140  S    
C59   C64   A    
C117  O56   S    
C136  H108  S    
C25   H22   S    
O36   P16   S    
Ba3   P10   S    
C123  H152  S    
C31   H55   S    
C14   O50   S    
O35   P15   D    
C121  H130  S    
Ba1   O5    S    
C23   H21   S    
C88   C106  A    
C116  H137  S    
C63   O61   S    
C10   H146  S    
C8    O44   S    
C77   C112  S    
C90   C108  A    
C17   H166  S    
C33   H64   S    
C78   O2    S    
C18   H169  S    
C87   C91   A    
C97   P15   S    
C104  P10   S    
Ba4   O11   S    
C55   H107  S    
Ba4   O17   S    
Ba1   O14   S    
C91   P16   S    
C40   H86   S    
C133  H68   S    
C93   P9    S    
C21   O58   S    
C37   O73   S    
O26   P11   S    
C34   H65   S    
C127  H179  S    
C23   O60   S    
C128  H180  S    
O2    P2    S    
C24   H115  S    
C69   H27   S    
C92   C110  A    
O11   P10   S    
C70   H28   S    
C101  H10   S    
C101  C106  A    
C50   C54   A    
C67   C72   A    
C125  O53   S    
C131  H183  S    
C58   C85   A    
C36   H70   S    
C28   O64   S    
C123  O47   S    
C15   H160  S    
C113  H5    S    
O17   P7    S    
O29   P8    S    
C25   H25   S    
C76   C85   A    
C26   H30   S    
O23   P10   D    
C14   H156  S    
C98   C111  A    
C37   H72   S    
C6    C104  A    
C44   C84   S    
C65   C69   A    
C125  O22   S    
C41   H92   S    
C122  O50   S    
C20   H176  S    
C120  C124  S    
C80   H133  S    
C17   O53   S    
C97   C110  A    
Ba2   P9    S    
C75   O64   S    
C4    C51   A    
C75   C84   A    
C86   C90   A    
C78   O68   S    
Ba4   O8    S    
C130  H35   S    
C115  P11   S    
C47   H44   S    
C13   C104  A    
C9    H143  S    
C43   C47   A    
C11   H149  S    
C100  H9    S    
C51   P6    S    
C94   C111  A    
C87   H117  S    
O40   P16   D    
C36   H71   S    
C3    H98   S    
C80   C116  S    
C77   H129  S    
C77   O66   S    
C40   H88   S    
C8    H139  S    
C132  H57   S    
C89   C107  A    
C41   O77   S    
Ba1   O6    S    
C61   O59   S    
C30   H53   S    
C58   H111  S    
O41   P2    D    
C29   H41   S    
C28   H37   S    
C30   O66   S    
C129  H181  S    
C71   H124  S    
C5    C93   A    
C102  H11   S    
C1    H99   S    
Ba3   P14   S    
C32   H60   S    
C128  O55   S    
Ba4   O34   S    
Ba3   O13   S    
C88   H118  S    
O15   P5    S    
C126  H112  S    
C109  H49   S    
C32   O69   S    
C16   H161  S    
C15   H158  S    
O6    P12   S    
C42   H95   S    
Ba3   O33   S    
O18   P6    D    
C71   H102  S    
C37   H74   S    
O16   P8    S    
C61   C65   A    
C18   O54   S    
C63   C67   A    
C72   H29   S    
Ba4   O39   S    
C38   H76   S    
C48   C53   A    
C5    H126  S    
C125  C130  S    
C116  H7    S    
C136  H96   S    
C78   C113  S    
C76   O65   S    
C21   H15   S    
C22   H16   S    
C46   H43   S    
C79   O69   S    
C38   H77   S    
C7    C115  A    
Ba2   O15   S    
C1    C134  S    
O37   P2    S    
Ba2   O5    S    
C118  H80   S    
O20   P8    D    
C79   C114  S    
Ba1   Ba2   S    
C127  C131  S    
C100  C105  A    
C45   C50   A    
C16   O52   S    
C22   H17   S    
O7    P15   S    
C47   C52   A    
C120  O67   S    
C65   C105  S    
O3    P3    S    
C60   H105  S    
C54   P7    S    
O4    P4    S    
C67   C107  S    
C127  O54   S    
C28   H39   S    
C19   H171  S    
C133  H3    S    
C41   H89   S    
C20   H175  S    
C36   O72   S    
C56   C83   A    
C62   O60   S    
C99   H8    S    
C22   O59   S    
C97   C101  A    
C123  O51   S    
C6    H127  S    
O80   P16   S    
C42   H93   S    
C11   H148  S    
C6    C53   A    
C3    C71   S    
C23   H20   S    
C49   H122  S    
C135  O28   S    
C40   O76   S    
C57   C84   A    
C89   H120  S    
C39   O75   S    
O28   P5    S    
C10   H147  S    
C7    H128  S    
C114  O73   S    
C17   H165  S    
C33   H63   S    
C18   H170  S    
C112  H134  S    
C17   H167  S    
C48   H45   S    
C92   P4    S    
C8    H138  S    
Ba3   O23   S    
C27   H33   S    
O30   P7    S    
C27   O63   S    
O38   P3    S    
C34   H66   S    
C58   C61   A    
C25   O61   S    
C96   C109  A    
C45   C85   S    
C127  O24   S    
C24   C115  A    
C108  H48   S    
C133  H24   S    
Ba1   P1    S    
C35   C126  A    
C46   C51   A    
C12   H153  S    
C87   C105  A    
C39   H84   S    
C15   O51   S    
Ba1   O10   S    
C136  O29   S    
C121  O44   S    
C91   C109  A    
C95   C108  A    
C69   C76   A    
C15   H159  S    
C132  H184  S    
C135  H90   S    
Ba3   O38   S    
O25   P10   S    
C53   P8    S    
C26   H31   S    
C35   C46   A    
C98   C102  A    
C19   O55   S    
C41   H91   S    
C89   C94   A    
C27   H34   S    
Ba1   O1    S    
C39   H85   S    
C31   H58   S    
