data_mof_unit_33161.cif
_audit_creation_date              2012-12-10T17:24:49-0500
_audit_creation_method            fapswitch 2.2
_symmetry_space_group_name_H-M    P1
_symmetry_Int_Tables_number       1
_space_group_crystal_system       triclinic
_cell_length_a                    10.163419
_cell_length_b                    10.787475
_cell_length_c                    19.229501
_cell_angle_alpha                 89.813358
_cell_angle_beta                  80.996653
_cell_angle_gamma                 94.889924
_cell_volume                      2074.42718398

loop_
_atom_site_label
_atom_site_type_symbol
_atom_type_description
_atom_site_fract_x
_atom_site_fract_y
_atom_site_fract_z
_atom_type_partial_charge
C1    C     C_R   0.555728 0.732691 0.493481 0.916641
C2    C     C_R   0.499282 0.497572 0.366113 0.850778
C3    C     C_R   0.399191 0.433794 0.753695 0.472212
C4    C     C_R   0.590700 0.576601 0.246993 0.494451
C5    C     C_R   0.404099 0.426858 0.825443 -0.250266
C6    C     C_R   0.594886 0.571394 0.174672 -0.231837
C7    C     C_R   0.506951 0.493729 0.853602 -0.027944
C8    C     C_R   0.503599 0.490397 0.145858 -0.040938
C9    C     C_R   0.606141 0.567681 0.809532 -0.130317
C10   C     C_R   0.409184 0.411643 0.189908 -0.126668
C11   C     C_R   0.604313 0.575251 0.737270 -0.097910
C12   C     C_R   0.444238 0.267385 0.502331 0.948530
C13   C     C_R   0.406095 0.411526 0.262712 -0.099225
C14   C     C_R   0.501607 0.504734 0.709293 -0.225226
C15   C     C_R   0.498098 0.494859 0.291064 -0.229187
C16   C     C_R   0.506713 0.488287 0.069769 0.330274
C17   C     C_R   0.508738 0.489351 0.929298 0.327411
C18   C     C_3   0.179006 0.417054 0.741152 0.096864
C19   C     C_3   0.079232 0.353974 0.697780 -0.318915
C20   C     C_3   0.946435 0.413029 0.709812 -0.926364
C21   C     C_3   0.626406 0.763243 0.301159 0.096191
C22   C     C_3   0.635031 0.864176 0.243980 -0.376748
C23   C     C_2   0.587070 0.864712 0.482676 -0.379068
C24   C     C_3   0.586956 0.985368 0.275290 -0.882696
C25   C     C_2   0.705900 0.661587 0.692800 0.420695
C26   C     C_2   0.310979 0.320274 0.307587 0.447224
C27   C     C_2   0.120718 0.655075 0.570782 0.539823
C28   C     C_2   0.888742 0.386254 0.408307 0.545829
C29   C     C_2   0.412732 0.135616 0.496055 -0.348816
C30   C     C_2   0.488058 0.933920 0.474520 -0.158949
C31   C     C_2   0.512070 0.066405 0.472341 -0.154411
C32   C     C_2   0.923889 0.490381 0.513250 -0.040102
C33   C     C_2   0.072221 0.482021 0.499017 -0.090119
C34   C     C_R   0.500630 0.502195 0.634026 0.905732
H1    H     H_    0.327409 0.368470 0.858794 0.168705
H2    H     H_    0.880943 0.536396 0.560345 0.182170
H3    H     H_    0.192175 0.518505 0.727483 0.139385
H4    H     H_    0.137523 0.404293 0.798072 0.141831
H5    H     H_    0.121947 0.362052 0.640934 0.242558
H6    H     H_    0.061095 0.253541 0.712492 0.239543
H7    H     H_    0.900301 0.404037 0.766110 0.276725
H8    H     H_    0.876680 0.365548 0.677354 0.271806
H9    H     H_    0.962203 0.513000 0.694241 0.278264
H10   H     H_    0.684742 0.799611 0.342043 0.185175
H11   H     H_    0.520901 0.743999 0.327788 0.120117
H12   H     H_    0.669068 0.632341 0.141327 0.174368
H13   H     H_    0.740267 0.881732 0.217356 0.247966
H14   H     H_    0.572060 0.832323 0.204087 0.220046
H15   H     H_    0.481574 0.970096 0.301938 0.271180
H16   H     H_    0.592758 0.056284 0.232687 0.271169
H17   H     H_    0.650806 0.021349 0.313947 0.268075
H18   H     H_    0.695554 0.683872 0.639038 0.089067
H19   H     H_    0.318139 0.306362 0.362654 0.072136
H20   H     H_    0.176571 0.681546 0.612844 0.059160
H21   H     H_    0.860784 0.415589 0.359065 0.085126
H22   H     H_    0.684256 0.621185 0.831637 0.200544
H23   H     H_    0.339668 0.348014 0.167368 0.201943
H24   H     H_    0.614518 0.106487 0.456913 0.203564
H25   H     H_    0.385874 0.893771 0.475313 0.204499
H26   H     H_    0.310628 0.095004 0.511627 0.174519
H27   H     H_    0.688977 0.905342 0.481888 0.182660
H28   H     H_    0.112826 0.411541 0.464128 0.199006
N1    N     N_R   0.603869 0.558975 0.957498 -0.175409
N2    N     N_R   0.412184 0.417865 0.041541 -0.170235
N3    N     N_R   0.602884 0.558458 0.026522 -0.171411
N4    N     N_R   0.413129 0.418439 0.972500 -0.168774
N5    N     N_2   0.842710 0.448880 0.471430 -0.170901
N6    N     N_2   0.157290 0.551120 0.528570 -0.183272
O1    O     O_R   0.431050 0.692470 0.505750 -0.627173
O2    O     O_3   0.684897 0.655683 0.273453 -0.636473
O3    O     O_2   0.802118 0.710935 0.716161 -0.563359
O4    O     O_2   0.223385 0.258086 0.283272 -0.538223
O5    O     O_2   0.035812 0.720999 0.557165 -0.588120
O6    O     O_2   0.948982 0.293241 0.409657 -0.589390
O7    O     O_R   0.568950 0.307530 0.494250 -0.610716
O8    O     O_R   0.651120 0.659650 0.487410 -0.605041
O9    O     O_R   0.348880 0.340350 0.512590 -0.621627
O10   O     O_R   0.389930 0.516430 0.611030 -0.611427
O11   O     O_R   0.610070 0.483570 0.388970 -0.602554
O12   O     O_R   0.610000 0.483610 0.592700 -0.636855
O13   O     O_R   0.390000 0.516390 0.407300 -0.634658
O14   O     O_3   0.301327 0.361979 0.725690 -0.630789
Zn1   Zn    Zn3+2 0.353060 0.521920 0.512240 0.938237
Zn2   Zn    Zn3+2 0.646940 0.478080 0.487760 0.969909

loop_
_geom_bond_atom_site_label_1
_geom_bond_atom_site_label_2
_ccdc_geom_bond_type
C22   H14   S    
N1    N3    A    
C12   C29   S    
C26   O4    D    
C19   C20   S    
O12   Zn2   S    
C28   O6    D    
O8    Zn2   S    
C4    O2    S    
C20   H7    S    
C27   H20   S    
C17   N4    A    
C32   H2    S    
C31   H24   S    
C18   H3    S    
O11   Zn2   S    
C11   C14   A    
O7    Zn2   S    
O9    Zn1   S    
C18   C19   S    
C2    O11   A    
C34   O12   A    
O10   Zn1   S    
C33   H28   S    
C7    C17   S    
C25   O3    D    
C24   H17   S    
C22   H13   S    
N5    Zn2   S    
C8    C16   S    
C21   C22   S    
C30   H25   S    
C1    O8    A    
O13   Zn1   S    
C28   H21   S    
C21   H11   S    
C24   H16   S    
C23   C30   D    
C10   H23   S    
C4    C6    A    
C5    C7    A    
C6    C8    A    
C1    O1    A    
N2    N4    A    
O1    Zn1   S    
C21   H10   S    
C29   H26   S    
C12   O9    A    
C28   N5    S    
C3    O14   S    
C9    H22   S    
C2    C15   S    
C9    C11   A    
C3    C14   A    
C19   H5    S    
C32   N5    D    
C1    C23   S    
C13   C15   A    
C22   C24   S    
C13   C26   S    
C26   H19   S    
C20   H9    S    
C24   H15   S    
C7    C9    A    
C6    H12   S    
N6    Zn1   S    
C3    C5    A    
C10   C13   A    
C14   C34   S    
C20   H8    S    
C21   O2    S    
C32   C33   S    
C4    C15   A    
C18   H4    S    
C25   H18   S    
C29   C31   D    
C17   N1    A    
C30   C31   S    
C5    H1    S    
C18   O14   S    
C19   H6    S    
C23   H27   S    
C8    C10   A    
C12   O7    A    
C11   C25   S    
C2    O13   A    
C16   N3    A    
C16   N2    A    
C27   N6    S    
C27   O5    D    
C34   O10   A    
C33   N6    D    
