data_mof_unit_30191.cif
_audit_creation_date              2012-12-11T15:39:03-0500
_audit_creation_method            fapswitch 2.2
_symmetry_space_group_name_H-M    P1
_symmetry_Int_Tables_number       1
_space_group_crystal_system       triclinic
_cell_length_a                    14.312168
_cell_length_b                    14.816624
_cell_length_c                    33.220459
_cell_angle_alpha                 98.009166
_cell_angle_beta                  90.307543
_cell_angle_gamma                 118.715776
_cell_volume                      6096.75988566

loop_
_atom_site_label
_atom_site_type_symbol
_atom_type_description
_atom_site_fract_x
_atom_site_fract_y
_atom_site_fract_z
_atom_type_partial_charge
C1    C     C_R   0.616848 0.910184 0.436991 0.542644
C2    C     C_R   0.712158 0.436662 0.949418 0.542638
C3    C     C_R   0.577870 0.841363 0.777255 -0.117184
C4    C     C_R   0.586950 0.855635 0.736644 -0.098185
C5    C     C_R   0.600913 0.785486 0.707660 0.024720
C6    C     C_R   0.595874 0.695695 0.719094 -0.126931
C7    C     C_R   0.585730 0.680821 0.759837 -0.114716
C8    C     C_R   0.580578 0.755648 0.789337 0.024445
C9    C     C_R   0.552016 0.737176 0.633231 -0.134803
C10   C     C_R   0.555604 0.765765 0.594842 -0.128231
C11   C     C_R   0.708431 0.934373 0.619769 -0.128259
C12   C     C_R   0.934085 0.464881 0.186117 0.025587
C13   C     C_R   0.709684 0.740119 0.950332 0.536346
C14   C     C_R   0.979266 0.537474 0.222204 -0.077160
C15   C     C_R   0.073372 0.552899 0.241967 -0.110426
C16   C     C_R   0.124765 0.498259 0.225430 -0.107183
C17   C     C_R   0.081863 0.427762 0.189055 -0.116597
C18   C     C_R   0.986876 0.411008 0.169424 -0.107650
C19   C     C_3   0.505921 0.606993 0.181007 0.007363
C20   C     C_3   0.405215 0.538821 0.200922 -0.254504
C21   C     C_3   0.399955 0.436346 0.206953 -0.495982
C22   C     C_R   0.139044 0.952438 0.930491 0.053345
C23   C     C_R   0.200639 0.975290 0.967361 -0.071122
C24   C     C_R   0.832127 0.445258 0.165678 -0.004611
C25   C     C_R   0.220334 0.062170 0.996120 -0.104974
C26   C     C_R   0.179490 0.127299 0.988226 -0.110798
C27   C     C_R   0.118739 0.105606 0.951577 -0.122944
C28   C     C_R   0.098503 0.018616 0.922780 -0.086484
C29   C     C_3   0.115728 0.548718 0.888334 0.010124
C30   C     C_3   0.078038 0.447209 0.858403 -0.272328
C31   C     C_3   0.160668 0.410028 0.857682 -0.483177
C32   C     C_R   0.483085 0.579163 0.912129 0.052014
C33   C     C_R   0.445106 0.600287 0.949265 -0.068004
C34   C     C_R   0.370381 0.518610 0.967722 -0.117244
C35   C     C_R   0.830093 0.458913 0.124880 -0.129376
C36   C     C_R   0.331787 0.415351 0.949033 -0.110885
C37   C     C_R   0.367235 0.393638 0.911698 -0.122512
C38   C     C_R   0.442433 0.475092 0.893211 -0.097342
C39   C     C_R   0.788117 0.981128 0.691541 0.028923
C40   C     C_R   0.846733 0.949558 0.714578 -0.081813
C41   C     C_R   0.920723 0.019363 0.746664 -0.116734
C42   C     C_R   0.937119 0.121109 0.755910 -0.104875
C43   C     C_R   0.879703 0.153328 0.733033 -0.113646
C44   C     C_R   0.805656 0.083768 0.700910 -0.110014
C45   C     C_R   0.759436 0.335304 0.243385 -0.098691
C46   C     C_R   0.752203 0.322459 0.284147 -0.110251
C47   C     C_R   0.720719 0.381753 0.311745 0.030429
C48   C     C_R   0.699582 0.456208 0.298212 -0.117853
C49   C     C_R   0.706996 0.469113 0.257437 -0.128267
C50   C     C_R   0.735923 0.407990 0.229816 0.024093
C51   C     C_R   0.738720 0.418903 0.186544 0.020314
C52   C     C_R   0.603102 0.343556 0.368913 -0.118366
C53   C     C_R   0.593985 0.205464 0.456693 0.545492
C54   C     C_R   0.571843 0.300314 0.404352 -0.125099
C55   C     C_R   0.736237 0.291836 0.410642 -0.127203
C56   C     C_R   0.767465 0.335152 0.375222 -0.122009
C57   C     C_R   0.699153 0.357369 0.353243 0.032331
C58   C     C_R   0.636130 0.270050 0.424528 0.022035
C59   C     C_R   0.251414 0.879535 0.392350 0.023391
C60   C     C_R   0.217820 0.948611 0.381510 -0.127329
C61   C     C_R   0.197514 0.950201 0.340413 -0.113758
C62   C     C_R   0.706172 0.906132 0.658567 -0.003674
C63   C     C_R   0.212138 0.883901 0.309889 0.038942
C64   C     C_R   0.242534 0.813144 0.320505 -0.118643
C65   C     C_R   0.296553 0.892966 0.434204 0.541233
C66   C     C_R   0.260494 0.809753 0.361389 -0.125731
C67   C     C_R   0.199020 0.810613 0.162905 -0.105484
C68   C     C_R   0.168148 0.786217 0.121211 -0.124345
C69   C     C_R   0.096653 0.905972 0.129007 -0.131697
C70   C     C_R   0.127325 0.929995 0.170859 -0.117992
C71   C     C_R   0.175264 0.879604 0.187998 0.036929
C72   C     C_1   0.189531 0.888587 0.231464 -0.028994
C73   C     C_R   0.622993 0.808524 0.665807 0.017153
C74   C     C_1   0.199525 0.889246 0.267521 -0.030412
C75   C     C_R   0.112543 0.830259 0.104123 0.017142
C76   C     C_R   0.637068 0.878428 0.395356 0.021257
C77   C     C_R   0.613700 0.905553 0.551833 0.543505
C78   C     C_R   0.551888 0.800835 0.368076 -0.132877
C79   C     C_R   0.563885 0.789182 0.326322 -0.114767
C80   C     C_R   0.661163 0.854220 0.311621 0.035669
C81   C     C_R   0.748561 0.926086 0.338751 -0.118854
C82   C     C_R   0.736767 0.938064 0.380462 -0.125624
C83   C     C_R   0.778871 0.919094 0.175014 -0.169455
C84   C     C_R   0.630219 0.866484 0.588307 0.007194
C85   C     C_R   0.794601 0.905880 0.133681 -0.146760
C86   C     C_R   0.617456 0.754936 0.120916 -0.112406
C87   C     C_R   0.602005 0.766991 0.162463 0.274535
C88   C     C_R   0.684184 0.848136 0.189583 0.045810
C89   C     C_R   0.589258 0.199021 0.571088 0.540974
C90   C     C_1   0.675922 0.852095 0.232657 0.003181
C91   C     C_1   0.669255 0.852672 0.268676 -0.027363
C92   C     C_R   0.715738 0.821008 0.106610 -0.021401
C93   C     C_R   0.620144 0.247785 0.614415 0.020544
C94   C     C_R   0.546342 0.264123 0.637879 -0.127868
C95   C     C_R   0.052348 0.781455 0.063766 0.532154
C96   C     C_R   0.561938 0.285013 0.680331 -0.117723
C97   C     C_R   0.652088 0.291481 0.699876 0.039414
C98   C     C_R   0.730480 0.284273 0.676834 -0.121528
C99   C     C_R   0.714362 0.261741 0.634253 -0.134217
C100  C     C_R   0.763293 0.341356 0.845598 -0.105067
C101  C     C_R   0.289317 0.887274 0.548600 0.544859
C102  C     C_R   0.774205 0.370687 0.887860 -0.111633
C103  C     C_R   0.590066 0.334394 0.886425 -0.131425
C104  C     C_R   0.579259 0.305192 0.844077 -0.120317
C105  C     C_R   0.667327 0.312991 0.823515 0.037265
C106  C     C_R   0.743983 0.486675 0.066077 0.542308
C107  C     C_1   0.663059 0.303207 0.779871 -0.033440
C108  C     C_1   0.659628 0.298316 0.743395 -0.034996
C109  C     C_R   0.689487 0.373401 0.908397 0.013543
C110  C     C_R   0.076861 0.758460 0.909834 0.015505
C111  C     C_R   0.118494 0.860375 0.899844 -0.060805
C112  C     C_R   0.141233 0.875404 0.859649 -0.142106
C113  C     C_R   0.737919 0.449338 0.105179 0.008199
C114  C     C_R   0.125684 0.792054 0.829801 -0.027342
C115  C     C_R   0.095813 0.694716 0.840692 -0.107232
C116  C     C_R   0.073748 0.677560 0.880634 0.251472
C117  C     C_R   0.742974 0.789393 0.066359 0.539152
C118  C     C_R   0.186313 0.761158 0.761923 -0.116634
C119  C     C_R   0.188507 0.766929 0.720569 -0.112761
C120  C     C_R   0.138685 0.815972 0.703388 0.031153
C121  C     C_R   0.087287 0.860011 0.728183 -0.120352
C122  C     C_R   0.084834 0.853964 0.769662 -0.110708
C123  C     C_R   0.134257 0.804351 0.786714 0.037537
C124  C     C_R   0.187183 0.927030 0.649334 -0.118961
C125  C     C_R   0.644699 0.418553 0.125680 -0.138438
C126  C     C_R   0.224522 0.944731 0.611055 -0.128167
C127  C     C_R   0.175593 0.762191 0.593054 -0.125870
C128  C     C_R   0.022989 0.732657 0.947684 0.560602
C129  C     C_R   0.138026 0.744534 0.631224 -0.122733
C130  C     C_R   0.149305 0.828052 0.660329 0.031051
C131  C     C_R   0.224591 0.863583 0.583607 0.022278
C132  C     C_R   0.658383 0.748029 0.912848 0.008029
C133  C     C_R   0.560482 0.666178 0.892215 -0.018418
C134  C     C_R   0.533789 0.669392 0.851703 -0.125011
C135  C     C_R   0.598819 0.755209 0.832893 0.016416
C136  C     C_R   0.688140 0.840241 0.855038 -0.127225
C137  C     C_R   0.645216 0.403294 0.165935 -0.141298
C138  C     C_R   0.717744 0.836626 0.894290 -0.138564
Cr1   Cr    Cr6+3 0.424820 0.846020 0.489780 1.008528
Cr2   Cr    Cr6+3 0.657880 0.078580 0.505700 1.009313
Cr3   Cr    Cr6+3 0.417280 0.075360 0.504550 1.009819
Cr4   Cr    Cr6+3 0.903360 0.812540 0.006510 1.025346
Cr5   Cr    Cr6+3 0.914630 0.587050 0.006280 1.018423
Cr6   Cr    Cr6+3 0.673560 0.582680 0.008540 1.024080
H1    H     H_    0.572421 0.410277 0.111183 0.124782
H2    H     H_    0.053175 0.940490 0.116839 0.122973
H3    H     H_    0.902921 0.483734 0.109426 0.131518
H4    H     H_    0.174010 0.005337 0.332459 0.104878
H5    H     H_    0.871266 0.957634 0.123538 0.131846
H6    H     H_    0.842712 0.981505 0.195915 0.111398
H7    H     H_    0.824341 0.976205 0.327525 0.103639
H8    H     H_    0.803871 0.998233 0.400716 0.125352
H9    H     H_    0.474071 0.753974 0.378576 0.120318
H10   H     H_    0.554876 0.690195 0.100359 0.122870
H11   H     H_    0.495999 0.732949 0.305401 0.106745
H12   H     H_    0.494538 0.284956 0.414499 0.128183
H13   H     H_    0.851569 0.399010 0.903920 0.161528
H14   H     H_    0.842744 0.346867 0.363967 0.104317
H15   H     H_    0.831543 0.346839 0.829905 0.108423
H16   H     H_    0.801693 0.291522 0.691794 0.098723
H17   H     H_    0.772756 0.249872 0.617093 0.120639
H18   H     H_    0.472978 0.254109 0.623669 0.125315
H19   H     H_    0.504157 0.282284 0.827221 0.102037
H20   H     H_    0.523045 0.333271 0.901572 0.133704
H21   H     H_    0.501333 0.291588 0.697934 0.103597
H22   H     H_    0.106844 0.667119 0.639011 0.105313
H23   H     H_    0.788068 0.270496 0.425895 0.124889
H24   H     H_    0.766700 0.262987 0.293693 0.107247
H25   H     H_    0.231337 0.735117 0.702148 0.108171
H26   H     H_    0.225826 0.723558 0.774620 0.100591
H27   H     H_    0.169982 0.952134 0.851390 0.113447
H28   H     H_    0.048841 0.898432 0.715403 0.101504
H29   H     H_    0.042732 0.886204 0.788299 0.098112
H30   H     H_    0.196487 0.992488 0.671422 0.105790
H31   H     H_    0.261218 0.023549 0.604359 0.125546
H32   H     H_    0.083349 0.629751 0.817644 0.113845
H33   H     H_    0.172830 0.697925 0.572056 0.126442
H34   H     H_    0.181457 0.727647 0.102871 0.128070
H35   H     H_    0.780872 0.286986 0.222235 0.117401
H36   H     H_    0.791191 0.902094 0.909255 0.135980
H37   H     H_    0.587499 0.923806 0.728083 0.120014
H38   H     H_    0.573916 0.899787 0.799643 0.110323
H39   H     H_    0.461924 0.605675 0.834882 0.097356
H40   H     H_    0.605147 0.640139 0.696965 0.107744
H41   H     H_    0.589140 0.614820 0.768777 0.110863
H42   H     H_    0.488724 0.661900 0.638204 0.109136
H43   H     H_    0.495015 0.711274 0.570991 0.126292
H44   H     H_    0.739009 0.907456 0.841016 0.114486
H45   H     H_    0.235983 0.771103 0.175916 0.129431
H46   H     H_    0.572856 0.381220 0.181442 0.110997
H47   H     H_    0.767819 0.011466 0.614843 0.125936
H48   H     H_    0.675591 0.502962 0.319014 0.106220
H49   H     H_    0.689271 0.526051 0.247270 0.102106
H50   H     H_    0.548728 0.359487 0.352329 0.104088
H51   H     H_    0.941316 0.581543 0.235204 0.119126
H52   H     H_    0.105861 0.606669 0.270265 0.105637
H53   H     H_    0.197622 0.510382 0.240857 0.098693
H54   H     H_    0.121752 0.385483 0.176238 0.099957
H55   H     H_    0.953733 0.355092 0.141543 0.101153
H56   H     H_    0.256338 0.763160 0.297136 0.103201
H57   H     H_    0.577110 0.623076 0.200863 0.131186
H58   H     H_    0.505540 0.563852 0.150664 0.127945
H59   H     H_    0.404405 0.581675 0.231069 0.164195
H60   H     H_    0.333572 0.521695 0.181348 0.170624
H61   H     H_    0.399122 0.391472 0.177105 0.142059
H62   H     H_    0.325629 0.388823 0.221281 0.142781
H63   H     H_    0.469662 0.451609 0.227241 0.145189
H64   H     H_    0.233404 0.925896 0.973780 0.088476
H65   H     H_    0.267475 0.079123 0.024500 0.103353
H66   H     H_    0.194991 0.194626 0.010493 0.098379
H67   H     H_    0.288361 0.757157 0.368577 0.121579
H68   H     H_    0.087195 0.156153 0.945494 0.095184
H69   H     H_    0.050525 0.002378 0.894667 0.093334
H70   H     H_    0.129526 0.535245 0.919376 0.154679
H71   H     H_    0.194620 0.609043 0.880065 0.112437
H72   H     H_    0.002002 0.385696 0.867508 0.157263
H73   H     H_    0.063263 0.459338 0.827249 0.153105
H74   H     H_    0.238356 0.470579 0.849246 0.151127
H75   H     H_    0.132291 0.337929 0.834925 0.134287
H76   H     H_    0.171975 0.392286 0.888120 0.159320
H77   H     H_    0.473496 0.680002 0.963904 0.092910
H78   H     H_    0.211370 0.004025 0.404688 0.117329
H79   H     H_    0.342064 0.535416 0.996440 0.094674
H80   H     H_    0.273651 0.352229 0.963275 0.102623
H81   H     H_    0.336180 0.313599 0.897021 0.100662
H82   H     H_    0.469336 0.457017 0.864313 0.097453
H83   H     H_    0.834794 0.870901 0.707805 0.111642
H84   H     H_    0.965119 0.994529 0.764463 0.093160
H85   H     H_    0.994159 0.174914 0.780841 0.097188
H86   H     H_    0.892125 0.232009 0.740384 0.098808
H87   H     H_    0.760284 0.108912 0.683841 0.106876
H88   H     H_    0.108347 0.983324 0.190095 0.104475
O1    O     O_R   0.318160 0.824460 0.443680 -0.522269
O2    O     O_R   0.668160 0.499860 0.053480 -0.520028
O3    O     O_R   0.689170 0.693840 0.050110 -0.505301
O4    O     O_R   0.525040 0.857250 0.449830 -0.504116
O5    O     O_R   0.803860 0.812940 0.962540 -0.516329
O6    O     O_R   0.982950 0.787950 0.964120 -0.492340
O7    O     O_R   0.007050 0.649970 0.960540 -0.473020
O8    O     O_R   0.807910 0.482370 0.965590 -0.497044
O9    O     O_R   0.643310 0.460980 0.963840 -0.504251
O10   O     O_R   0.666140 0.657800 0.967020 -0.484447
O11   O     O_3   0.830520 0.660760 0.007110 -0.240219
O12   O     O_R   0.645130 0.163230 0.552140 -0.501455
O13   O     O_R   0.684760 0.998800 0.456360 -0.518021
O14   O     O_R   0.647540 0.166310 0.470260 -0.502140
O15   O     O_R   0.500960 0.181750 0.467450 -0.518748
O16   O     O_R   0.331100 0.981120 0.457080 -0.498924
O17   O     O_R   0.315560 0.821140 0.532010 -0.517571
O18   O     O_R   0.522630 0.854180 0.531710 -0.499204
O19   O     O_R   0.682160 0.995480 0.544690 -0.518850
O20   O     O_3   0.506041 0.700445 0.176543 -0.572025
O21   O     O_3   0.034462 0.577569 0.889416 -0.560476
O22   O     O_R   0.498360 0.178430 0.555780 -0.521640
O23   O     O_R   0.328690 0.978040 0.538950 -0.503576
O24   O     O_3   0.499990 0.999990 0.500010 -0.233975
O25   O     O_R   0.828710 0.851830 0.052170 -0.517374
O26   O     O_R   0.005980 0.823990 0.047210 -0.501563
O27   O     O_R   0.031900 0.688850 0.050170 -0.525479
O28   O     O_R   0.830940 0.518420 0.048680 -0.505719

loop_
_geom_bond_atom_site_label_1
_geom_bond_atom_site_label_2
_ccdc_geom_bond_type
C95   O26   A    
C87   C88   A    
C2    C109  S    
C93   C94   A    
C23   H64   S    
Cr4   O5    S    
C41   C42   A    
C111  C112  A    
C100  H15   S    
C86   H10   S    
C55   H23   S    
C134  H39   S    
C55   C56   A    
C11   C62   A    
C138  H36   S    
Cr6   O9    S    
C104  H19   S    
C112  C114  A    
C114  C115  A    
C90   C91   T    
C43   H86   S    
C75   C95   S    
C7    C8    A    
C45   C46   A    
C120  C121  A    
C68   C75   A    
C95   O27   A    
C105  C107  S    
C103  H20   S    
C29   C30   S    
C46   H24   S    
C129  H22   S    
C26   H66   S    
Cr2   O14   S    
Cr3   O22   S    
C126  C131  A    
C65   O1    A    
C36   C37   A    
C101  O23   A    
C61   H4    S    
C76   C78   A    
C31   H76   S    
C59   C66   A    
C54   H12   S    
C5    C6    A    
C98   C99   A    
C19   O20   S    
C29   H71   S    
C112  H27   S    
C124  H30   S    
C117  O3    A    
C1    O4    A    
C132  C138  A    
Cr4   O11   S    
C127  C131  A    
Cr6   O11   S    
C97   C98   A    
C19   H57   S    
Cr3   O16   S    
C56   C57   A    
C101  C131  S    
Cr4   O26   S    
C21   H61   S    
C61   C63   A    
C110  C111  A    
C56   H14   S    
C103  C104  A    
C16   H53   S    
C118  C119  A    
C97   C108  S    
C47   C48   A    
C16   C17   A    
C128  O7    A    
Cr6   O10   S    
Cr1   O1    S    
C107  C108  T    
C62   C73   A    
C35   C113  A    
C70   C71   A    
C77   O19   A    
C32   C38   A    
C4    H37   S    
C106  O2    A    
C9    C10   A    
C94   H18   S    
C67   C71   A    
C99   H17   S    
C38   H82   S    
C83   H6    S    
C24   C51   A    
C37   H81   S    
C83   C88   A    
C41   H84   S    
C59   C60   A    
C22   C28   A    
C136  H44   S    
C8    C135  S    
C106  O28   A    
C69   H2    S    
C1    C76   S    
Cr1   O17   S    
Cr2   O19   S    
C9    C73   A    
C32   C133  S    
C102  H13   S    
C34   C36   A    
C104  C105  A    
C2    O9    A    
C85   C92   A    
C52   C54   A    
C10   H43   S    
C6    C7    A    
C31   H75   S    
C116  O21   S    
C22   C23   A    
C87   O20   S    
C24   C35   A    
C15   C16   A    
C106  C113  S    
C124  C130  A    
C67   C68   A    
C127  H33   S    
Cr5   O7    S    
C135  C136  A    
C52   H50   S    
C79   C80   A    
C20   H60   S    
C14   H51   S    
C136  C138  A    
C3    C8    A    
C76   C82   A    
C39   C40   A    
C78   C79   A    
C132  C133  A    
C13   O5    A    
C77   C84   S    
C125  C137  A    
C25   C26   A    
C81   H7    S    
C79   H11   S    
C19   H58   S    
C81   C82   A    
Cr2   O13   S    
C6    H40   S    
C60   C61   A    
Cr2   O12   S    
Cr4   O25   S    
Cr3   O23   S    
C21   H62   S    
C25   H65   S    
C92   C117  S    
C127  C129  A    
C37   C38   A    
C47   C57   S    
C117  O25   A    
C13   O10   A    
C9    H42   S    
C53   C58   S    
C96   C97   A    
C100  C102  A    
C17   C18   A    
C100  C105  A    
C89   O12   A    
Cr5   O27   S    
C17   H54   S    
C50   C51   S    
C35   H3    S    
Cr5   O11   S    
C94   C96   A    
C64   C66   A    
C121  C122  A    
C39   C44   A    
C119  H25   S    
C30   H73   S    
Cr2   O24   S    
C15   H52   S    
C51   C137  A    
C72   C74   T    
C40   C41   A    
C83   C85   A    
C65   O16   A    
C98   H16   S    
C49   C50   A    
C29   O21   S    
C89   O22   A    
C64   H56   S    
C43   C44   A    
C26   C27   A    
C133  C134  A    
C66   H67   S    
C120  C130  S    
Cr1   O18   S    
C44   H87   S    
C42   C43   A    
C114  C123  S    
C3    C4    A    
C110  C116  A    
C53   O14   A    
C34   H79   S    
C86   C87   A    
C124  C126  A    
C129  C130  A    
C54   C58   A    
C28   H69   S    
Cr4   O6    S    
C39   C62   S    
C93   C99   A    
C46   C47   A    
C48   C49   A    
C89   C93   S    
Cr1   O4    S    
Cr6   O3    S    
C137  H46   S    
Cr3   O24   S    
Cr5   O8    S    
C7    H41   S    
C101  O17   A    
Cr5   O28   S    
C20   H59   S    
C88   C90   S    
C80   C81   A    
C60   H78   S    
C119  C120  A    
C67   H45   S    
C78   H9    S    
C134  C135  A    
C63   C74   S    
C11   C84   A    
C122  H29   S    
C53   O15   A    
C12   C24   S    
C96   H21   S    
Cr6   O2    S    
C103  C109  A    
C32   C33   A    
C21   H63   S    
C19   C20   S    
Cr1   O24   S    
C12   C14   A    
C71   C72   S    
C31   H74   S    
C1    O13   A    
C59   C65   S    
C115  H32   S    
C2    O8    A    
C29   H70   S    
C30   C31   S    
C49   H49   S    
C45   C50   A    
C40   H83   S    
C80   C91   S    
C10   C84   A    
C27   H68   S    
Cr3   O15   S    
C13   C132  S    
C33   C34   A    
C69   C75   A    
C11   H47   S    
C118  C123  A    
C23   C25   A    
C5    C73   S    
C69   C70   A    
C3    H38   S    
C85   H5    S    
C48   H48   S    
C52   C57   A    
C45   H35   S    
C30   H72   S    
C63   C64   A    
C42   H85   S    
C4    C5    A    
C121  H28   S    
C113  C125  A    
C20   C21   S    
C68   H34   S    
C22   C111  S    
C55   C58   A    
C12   C18   A    
C18   H55   S    
C36   H80   S    
C118  H26   S    
C14   C15   A    
C102  C109  A    
C86   C92   A    
C77   O18   A    
C122  C123  A    
C128  O6    A    
C125  H1    S    
C82   H8    S    
C126  H31   S    
C115  C116  A    
C110  C128  S    
C27   C28   A    
C70   H88   S    
C33   H77   S    
