data_mof_unit_36952.cif
_audit_creation_date              2012-12-11T15:45:16-0500
_audit_creation_method            fapswitch 2.2
_symmetry_space_group_name_H-M    P1
_symmetry_Int_Tables_number       1
_space_group_crystal_system       triclinic
_cell_length_a                    8.263884
_cell_length_b                    19.025854
_cell_length_c                    22.897252
_cell_angle_alpha                 95.568295
_cell_angle_beta                  89.805878
_cell_angle_gamma                 94.370043
_cell_volume                      3572.64256329

loop_
_atom_site_label
_atom_site_type_symbol
_atom_type_description
_atom_site_fract_x
_atom_site_fract_y
_atom_site_fract_z
_atom_type_partial_charge
Ba1   Ba    Ba6+2 0.850680 0.532880 0.472010 1.642278
Ba2   Ba    Ba6+2 0.339140 0.467180 0.527990 1.668043
C1    C     C_3   0.644016 0.793003 0.319069 -0.361774
C2    C     C_3   0.623934 0.719396 0.339850 0.350344
C3    C     C_3   0.501329 0.366808 0.351307 0.283668
C4    C     C_3   0.484792 0.347780 0.285437 -0.364527
C5    C     C_3   0.013406 0.298603 0.685812 0.347058
C6    C     C_3   0.966831 0.255211 0.736511 -0.339664
C7    C     C_3   0.506087 0.286342 0.685566 0.362635
C8    C     C_3   0.452859 0.226475 0.722475 -0.347585
C9    C     C_R   0.336487 0.522481 0.332755 -0.300543
C10   C     C_R   0.089516 0.557869 0.939410 -0.027670
C11   C     C_R   0.044705 0.553204 0.879187 0.593237
C12   C     C_3   0.094182 0.682869 0.311429 0.319127
C13   C     C_R   0.997516 0.426994 0.877403 0.588038
C14   C     C_R   0.036270 0.430229 0.937853 -0.019911
C15   C     C_R   0.082984 0.496023 0.968970 -0.052557
C16   C     C_R   0.139727 0.623061 0.971002 -0.074103
C17   C     C_R   0.182778 0.626691 0.030409 -0.074668
C18   C     C_R   0.175313 0.565379 0.060598 -0.019406
C19   C     C_R   0.124179 0.499879 0.029811 -0.051405
C20   C     C_R   0.029723 0.368850 0.967901 -0.075636
C21   C     C_R   0.067722 0.372776 0.027700 -0.076044
C22   C     C_R   0.115450 0.438115 0.059482 -0.026936
C23   C     C_3   0.064961 0.702873 0.249879 -0.304770
C24   C     C_R   0.155833 0.442872 0.120025 0.590831
C25   C     C_R   0.218381 0.568237 0.120733 0.576017
C26   C     C_2   0.807585 0.446446 0.768371 -0.095260
C27   C     C_3   0.774632 0.427163 0.703535 -0.073984
C28   C     C_1   0.006942 0.510848 0.684852 0.031243
C29   C     C_2   0.053262 0.516455 0.741084 -0.091186
C30   C     C_2   0.947866 0.483665 0.786728 0.212623
C31   C     C_R   0.402656 0.543120 0.232292 -0.095124
C32   C     C_R   0.445325 0.548070 0.291879 -0.019080
C33   C     C_R   0.187839 0.488058 0.315009 0.038253
C34   C     C_3   0.199885 0.682848 0.596677 0.314536
C35   C     C_R   0.143194 0.483009 0.254963 -0.101386
C36   C     C_R   0.249462 0.511742 0.212816 0.205211
C37   C     C_2   0.876699 0.471578 0.664369 -0.270325
C38   C     C_R   0.395049 0.700667 0.473735 -0.293736
C39   C     C_R   0.537437 0.723564 0.504384 0.064610
C40   C     C_R   0.590713 0.795586 0.510045 -0.123680
C41   C     C_R   0.499521 0.845457 0.485840 -0.018502
C42   C     C_R   0.351407 0.821598 0.457221 -0.138427
C43   C     C_R   0.298629 0.749430 0.452291 0.016457
C44   C     C_R   0.536853 0.964379 0.446098 -0.075953
C45   C     C_3   0.211817 0.762765 0.611469 -0.384341
C46   C     C_R   0.589383 0.036397 0.452117 -0.073612
C47   C     C_R   0.661544 0.068357 0.504686 0.059930
C48   C     C_R   0.681870 0.026115 0.550794 -0.076641
C49   C     C_R   0.629561 0.953974 0.544729 -0.074733
C50   C     C_R   0.555900 0.922194 0.492333 0.062797
C51   C     C_R   0.857541 0.172301 0.540503 -0.124292
C52   C     C_R   0.902241 0.245370 0.546186 0.057572
C53   C     C_R   0.659224 0.266283 0.494028 0.030403
C54   C     C_R   0.613120 0.193737 0.488166 -0.124447
C55   C     C_R   0.710919 0.145755 0.511801 -0.008988
C56   C     C_3   0.961018 0.312842 0.390903 0.692844
C57   C     C_R   0.798872 0.291889 0.525290 -0.242593
C58   C     C_3   0.887342 0.244609 0.357851 -0.225348
C59   C     C_3   0.693866 0.619989 0.645813 0.297320
C60   C     C_3   0.705681 0.638066 0.711915 -0.345819
H1    H     H_    0.686098 0.721262 0.383021 0.076487
H2    H     H_    0.295093 0.777743 0.649356 0.127787
H3    H     H_    0.259098 0.789743 0.573528 0.062818
H4    H     H_    0.089886 0.780855 0.622710 0.126868
H5    H     H_    0.860773 0.343870 0.408715 -0.059532
H6    H     H_    0.810559 0.257084 0.321091 0.075450
H7    H     H_    0.811647 0.213348 0.387631 0.050126
H8    H     H_    0.984931 0.211938 0.339637 0.110016
H9    H     H_    0.813799 0.606243 0.628958 0.006627
H10   H     H_    0.604137 0.573973 0.636420 0.088726
H11   H     H_    0.774858 0.809993 0.315234 0.140697
H12   H     H_    0.799493 0.682421 0.722457 0.131103
H13   H     H_    0.739296 0.591474 0.733413 0.078192
H14   H     H_    0.586796 0.653711 0.729451 0.135005
H15   H     H_    0.491982 0.705127 0.344936 -0.055069
H16   H     H_    0.587442 0.831207 0.351111 0.068656
H17   H     H_    0.382822 0.382752 0.368656 0.044483
H18   H     H_    0.594605 0.411898 0.359225 0.055348
H19   H     H_    0.389840 0.303603 0.276119 0.146884
H20   H     H_    0.450006 0.394139 0.263854 0.073560
H21   H     H_    0.602162 0.331500 0.266948 0.117693
H22   H     H_    0.584134 0.792965 0.275715 0.124681
H23   H     H_    0.050835 0.654203 0.219017 0.123628
H24   H     H_    0.069816 0.351224 0.703424 0.075366
H25   H     H_    0.899735 0.305975 0.662309 -0.094506
H26   H     H_    0.072064 0.254272 0.766324 0.142258
H27   H     H_    0.866057 0.278892 0.761654 0.125614
H28   H     H_    0.925302 0.200164 0.719469 0.094895
H29   H     H_    0.640378 0.290218 0.685723 -0.082680
H30   H     H_    0.461907 0.272631 0.639791 0.073877
H31   H     H_    0.505414 0.177006 0.704239 0.062234
H32   H     H_    0.319037 0.217173 0.722380 0.149469
H33   H     H_    0.010318 0.636177 0.318440 0.104635
H34   H     H_    0.496149 0.239846 0.768370 0.116260
H35   H     H_    0.060151 0.324191 0.048947 0.122642
H36   H     H_    0.994141 0.317349 0.945285 0.119813
H37   H     H_    0.221295 0.678006 0.052765 0.121452
H38   H     H_    0.489252 0.562882 0.201080 0.110272
H39   H     H_    0.146530 0.671669 0.949797 0.123048
H40   H     H_    0.169890 0.543420 0.754126 0.121866
H41   H     H_    0.727205 0.422533 0.799742 0.104495
H42   H     H_    0.027349 0.456369 0.241103 0.119897
H43   H     H_    0.371755 0.525801 0.378462 0.081808
H44   H     H_    0.221568 0.668666 0.314781 -0.040931
H45   H     H_    0.855495 0.460755 0.617504 0.078702
H46   H     H_    0.502674 0.174956 0.464429 0.085112
H47   H     H_    0.574626 0.066985 0.415269 0.065245
H48   H     H_    0.482853 0.941537 0.404894 0.064352
H49   H     H_    0.702487 0.812482 0.533601 0.085633
H50   H     H_    0.734823 0.049222 0.592113 0.060950
H51   H     H_    0.643779 0.923415 0.581625 0.061417
H52   H     H_    0.938330 0.136475 0.556908 0.067418
H53   H     H_    0.274850 0.858967 0.440657 0.080655
H54   H     H_    0.833646 0.348154 0.529464 0.047144
H55   H     H_    0.952017 0.730652 0.248242 0.145482
H56   H     H_    0.353338 0.645112 0.470235 0.070838
H57   H     H_    0.168498 0.738142 0.236119 0.125020
H58   H     H_    0.322261 0.665593 0.586540 0.004929
H59   H     H_    0.118824 0.669397 0.557986 0.062729
N1    N     N_R   0.997978 0.488203 0.848635 -0.422691
N2    N     N_R   0.205274 0.507632 0.150500 -0.423680
O1    O     O_2   0.896730 0.461690 0.361000 -0.476849
O2    O     O_3   0.645809 0.678908 0.620170 -0.636320
O3    O     O_3   0.063659 0.740222 0.352214 -0.603173
O4    O     O_2   0.292960 0.538340 0.639040 -0.452421
O5    O     O_3   0.052540 0.537650 0.567960 -0.498307
O6    O     O_3   0.532200 0.411510 0.604930 -0.476235
O7    O     O_3   0.138246 0.651111 0.645451 -0.626481
O8    O     O_3   0.629030 0.416090 0.471500 -0.486797
O9    O     O_3   0.120120 0.375640 0.576470 -0.488455
O10   O     O_2   0.242655 0.251008 0.544075 -0.457892
O11   O     O_3   0.125540 0.263349 0.649739 -0.605734
O12   O     O_3   0.137170 0.462400 0.432040 -0.494537
O13   O     O_3   0.560670 0.583970 0.528500 -0.491438
O14   O     O_2   0.373560 0.329680 0.473470 -0.413830
O15   O     O_3   0.547259 0.307589 0.377375 -0.646496
O16   O     O_2   0.474305 0.487083 0.707091 -0.487056
O17   O     O_3   0.442969 0.349589 0.709411 -0.573021
O18   O     O_2   0.045322 0.607199 0.854314 -0.594810
O19   O     O_2   0.964789 0.369255 0.850229 -0.621908
O20   O     O_2   0.149746 0.389013 0.145253 -0.597021
O21   O     O_2   0.267670 0.624985 0.146518 -0.616004
O22   O     O_3   0.657500 0.588540 0.395070 -0.485788
O23   O     O_2   0.781178 0.541183 0.291877 -0.499447
O24   O     O_3   0.057461 0.349203 0.351732 -0.641496
O25   O     O_3   0.693984 0.671142 0.298678 -0.601244
O26   O     O_2   0.816140 0.670340 0.526560 -0.459859
O27   O     O_3   0.069580 0.624410 0.423530 -0.495866
O28   O     O_2   0.963372 0.750437 0.460458 -0.483233
P1    P     P_3+3 0.067040 0.441110 0.370020 0.982348
P2    P     P_3+3 0.640420 0.660110 0.543790 0.983887
P3    P     P_3+3 0.098029 0.716610 0.422811 0.942839
P4    P     P_3+3 0.122660 0.558950 0.629980 0.993603
P5    P     P_3+3 0.098773 0.283115 0.577664 0.988791
P6    P     P_3+3 0.645326 0.585689 0.318619 0.944778
P7    P     P_3+3 0.554613 0.327959 0.453530 0.967375
P8    P     P_3+3 0.555880 0.420418 0.681584 0.960403
O29   O     O_3   0.058583 0.295200 0.436009 -0.734342
H60   H     H_    0.076705 0.338927 0.463043 0.310341

loop_
_geom_bond_atom_site_label_1
_geom_bond_atom_site_label_2
_ccdc_geom_bond_type
C38   H56   S    
C53   C54   A    
Ba2   P4    S    
C4    H20   S    
C13   N1    Am   
C53   C57   A    
O10   P5    D    
C39   C40   A    
Ba1   O22   S    
C17   C18   A    
Ba1   O5    S    
C41   C42   A    
C7    H29   S    
C3    O15   S    
C27   P8    S    
O23   P6    D    
C51   C52   A    
C51   H52   S    
C37   H45   S    
C2    H1    S    
C49   H51   S    
O14   P7    D    
C34   C45   S    
C20   H36   S    
C24   O20   D    
C26   C27   S    
C33   C35   A    
C22   C24   A    
Ba1   Ba2   S    
O17   P8    S    
C52   P5    S    
C28   C29   D    
C7    O17   S    
C41   C50   S    
C5    H24   S    
C8    H32   S    
C56   C58   S    
C13   C14   A    
C2    O25   S    
C44   C50   A    
Ba2   O6    S    
C47   C55   S    
C54   C55   A    
Ba1   P1    S    
C16   C17   A    
O28   P3    D    
C40   C41   A    
O26   P2    D    
C54   H46   S    
O5    P4    S    
C53   P7    S    
O11   P5    S    
C42   H53   S    
C14   C15   A    
C10   C15   A    
C9    H43   S    
Ba2   O9    S    
C21   C22   A    
Ba1   O26   S    
O7    P4    S    
C11   O18   D    
C3    H17   S    
Ba1   O13   S    
C7    C8    S    
C45   H4    S    
C36   N2    S    
Ba2   O4    S    
C59   H9    S    
C46   H47   S    
O1    P1    D    
O16   P8    D    
C4    H19   S    
C60   H14   S    
C1    H11   S    
C23   H57   S    
C7    H30   S    
C23   H23   S    
O2    P2    S    
Ba2   O8    S    
C39   P2    S    
C52   C57   A    
C38   C43   A    
C44   C46   A    
C49   C50   A    
C29   H40   S    
C30   N1    S    
C26   C30   D    
C5    O11   S    
O4    P4    D    
C45   H2    S    
C25   N2    Am   
C56   O24   S    
C57   H54   S    
C8    H31   S    
C48   C49   A    
C8    H34   S    
C15   C19   A    
C14   C20   A    
C6    H26   S    
C16   H39   S    
O8    P7    S    
C40   H49   S    
C35   C36   A    
C34   O7    S    
C13   O19   D    
O22   P6    S    
O15   P7    S    
C29   C30   S    
C58   H8    S    
C27   C37   S    
C48   H50   S    
C31   C32   A    
Ba1   O27   S    
C10   C11   A    
C3    H18   S    
Ba1   P2    S    
C17   H37   S    
C24   N2    Am   
O3    P3    S    
C59   H10   S    
O13   P2    S    
C38   C39   A    
C21   H35   S    
C44   H48   S    
C60   H13   S    
C6    H28   S    
C33   P1    S    
C1    C2    S    
C12   H33   S    
O6    P8    S    
C42   C43   A    
C28   P4    S    
C51   C55   A    
C4    H21   S    
Ba2   O14   S    
C9    C32   A    
Ba2   O12   S    
Ba1   O8    S    
C23   H55   S    
C35   H42   S    
C43   P3    S    
C18   C25   A    
C31   C36   A    
C12   O3    S    
C31   H38   S    
O29   H60   S    
C9    C33   A    
O24   P1    S    
Ba1   O1    S    
C2    H15   S    
C56   O29   S    
C11   N1    Am   
C26   H41   S    
C25   O21   D    
C3    C4    S    
C58   H7    S    
C46   C47   A    
O9    P5    S    
C28   C37   D    
C34   H59   S    
O25   P6    S    
C12   C23   S    
C59   C60   S    
C34   H58   S    
Ba2   O13   S    
C5    C6    S    
C32   P6    S    
C56   H5    S    
C12   H44   S    
C5    H25   S    
C18   C19   A    
C58   H6    S    
C47   C48   A    
O27   P3    S    
C19   C22   A    
C10   C16   A    
C1    H22   S    
C20   C21   A    
C60   H12   S    
C59   O2    S    
C6    H27   S    
Ba1   O12   S    
C1    H16   S    
C45   H3    S    
O12   P1    S    
Ba2   O5    S    
