data_mof_unit_55206.cif
_audit_creation_date              2012-12-10T17:42:12-0500
_audit_creation_method            fapswitch 2.2
_symmetry_space_group_name_H-M    P1
_symmetry_Int_Tables_number       1
_space_group_crystal_system       triclinic
_cell_length_a                    15.07604
_cell_length_b                    13.689281
_cell_length_c                    10.737556
_cell_angle_alpha                 89.842591
_cell_angle_beta                  89.866763
_cell_angle_gamma                 90.008155
_cell_volume                      2216.00401661

loop_
_atom_site_label
_atom_site_type_symbol
_atom_type_description
_atom_site_fract_x
_atom_site_fract_y
_atom_site_fract_z
_atom_type_partial_charge
C1    C     C_R   0.328464 0.499990 0.501478 0.813133
C2    C     C_3   0.500163 0.606482 0.929334 -0.343876
C3    C     C_R   0.814693 0.411190 0.499471 -0.257844
C4    C     C_R   0.768329 0.499932 0.504756 -0.074968
C5    C     C_R   0.814633 0.588496 0.514259 -0.252494
C6    C     C_R   0.907031 0.589006 0.516837 0.107375
C7    C     C_R   0.953487 0.499706 0.510010 0.062363
C8    C     C_R   0.907062 0.410463 0.501840 0.110197
C9    C     C_R   0.953732 0.677282 0.525201 -0.218048
C10   C     C_R   0.046224 0.677268 0.525484 -0.217689
C11   C     C_R   0.092933 0.588981 0.517371 0.107456
C12   C     C_R   0.499972 0.500271 0.259695 0.783692
C13   C     C_R   0.046475 0.499693 0.510281 0.062166
C14   C     C_R   0.092907 0.410438 0.502383 0.109931
C15   C     C_R   0.046218 0.322079 0.495521 -0.218173
C16   C     C_R   0.953750 0.322093 0.495232 -0.218492
C17   C     C_R   0.185343 0.588455 0.515149 -0.250260
C18   C     C_R   0.231654 0.499894 0.505575 -0.074433
C19   C     C_R   0.185287 0.411148 0.500375 -0.258077
C20   C     C_R   0.443219 0.793088 0.576981 0.000795
C21   C     C_R   0.443184 0.206562 0.576929 -0.000633
C22   C     C_R   0.556670 0.793459 0.423011 0.000048
C23   C     C_R   0.556724 0.206882 0.423091 0.001605
C24   C     C_R   0.558035 0.896542 0.421206 -0.004486
C25   C     C_R   0.558063 0.103806 0.421249 -0.004943
C26   C     C_R   0.671523 0.500003 0.501051 0.809827
C27   C     C_R   0.499953 0.948163 0.500039 0.087240
C28   C     C_R   0.499954 0.051828 0.500041 0.087304
C29   C     C_R   0.441874 0.896172 0.578862 -0.003880
C30   C     C_R   0.441854 0.103463 0.578834 -0.004011
C31   C     C_R   0.615828 0.949006 0.342798 -0.208867
C32   C     C_R   0.615851 0.051698 0.342833 -0.209814
C33   C     C_R   0.384093 0.050988 0.657292 -0.209892
C34   C     C_R   0.384109 0.948283 0.657316 -0.209505
C35   C     C_R   0.500051 0.499963 0.740094 0.783318
C36   C     C_3   0.414899 0.449282 0.073439 -0.402505
C37   C     C_3   0.584801 0.448693 0.073016 -0.410322
C38   C     C_3   0.416644 0.442897 0.929265 -0.028832
C39   C     C_3   0.583317 0.442705 0.928814 -0.025948
C40   C     C_3   0.500321 0.606840 0.071465 -0.386776
C41   C     C_3   0.499992 0.500798 0.121940 0.096155
C42   C     C_3   0.500052 0.499696 0.877573 0.133606
Cu1   Cu    Cu3+1 0.499990 0.597420 0.500010 0.923610
Cu2   Cu    Cu3+1 0.499990 0.402580 0.500010 0.919992
H1    H     H_    0.355357 0.489678 0.106411 0.173840
H2    H     H_    0.644572 0.488452 0.106074 0.171468
H3    H     H_    0.081216 0.746257 0.531259 0.141485
H4    H     H_    0.221063 0.657082 0.520344 0.152891
H5    H     H_    0.220938 0.342560 0.493706 0.154210
H6    H     H_    0.081209 0.253094 0.489646 0.141521
H7    H     H_    0.918763 0.253117 0.489152 0.141122
H8    H     H_    0.399065 0.751972 0.637092 0.118655
H9    H     H_    0.399008 0.247418 0.637003 0.119246
H10   H     H_    0.600838 0.752632 0.362914 0.122846
H11   H     H_    0.600952 0.247973 0.363069 0.122392
H12   H     H_    0.661013 0.910642 0.281456 0.133410
H13   H     H_    0.661056 0.090340 0.281520 0.132727
H14   H     H_    0.338902 0.089356 0.718625 0.132613
H15   H     H_    0.338934 0.909630 0.718667 0.133440
H16   H     H_    0.410139 0.374247 0.113204 0.154972
H17   H     H_    0.588911 0.373511 0.112461 0.147893
H18   H     H_    0.427744 0.364127 0.908194 0.108502
H19   H     H_    0.572181 0.364008 0.907418 0.114139
H20   H     H_    0.440922 0.647114 0.105696 0.174294
H21   H     H_    0.560053 0.646634 0.105134 0.165935
H22   H     H_    0.442774 0.649008 0.895893 0.171586
H23   H     H_    0.557509 0.648958 0.895260 0.177089
H24   H     H_    0.779049 0.342611 0.492616 0.152837
H25   H     H_    0.778917 0.657130 0.519282 0.154468
H26   H     H_    0.918738 0.746280 0.530777 0.141811
N1    N     N_R   0.499930 0.743810 0.499950 -0.181221
N2    N     N_R   0.499930 0.256190 0.499950 -0.180491
O1    O     O_R   0.370250 0.582280 0.500040 -0.586892
O2    O     O_R   0.370250 0.417720 0.500040 -0.591401
O3    O     O_R   0.499970 0.582270 0.317700 -0.589240
O4    O     O_R   0.499970 0.417730 0.317700 -0.586901
O5    O     O_R   0.629730 0.582260 0.499980 -0.588450
O6    O     O_R   0.629730 0.417740 0.499980 -0.592233
O7    O     O_R   0.500000 0.582270 0.682320 -0.590463
O8    O     O_R   0.500000 0.417730 0.682320 -0.607326
C43   C     C_3   0.324652 0.460987 0.867634 -0.391283
C44   C     C_3   0.289627 0.565649 0.867929 -0.828219
H27   H     H_    0.298890 0.600870 0.959872 0.248420
H28   H     H_    0.321922 0.608960 0.793026 0.237753
H29   H     H_    0.217502 0.564713 0.847122 0.242216
H30   H     H_    0.326347 0.435001 0.769704 0.195663
H31   H     H_    0.275115 0.414225 0.916354 0.202326
C45   C     C_3   0.675452 0.460908 0.867056 -0.388430
C46   C     C_3   0.710827 0.565431 0.868390 -0.825187
H32   H     H_    0.679165 0.609189 0.793593 0.247345
H33   H     H_    0.701083 0.600298 0.960511 0.246284
H34   H     H_    0.783082 0.564323 0.848024 0.242054
H35   H     H_    0.724757 0.413663 0.915138 0.202007
H36   H     H_    0.673855 0.435573 0.768866 0.203235

loop_
_geom_bond_atom_site_label_1
_geom_bond_atom_site_label_2
_ccdc_geom_bond_type
Cu1   O1    S    
C33   H14   S    
C27   C29   A    
C3    H24   S    
C17   H4    S    
C6    C9    A    
C43   C44   S    
C7    C8    A    
C22   H10   S    
C25   C28   A    
C1    C18   S    
C26   O6    A    
C1    O2    A    
C32   H13   S    
C38   C42   S    
C5    C6    A    
Cu1   O7    S    
C15   C16   A    
C35   O8    A    
C18   C19   A    
C15   H6    S    
C35   O7    A    
Cu2   O4    S    
C35   C42   S    
C5    H25   S    
C24   C27   A    
C20   N1    A    
C31   H12   S    
C46   H33   S    
C9    C10   A    
C43   H30   S    
C25   C32   A    
C8    C16   A    
C13   C14   A    
C36   C41   S    
C39   C45   S    
C23   N2    A    
C33   C34   A    
C39   C42   S    
C20   C29   A    
Cu1   O3    S    
C45   H36   S    
C26   O5    A    
C21   N2    A    
Cu2   O8    S    
C9    H26   S    
C3    C8    A    
C36   H16   S    
C29   C34   A    
Cu1   Cu2   S    
C12   C41   S    
C19   H5    S    
C4    C26   S    
C31   C32   A    
C17   C18   A    
C36   H1    S    
C46   H34   S    
Cu2   O2    S    
C43   H31   S    
C40   C41   S    
C2    H23   S    
C44   H28   S    
C40   H21   S    
C12   O4    A    
C38   C43   S    
C34   H15   S    
C22   C24   A    
C3    C4    A    
C22   N1    A    
C10   H3    S    
C45   H35   S    
C11   C17   A    
C16   H7    S    
Cu1   N1    S    
C30   C33   A    
C14   C19   A    
C4    C5    A    
C2    H22   S    
C37   H17   S    
C23   H11   S    
C6    C7    A    
Cu1   O5    S    
C44   H29   S    
C39   H19   S    
C21   C30   A    
C40   H20   S    
C1    O1    A    
Cu2   O6    S    
C46   H32   S    
C24   C31   A    
C28   C30   A    
C37   C39   S    
C21   H9    S    
C11   C13   A    
C2    C42   S    
C36   C38   S    
Cu2   N2    S    
C23   C25   A    
C37   C41   S    
C10   C11   A    
C2    C40   S    
C7    C13   A    
C45   C46   S    
C20   H8    S    
C44   H27   S    
C12   O3    A    
C27   C28   A    
C14   C15   A    
C37   H2    S    
C38   H18   S    
