data_mof_unit_17559.cif
_audit_creation_date              2013-03-05T16:41:05-0500
_audit_creation_method            fapswitch 2.2
_symmetry_space_group_name_H-M    P1
_symmetry_Int_Tables_number       1
_space_group_crystal_system       triclinic
_cell_length_a                    8.576527
_cell_length_b                    10.664905
_cell_length_c                    9.897574
_cell_angle_alpha                 89.783276
_cell_angle_beta                  98.745292
_cell_angle_gamma                 90.458891
_cell_volume                      894.752934951

loop_
_atom_site_label
_atom_site_type_symbol
_atom_site_description
_atom_site_fract_x
_atom_site_fract_y
_atom_site_fract_z
_atom_type_partial_charge
O1    O     O_R   0.500020 0.316790 0.614690 -0.624617
O2    O     O_R   0.500000 0.316760 0.385350 -0.576378
C1    C     C_R   0.506800 0.260089 0.501136 0.850660
O3    O     O_R   0.271760 0.500010 0.587850 -0.612495
O4    O     O_R   0.271740 0.499970 0.358500 -0.621276
C2    C     C_R   0.201256 0.499862 0.464078 0.955197
Zn1   Zn    Zn3+2 0.500010 0.500020 0.653130 0.999421
Zn2   Zn    Zn3+2 0.499990 0.499980 0.346870 0.975323
O5    O     O_R   0.500000 0.683240 0.614650 -0.582598
O6    O     O_R   0.499980 0.683210 0.385310 -0.631650
O7    O     O_R   0.728260 0.500030 0.641500 -0.571769
O8    O     O_R   0.728240 0.499990 0.412150 -0.633292
C3    C     C_R   0.505757 0.739987 0.500494 0.884563
C4    C     C_R   0.798720 0.501060 0.535810 0.975020
C5    C     C_2   0.035894 0.498265 0.444813 -0.406735
H1    H     H_    0.973910 0.490217 0.340782 0.182813
C6    C     C_2   0.963969 0.504884 0.554599 -0.352675
H2    H     H_    0.025892 0.514328 0.658285 0.202230
C7    C     C_R   0.537036 0.063295 0.627614 0.137150
C8    C     C_R   0.535193 0.128895 0.505510 -0.115654
C9    C     C_R   0.565217 0.065770 0.388051 -0.223749
H3    H     H_    0.577431 0.115381 0.294491 0.204932
C10   C     C_R   0.563928 0.936022 0.387344 -0.240605
H4    H     H_    0.575126 0.887564 0.293339 0.180084
C11   C     C_R   0.533550 0.871411 0.504387 -0.103056
C12   C     C_R   0.536106 0.935413 0.626911 0.193444
C13   C     C_3   0.426612 0.926718 0.730516 -0.456570
C14   C     C_3   0.427733 0.068708 0.731547 -0.518305
H5    H     H_    0.309807 0.885507 0.688463 0.203911
H6    H     H_    0.484222 0.884839 0.828360 0.226071
H7    H     H_    0.311387 0.109956 0.690329 0.203599
H8    H     H_    0.486662 0.108281 0.830138 0.217225
C15   C     C_R   0.364082 0.477540 0.053095 0.166427
N1    N     N_R   0.498950 0.499140 0.142680 -0.112223
C16   C     C_R   0.629391 0.536638 0.089763 -0.203924
H9    H     H_    0.733485 0.566263 0.158236 0.179332
C17   C     C_R   0.629309 0.539396 0.946183 0.335424
N2    N     N_R   0.498950 0.499180 0.857030 -0.154697
C18   C     C_R   0.364287 0.476957 0.911254 0.099092
C19   C     C_3   0.261904 0.362882 0.892942 -0.557529
C20   C     C_3   0.258375 0.365142 0.046601 0.311988
H10   H     H_    0.144721 0.381576 0.832194 0.192738
H11   H     H_    0.324156 0.281300 0.858262 0.213907
H12   H     H_    0.141760 0.388951 0.075725 0.116702
N3    N     N_R   0.764931 0.589297 0.896612 0.218933
O9    O     O_R   0.752205 0.692521 0.825604 -0.395882
O10   O     O_R   0.904714 0.551159 0.949612 -0.473585
O11   O     O_3   0.335055 0.261364 0.116027 -0.609237
C21   C     C_3   0.228466 0.159196 0.115308 0.084846
H13   H     H_    0.298717 0.071731 0.121121 0.167382
H14   H     H_    0.142397 0.153259 0.018837 0.133657
C22   C     C_3   0.141521 0.164033 0.239795 -0.348281
H15   H     H_    0.228377 0.170188 0.334766 0.231458
H16   H     H_    0.065449 0.248259 0.234012 0.208231
C23   C     C_3   0.038738 0.047575 0.247830 -0.931444
H17   H     H_    0.949382 0.039547 0.154349 0.269925
H18   H     H_    0.976410 0.054508 0.337993 0.266726
H19   H     H_    0.112798 0.962029 0.258875 0.269813

loop_
_geom_bond_atom_site_label_1
_geom_bond_atom_site_label_2
_geom_bond_distance
_ccdc_geom_bond_type
O1    C1    1.287557 A    
O4    Zn2   1.978367 S    
C23   H17   1.111142 S    
C5    C6    1.330922 D    
C17   N2    1.381211 A    
C13   H5    1.112441 S    
C16   H9    1.081330 S    
C22   C23   1.526118 S    
Zn2   O8    1.965963 S    
C21   C22   1.535352 S    
C15   C20   1.492794 S    
C19   H11   1.106937 S    
C19   H10   1.109001 S    
C15   N1    1.364773 A    
C11   C12   1.391027 A    
C1    C8    1.421491 S    
N3    O10   1.301085 A    
O7    C4    1.285146 A    
Zn2   N1    2.019702 S    
C9    H3    1.083203 S    
C22   H15   1.108849 S    
C13   H6    1.111844 S    
Zn1   O7    1.978367 S    
C7    C14   1.494957 S    
C4    C6    1.401372 S    
C3    C11   1.419543 S    
C12   C13   1.494214 S    
C15   C18   1.404187 A    
O3    Zn1   1.965964 S    
O3    C2    1.281061 A    
O11   C21   1.416021 S    
C16   C17   1.421187 A    
C20   O11   1.413557 S    
C22   H16   1.110619 S    
C6    H2    1.086076 S    
O2    C1    1.287249 A    
C23   H18   1.110761 S    
C9    C10   1.383742 A    
O4    C2    1.284309 A    
N1    C16   1.362063 A    
C20   H12   1.113624 S    
C10   H4    1.083334 S    
C17   N3    1.427774 S    
C5    H1    1.087956 S    
C18   C19   1.490027 S    
C14   H8    1.111526 S    
C10   C11   1.402691 A    
N2    C18   1.364265 A    
C8    C9    1.403861 A    
Zn2   O6    1.992239 S    
C21   H13   1.111089 S    
C23   H19   1.111381 S    
C13   C14   1.514329 S    
Zn1   O5    1.989378 S    
C7    C12   1.363850 A    
O5    C3    1.287094 A    
C19   C20   1.526025 S    
O1    Zn1   1.992240 S    
C2    C5    1.401940 S    
N3    O9    1.300203 A    
Zn1   N2    2.019502 S    
C14   H7    1.112440 S    
O2    Zn2   1.989377 S    
C7    C8    1.392205 A    
O8    C4    1.280068 A    
C21   H14   1.116233 S    
O6    C3    1.287006 A    
