data_mof_unit_8109.cif
_audit_creation_date              2013-03-05T16:06:47-0500
_audit_creation_method            fapswitch 2.2
_symmetry_space_group_name_H-M    P1
_symmetry_Int_Tables_number       1
_space_group_crystal_system       triclinic
_cell_length_a                    10.979569
_cell_length_b                    9.478264
_cell_length_c                    19.533344
_cell_angle_alpha                 90.000394
_cell_angle_beta                  90.21155
_cell_angle_gamma                 89.998932
_cell_volume                      2032.76760697

loop_
_atom_site_label
_atom_site_type_symbol
_atom_site_description
_atom_site_fract_x
_atom_site_fract_y
_atom_site_fract_z
_atom_type_partial_charge
O1    O     O_R   0.319640 0.618740 0.500000 -0.543967
O2    O     O_R   0.680360 0.381260 0.500000 -0.558685
O3    O     O_R   0.680360 0.618740 0.500000 -0.543839
O4    O     O_R   0.319640 0.381260 0.500000 -0.558765
C1    C     C_R   0.871887 0.500406 0.499383 -0.360271
C2    C     C_R   0.128112 0.500409 0.500640 -0.359617
C3    C     C_R   0.261970 0.500056 0.500188 0.953472
C4    C     C_R   0.738029 0.500055 0.499827 0.954209
O5    O     O_R   0.500020 0.618830 0.400190 -0.533726
O6    O     O_R   0.499980 0.381170 0.599810 -0.565990
O7    O     O_R   0.499980 0.618830 0.599810 -0.533624
O8    O     O_R   0.500020 0.381170 0.400190 -0.566181
C5    C     C_R   0.500931 0.499647 0.367482 0.907110
C6    C     C_R   0.499091 0.499649 0.632519 0.908284
Cu1   Cu    Cu3+1 0.500000 0.640660 0.500000 1.125606
Cu2   Cu    Cu3+1 0.500000 0.359340 0.500000 1.101195
H1    H     H_    0.354566 0.130969 0.428936 0.172592
H2    H     H_    0.649606 0.869144 0.567922 0.222242
H3    H     H_    0.645439 0.130964 0.571059 0.172718
H4    H     H_    0.350413 0.869145 0.432069 0.222117
C7    C     C_R   0.063193 0.371646 0.498970 0.205204
C8    C     C_R   0.936651 0.629527 0.498311 0.252872
C9    C     C_R   0.936810 0.371650 0.501143 0.205053
C10   C     C_R   0.063340 0.629533 0.501613 0.253385
C11   C     C_R   0.413757 0.405980 0.742992 0.375236
C12   C     C_R   0.419560 0.577621 0.252186 0.312583
C13   C     C_R   0.586480 0.406158 0.257025 0.375736
C14   C     C_R   0.580396 0.577805 0.747806 0.313963
C15   C     C_R   0.418088 0.395531 0.814341 -0.199906
C16   C     C_R   0.420657 0.567500 0.180835 -0.183242
C17   C     C_R   0.582233 0.395746 0.185672 -0.199940
C18   C     C_R   0.579382 0.567637 0.819158 -0.183771
H5    H     H_    0.356601 0.324724 0.840580 0.192454
H6    H     H_    0.359627 0.632664 0.150778 0.191901
H7    H     H_    0.643850 0.325078 0.159440 0.192437
H8    H     H_    0.640313 0.632937 0.849208 0.191984
C19   C     C_R   0.499933 0.476080 0.852650 -0.041345
C20   C     C_R   0.500286 0.476135 0.147352 -0.041340
C21   C     C_R   0.418597 0.074552 0.460864 0.107177
C22   C     C_R   0.582680 0.925556 0.538187 0.110597
C23   C     C_R   0.581407 0.074550 0.539133 0.107339
C24   C     C_R   0.417327 0.925558 0.461808 0.110340
C25   C     C_R   0.496937 0.496358 0.708364 -0.269958
C26   C     C_R   0.503132 0.496355 0.291640 -0.270076
C27   C     C_R   0.610460 0.466989 0.964539 -0.148455
C28   C     C_R   0.389787 0.466756 0.035464 -0.148479
C29   C     C_R   0.610572 0.467296 0.035846 -0.141972
C30   C     C_R   0.389674 0.467031 0.964158 -0.142006
H9    H     H_    0.696742 0.466458 0.937844 0.156705
H10   H     H_    0.303505 0.466039 0.062157 0.156730
H11   H     H_    0.696962 0.469987 0.062747 0.158428
H12   H     H_    0.303279 0.469519 0.937258 0.158386
N1    N     N_R   0.500000 0.852070 0.500000 -0.223342
N2    N     N_R   0.500000 0.147930 0.500000 -0.199873
C31   C     C_R   0.500218 0.468483 0.071913 0.135334
C32   C     C_R   0.500025 0.468447 0.928090 0.135419
N3    N     N_R   0.123631 0.238184 0.493262 0.171104
O9    O     O_R   0.157113 0.171215 0.548314 -0.211679
O10   O     O_R   0.120448 0.171193 0.435174 -0.289123
N4    N     N_R   0.875422 0.763099 0.494879 0.179375
O11   O     O_R   0.831568 0.806868 0.436655 -0.253084
O12   O     O_R   0.884067 0.850991 0.545820 -0.221161
N5    N     N_R   0.876373 0.238202 0.506915 0.171056
O13   O     O_R   0.842906 0.171119 0.451892 -0.211782
O14   O     O_R   0.879555 0.171332 0.565035 -0.289204
N6    N     N_R   0.124563 0.763119 0.504903 0.179343
O15   O     O_R   0.168356 0.807184 0.563089 -0.253418
O16   O     O_R   0.115938 0.850761 0.453860 -0.220747
S1    S     S_3+6 0.295760 0.313025 0.700179 0.069469
O17   O     O_2   0.348354 0.193798 0.659097 -0.200429
O18   O     O_2   0.206937 0.253382 0.751003 -0.261649
O19   O     O_3   0.222108 0.425412 0.647983 -0.544614
H13   H     H_    0.136038 0.394141 0.648142 0.387190
S2    S     S_3+6 0.311885 0.694513 0.288415 0.048079
O20   O     O_2   0.376409 0.828695 0.307296 -0.244528
O21   O     O_2   0.212886 0.728802 0.237687 -0.239213
O22   O     O_3   0.247929 0.623841 0.358333 -0.532126
H14   H     H_    0.210247 0.534774 0.342279 0.332735
S3    S     S_3+6 0.704539 0.313358 0.299865 0.069504
O23   O     O_2   0.652028 0.194147 0.340989 -0.200640
O24   O     O_2   0.793399 0.253719 0.249059 -0.261470
O25   O     O_3   0.778127 0.425879 0.352017 -0.544313
H15   H     H_    0.864136 0.394370 0.352046 0.387342
S4    S     S_3+6 0.687739 0.695080 0.711567 0.047359
O26   O     O_2   0.622859 0.829042 0.692696 -0.244428
O27   O     O_2   0.786673 0.729735 0.762278 -0.240200
O28   O     O_3   0.751822 0.624613 0.641633 -0.533340
H16   H     H_    0.791935 0.537148 0.657965 0.334153

loop_
_geom_bond_atom_site_label_1
_geom_bond_atom_site_label_2
_geom_bond_distance
_ccdc_geom_bond_type
N6    O16   1.300930 A    
O28   H16   0.990942 S    
N5    O14   1.300580 A    
C14   S4    1.769727 S    
S4    O28   1.677579 S    
C20   C31   1.475359 S    
C11   C25   1.424790 A    
C12   C26   1.422660 A    
O22   H14   0.990578 S    
S2    O21   1.503665 D    
C18   H8    1.082716 S    
S4    O27   1.503695 D    
C13   S3    1.773732 S    
C24   N1    1.364049 A    
C8    N4    1.434893 S    
O7    C6    1.297851 A    
N3    O10   1.300584 A    
C21   N2    1.364513 A    
Cu1   Cu2   2.666425 S    
C15   H5    1.082332 S    
C16   C20   1.395085 A    
N4    O12   1.300929 A    
H1    C21   1.079763 S    
S1    O18   1.504471 D    
O5    C5    1.297850 A    
H2    C22   1.077047 S    
C19   C32   1.475365 S    
O7    Cu1   1.960572 S    
C13   C26   1.424788 A    
C1    C8    1.415629 A    
O8    Cu2   1.960574 S    
C27   C32   1.403898 A    
S2    O22   1.677547 S    
C28   C31   1.403893 A    
O1    Cu1   1.991148 S    
O2    Cu2   1.991148 S    
C10   N6    1.434879 S    
C9    N5    1.432991 S    
N6    O15   1.301302 A    
O4    C3    1.291807 A    
C21   C24   1.412395 A    
C27   C29   1.392855 A    
C11   C15   1.397838 A    
C28   C30   1.392833 A    
S2    O20   1.501173 D    
C16   H6    1.082717 S    
C13   C17   1.397856 A    
C14   C18   1.397148 A    
S4    O26   1.501188 D    
O3    C4    1.290888 A    
O6    C6    1.292063 A    
S3    O24   1.504465 D    
C29   H11   1.082946 S    
C2    C7    1.413673 A    
O25   H15   0.990442 S    
S3    O23   1.502605 D    
N4    O11   1.301303 A    
O4    Cu2   1.991140 S    
S1    O19   1.679891 S    
C7    N3    1.433001 S    
C1    C4    1.469761 S    
C1    C9    1.413662 A    
C27   H9    1.083060 S    
C2    C10   1.415638 A    
C18   C19   1.395089 A    
C22   C23   1.412390 A    
C12   C16   1.397132 A    
C7    C9    1.388444 A    
C8    C10   1.392243 A    
C11   S1    1.773735 S    
Cu1   N1    2.003800 S    
O3    Cu1   1.991140 S    
C29   C31   1.403874 A    
C30   C32   1.403873 A    
O1    C3    1.290898 A    
O2    C4    1.291809 A    
O19   H13   0.990429 S    
S3    O25   1.679859 S    
H4    C24   1.077030 S    
C2    C3    1.469775 S    
C28   H10   1.083059 S    
C14   C25   1.422688 A    
C17   C20   1.394769 A    
O5    Cu1   1.960571 S    
O6    Cu2   1.960569 S    
N3    O9    1.300588 A    
C12   S2    1.769771 S    
C17   H7    1.082328 S    
S1    O17   1.502609 D    
Cu2   N2    2.003801 S    
C23   N2    1.364509 A    
N5    O13   1.300593 A    
C30   H12   1.082947 S    
O8    C5    1.292043 A    
C22   N1    1.364054 A    
C15   C19   1.394771 A    
C5    C26   1.482067 S    
H3    C23   1.079756 S    
C6    C25   1.482107 S    
