data_mof_unit_45849.cif
_audit_creation_date              2012-12-10T17:47:03-0500
_audit_creation_method            fapswitch 2.2
_symmetry_space_group_name_H-M    P1
_symmetry_Int_Tables_number       1
_space_group_crystal_system       triclinic
_cell_length_a                    10.050006
_cell_length_b                    10.702874
_cell_length_c                    13.614017
_cell_angle_alpha                 92.251421
_cell_angle_beta                  83.728498
_cell_angle_gamma                 89.959026
_cell_volume                      1454.47159991

loop_
_atom_site_label
_atom_site_type_symbol
_atom_type_description
_atom_site_fract_x
_atom_site_fract_y
_atom_site_fract_z
_atom_type_partial_charge
C1    C     C_R   0.500963 0.739361 0.491412 0.904833
C2    C     C_1   0.459733 0.499186 0.788447 -0.073682
C3    C     C_R   0.263106 0.894433 0.447723 0.447675
C4    C     C_R   0.140676 0.956224 0.474206 -0.402813
C5    C     C_R   0.132979 0.061998 0.538061 0.483523
C6    C     C_R   0.249059 0.112679 0.570494 0.393378
C7    C     C_R   0.374136 0.061280 0.530910 -0.167153
C8    C     C_R   0.379127 0.940844 0.486933 -0.071123
C9    C     C_R   0.501539 0.874026 0.483105 -0.099748
C10   C     C_R   0.621522 0.937957 0.494038 0.450031
C11   C     C_R   0.615148 0.064552 0.517513 -0.235781
C12   C     C_R   0.476514 0.500325 0.685023 0.826013
C13   C     C_R   0.494412 0.128104 0.527657 -0.158973
C14   C     C_R   0.842257 0.657408 0.635417 -0.043701
C15   C     C_R   0.902361 0.736051 0.701238 -0.057506
C16   C     C_R   0.040124 0.735039 0.701687 -0.170801
C17   C     C_R   0.119105 0.655860 0.635919 -0.126831
C18   C     C_R   0.062135 0.574212 0.568716 0.104825
C19   C     C_R   0.918331 0.574384 0.568629 0.168654
C20   C     C_R   0.937219 0.441897 0.427726 -0.177913
C21   C     C_R   0.078751 0.438007 0.427252 0.511987
C22   C     C_R   0.498038 0.261433 0.511217 0.918490
C23   C     C_R   0.523559 0.499363 0.314966 0.928468
C24   C     C_1   0.541379 0.497141 0.211423 -0.090898
C25   C     C_2   0.564612 0.493300 0.019619 0.415225
C26   C     C_2   0.449356 0.496108 0.979626 -0.276680
C27   C     C_1   0.449805 0.497809 0.876006 0.126270
C28   C     C_1   0.555827 0.495042 0.123734 -0.063242
H1    H     H_    0.353459 0.498348 0.025272 0.188405
H2    H     H_    0.736696 0.667997 0.635935 0.195486
H3    H     H_    0.841633 0.799934 0.751042 0.189462
H4    H     H_    0.086480 0.797975 0.751914 0.170928
H5    H     H_    0.224648 0.664287 0.636982 0.193899
H6    H     H_    0.051614 0.922671 0.443889 0.203607
H7    H     H_    0.703993 0.114530 0.527615 0.233608
H8    H     H_    0.889409 0.397711 0.368148 0.198259
N1    N     N_R   0.857120 0.501200 0.500900 -0.142588
N2    N     N_R   0.142720 0.501280 0.500940 -0.159900
O1    O     O_R   0.385310 0.683220 0.500000 -0.623302
O2    O     O_R   0.614640 0.683250 0.500010 -0.587409
O3    O     O_R   0.368830 0.499960 0.640340 -0.625548
O4    O     O_R   0.598160 0.499980 0.640350 -0.603740
O5    O     O_R   0.385360 0.316750 0.499990 -0.523907
O6    O     O_R   0.614690 0.316780 0.500000 -0.631426
O7    O     O_R   0.401840 0.500020 0.359650 -0.520946
O8    O     O_R   0.631170 0.500040 0.359660 -0.623287
Zn1   Zn    Zn3+2 0.346870 0.499980 0.499990 1.059085
Zn2   Zn    Zn3+2 0.653130 0.500020 0.500010 0.999331
S1    S     S_3+6 0.161847 0.360638 0.319140 0.071010
O9    O     O_2   0.064600 0.277846 0.271168 -0.261708
O10   O     O_2   0.209637 0.457913 0.246917 -0.311817
O11   O     O_3   0.290359 0.269651 0.340677 -0.528645
H9    H     H_    0.333074 0.241901 0.274382 0.372016
S2    S     S_3+6 0.724509 0.490391 0.950377 0.075748
O12   O     O_2   0.735420 0.377861 0.880339 -0.207161
O13   O     O_2   0.742368 0.606242 0.891532 -0.324481
O14   O     O_3   0.845428 0.483119 0.026228 -0.478322
H10   H     H_    0.842859 0.565593 0.062077 0.360076
O15   O     O_3   0.743377 0.876229 0.478482 -0.741058
H11   H     H_    0.816787 0.936623 0.482764 0.383731
O16   O     O_3   0.273967 0.799178 0.375612 -0.712973
H12   H     H_    0.183697 0.778296 0.356942 0.346332
S3    S     S_3+6 0.979459 0.139678 0.561769 0.032303
O17   O     O_2   0.886542 0.064010 0.629826 -0.327640
O18   O     O_2   0.992889 0.268632 0.607310 -0.236865
O19   O     O_3   0.923309 0.148173 0.450340 -0.590937
H13   H     H_    0.861928 0.220418 0.456209 0.373147
O20   O     O_3   0.237826 0.208012 0.642477 -0.669896
H14   H     H_    0.322777 0.213945 0.673110 0.324593

loop_
_geom_bond_atom_site_label_1
_geom_bond_atom_site_label_2
_ccdc_geom_bond_type
C26   C27   S    
C23   C24   S    
S3    O18   D    
S2    O13   D    
C15   H3    S    
C12   O3    A    
C23   O7    A    
C16   H4    S    
C24   C28   T    
C9    C10   A    
C22   O5    A    
C7    C13   A    
C10   O15   S    
S1    O11   S    
C2    C12   S    
C6    O20   S    
C17   C18   A    
C18   N2    A    
S3    O19   S    
O15   H11   S    
C23   O8    A    
O4    Zn2   S    
O11   H9    S    
C25   S2    S    
N1    Zn2   S    
C21   N2    A    
C20   N1    A    
C11   C13   A    
N2    Zn1   S    
C2    C27   T    
C17   H5    S    
C14   H2    S    
C5    C6    A    
C14   C19   A    
C21   S1    S    
C13   C22   S    
O19   H13   S    
C6    C7    A    
O14   H10   S    
O7    Zn1   S    
C4    H6    S    
O3    Zn1   S    
O16   H12   S    
O8    Zn2   S    
C16   C17   A    
C10   C11   A    
C1    O1    A    
C3    O16   S    
C15   C16   A    
C20   H8    S    
O6    Zn2   S    
C7    C8    A    
C1    C9    S    
C20   C21   A    
C5    S3    S    
C26   H1    S    
O1    Zn1   S    
C3    C8    A    
S1    O9    D    
O2    Zn2   S    
C14   C15   A    
C18   C19   A    
C12   O4    A    
C19   N1    A    
C1    O2    A    
S1    O10   D    
C25   C26   D    
S2    O12   D    
C4    C5    A    
O5    Zn1   S    
C11   H7    S    
O20   H14   S    
C22   O6    A    
C3    C4    A    
S3    O17   D    
C8    C9    A    
C25   C28   S    
S2    O14   S    
