data_mof_unit_55623.cif
_audit_creation_date              2012-12-11T14:58:25-0500
_audit_creation_method            fapswitch 2.2
_symmetry_space_group_name_H-M    P1
_symmetry_Int_Tables_number       1
_space_group_crystal_system       triclinic
_cell_length_a                    10.955305
_cell_length_b                    11.014351
_cell_length_c                    18.801281
_cell_angle_alpha                 90.531289
_cell_angle_beta                  90.431637
_cell_angle_gamma                 59.588846
_cell_volume                      1956.43837377

loop_
_atom_site_label
_atom_site_type_symbol
_atom_type_description
_atom_site_fract_x
_atom_site_fract_y
_atom_site_fract_z
_atom_type_partial_charge
C1    C     C_R   0.359062 0.772289 0.397822 0.540902
C2    C     C_R   0.602134 0.093581 0.175729 0.035506
C3    C     C_R   0.353543 0.316993 0.167036 0.004812
C4    C     C_R   0.460900 0.216546 0.279911 -0.148229
C5    C     C_R   0.468212 0.210111 0.206765 -0.028633
C6    C     C_R   0.072140 0.703575 0.283930 -0.076797
C7    C     C_R   0.954739 0.821379 0.313482 -0.097689
C8    C     C_R   0.614467 0.966057 0.154038 -0.028975
C9    C     C_R   0.740234 0.858782 0.123262 -0.002871
C10   C     C_R   0.242186 0.431788 0.202437 -0.156363
C11   C     C_R   0.238962 0.442171 0.276332 -0.032238
C12   C     C_R   0.382862 0.352420 0.389105 0.533908
C13   C     C_R   0.879171 0.804947 0.368273 -0.110706
C14   C     C_R   0.921110 0.670674 0.393794 -0.103002
C15   C     C_R   0.038072 0.552374 0.364214 -0.049055
C16   C     C_R   0.115654 0.567597 0.309253 0.060149
C17   C     C_R   0.351959 0.333219 0.315570 -0.004281
C18   C     C_R   0.957105 0.297156 0.308449 -0.157414
C19   C     C_R   0.986872 0.289209 0.236384 -0.128639
C20   C     C_R   0.876831 0.336352 0.186332 0.026702
C21   C     C_R   0.736236 0.406425 0.207806 -0.178193
C22   C     C_R   0.706491 0.410601 0.279612 -0.130718
C23   C     C_R   0.778146 0.378224 0.403361 0.533019
C24   C     C_R   0.816943 0.355465 0.329662 0.043547
C25   C     C_R   0.472586 0.763471 0.284579 -0.132028
C26   C     C_R   0.459852 0.783177 0.211533 -0.172291
C27   C     C_R   0.328399 0.876816 0.182627 0.024250
C28   C     C_R   0.209849 0.948206 0.227316 -0.136879
C29   C     C_R   0.220346 0.922512 0.299244 -0.149997
C30   C     C_R   0.351118 0.827412 0.327744 0.032866
C31   C     C_R   0.390042 0.197975 0.693373 -0.135063
C32   C     C_R   0.380772 0.185233 0.765480 -0.121680
C33   C     C_R   0.297211 0.304787 0.807869 0.036541
C34   C     C_R   0.344307 0.768906 0.604764 0.545720
C35   C     C_R   0.213204 0.436040 0.776376 -0.137479
C36   C     C_R   0.224222 0.449394 0.703620 -0.127872
C37   C     C_R   0.318637 0.331015 0.662801 0.030070
C38   C     C_R   0.742884 0.474926 0.732087 -0.121760
C39   C     C_R   0.754041 0.461608 0.804959 -0.129445
C40   C     C_R   0.815176 0.328261 0.835626 0.030621
C41   C     C_R   0.849122 0.210029 0.792662 -0.127702
C42   C     C_R   0.832646 0.224503 0.718959 -0.133606
C43   C     C_R   0.785091 0.356552 0.688260 0.035722
C44   C     C_R   0.202628 0.828188 0.713744 -0.136826
C45   C     C_R   0.368037 0.350557 0.595095 0.545698
C46   C     C_R   0.195569 0.838085 0.786942 -0.140268
C47   C     C_R   0.303434 0.841826 0.825368 0.035801
C48   C     C_R   0.420884 0.830732 0.789746 -0.144733
C49   C     C_R   0.427410 0.821912 0.716319 -0.147684
C50   C     C_R   0.319787 0.817679 0.677982 0.036863
C51   C     C_R   0.912895 0.316181 0.112240 0.536872
C52   C     C_R   0.328365 0.291750 0.093572 0.547470
C53   C     C_R   0.304659 0.903887 0.106850 0.532380
C54   C     C_R   0.879519 0.310186 0.905723 0.547240
C55   C     C_R   0.292010 0.283658 0.883398 0.554725
C56   C     C_R   0.756790 0.380458 0.612277 0.547082
C57   C     C_R   0.276376 0.893107 0.898084 0.546474
C58   C     C_R   0.858320 0.875361 0.119920 -0.094403
C59   C     C_R   0.849803 0.997394 0.146588 -0.127063
C60   C     C_R   0.722917 0.105247 0.174350 -0.120307
Cr1   Cr    Cr6+3 0.601770 0.606860 0.505860 0.995046
Cr2   Cr    Cr6+3 0.291380 0.601660 0.495070 1.020412
Cr3   Cr    Cr6+3 0.606880 0.291510 0.499120 1.010352
Cr4   Cr    Cr6+3 0.062440 0.063090 0.008210 1.003500
Cr5   Cr    Cr6+3 0.062880 0.375170 0.998920 0.996177
Cr6   Cr    Cr6+3 0.374700 0.061720 0.992470 1.009357
H1    H     H_    0.548728 0.132814 0.308959 0.145320
H2    H     H_    0.788524 0.896334 0.391173 0.110466
H3    H     H_    0.863330 0.658480 0.436846 0.131131
H4    H     H_    0.069467 0.449311 0.384894 0.097957
H5    H     H_    0.042167 0.257964 0.347133 0.095438
H6    H     H_    0.095738 0.244256 0.219382 0.122563
H7    H     H_    0.650928 0.448582 0.169141 0.106831
H8    H     H_    0.597197 0.458264 0.296430 0.124006
H9    H     H_    0.575415 0.690509 0.306617 0.149692
H10   H     H_    0.550376 0.723801 0.177944 0.103976
H11   H     H_    0.107102 0.020972 0.206088 0.128390
H12   H     H_    0.126144 0.972235 0.331950 0.121197
H13   H     H_    0.461213 0.105312 0.662578 0.124825
H14   H     H_    0.441929 0.081253 0.788172 0.135909
H15   H     H_    0.144507 0.528094 0.808117 0.119307
H16   H     H_    0.167254 0.553527 0.680579 0.131639
H17   H     H_    0.701202 0.578894 0.710106 0.133435
H18   H     H_    0.725589 0.554571 0.836923 0.124271
H19   H     H_    0.897025 0.105735 0.815326 0.129641
H20   H     H_    0.860986 0.132771 0.686070 0.119021
H21   H     H_    0.118272 0.823945 0.685529 0.124402
H22   H     H_    0.922712 0.925602 0.294191 0.111457
H23   H     H_    0.102872 0.848465 0.813000 0.122473
H24   H     H_    0.505035 0.834630 0.818368 0.116109
H25   H     H_    0.518483 0.814225 0.689796 0.114152
H26   H     H_    0.957557 0.792983 0.098151 0.109545
H27   H     H_    0.942226 0.007079 0.146469 0.156668
H28   H     H_    0.719100 0.195899 0.196887 0.128803
H29   H     H_    0.129770 0.718531 0.241650 0.111170
H30   H     H_    0.524554 0.954052 0.159764 0.146102
H31   H     H_    0.153143 0.511655 0.172390 0.135017
O1    O     O_R   0.748800 0.497470 0.428000 -0.531506
O2    O     O_R   0.300070 0.471040 0.567100 -0.510294
O3    O     O_R   0.491670 0.258900 0.574910 -0.520494
O4    O     O_R   0.718780 0.304180 0.577850 -0.500704
O5    O     O_3   0.500010 0.500010 0.500020 -0.247553
O6    O     O_R   0.186690 0.923650 0.086970 -0.536646
O7    O     O_R   0.957250 0.194250 0.084630 -0.517577
O8    O     O_R   0.934970 0.407490 0.085330 -0.532102
O9    O     O_R   0.203780 0.365190 0.067090 -0.511206
O10   O     O_R   0.417600 0.174890 0.067840 -0.510045
O11   O     O_R   0.375320 0.946260 0.070860 -0.522309
O12   O     O_R   0.476420 0.724060 0.429470 -0.512772
O13   O     O_R   0.160600 0.919630 0.926660 -0.523775
O14   O     O_R   0.933060 0.190520 0.936020 -0.500910
O15   O     O_R   0.908880 0.403460 0.925020 -0.525673
O16   O     O_R   0.179600 0.361450 0.918490 -0.501487
O17   O     O_R   0.391510 0.170860 0.907530 -0.525443
O18   O     O_R   0.351130 0.942530 0.922260 -0.511521
O19   O     O_3   0.166667 0.166667 0.999870 -0.246130
O20   O     O_R   0.264580 0.744340 0.416750 -0.505951
O21   O     O_R   0.309380 0.472470 0.418200 -0.493890
O22   O     O_R   0.501710 0.260430 0.414300 -0.532161
O23   O     O_R   0.728090 0.305600 0.428960 -0.501199
O24   O     O_R   0.738760 0.495930 0.588610 -0.530398
O25   O     O_R   0.467110 0.722640 0.578360 -0.509679
O26   O     O_R   0.254530 0.742800 0.577360 -0.528940
C61   C     C_3   0.750060 0.726818 0.094993 -0.389792
H32   H     H_    0.837353 0.674466 0.055830 0.149446
H33   H     H_    0.771588 0.653846 0.139778 0.153132
H34   H     H_    0.650544 0.750490 0.067470 0.137774

loop_
_geom_bond_atom_site_label_1
_geom_bond_atom_site_label_2
_ccdc_geom_bond_type
C33   C55   S    
Cr4   O6    S    
C34   O26   A    
Cr4   O19   S    
C38   H17   S    
C41   C42   A    
C35   C36   A    
C8    H30   S    
Cr6   O10   S    
Cr3   O4    S    
Cr1   O12   S    
C35   H15   S    
C57   O18   A    
C46   H23   S    
C28   C29   A    
C26   C27   A    
Cr3   O3    S    
Cr6   O19   S    
C18   C24   A    
C36   C37   A    
C56   O4    A    
C18   C19   A    
C20   C51   S    
C38   C39   A    
C33   C35   A    
C2    C60   A    
C47   C57   S    
C15   C16   A    
C21   H7    S    
C18   H5    S    
C9    C61   S    
Cr1   O24   S    
C9    C58   A    
C7    H22   S    
Cr2   O20   S    
C1    O12   A    
C29   H12   S    
C19   C20   A    
C52   O10   A    
C36   H16   S    
C8    C9    A    
C12   C17   S    
C26   H10   S    
C23   C24   S    
C42   H20   S    
C44   H21   S    
C52   O9    A    
C59   C60   A    
C34   O25   A    
C48   H24   S    
C21   C22   A    
C19   H6    S    
C49   H25   S    
Cr3   O5    S    
Cr5   O8    S    
Cr2   O26   S    
C44   C46   A    
C34   C50   S    
Cr6   O18   S    
C53   O11   A    
C45   O2    A    
C23   O23   A    
Cr4   O14   S    
C55   O16   A    
C51   O7    A    
C31   C37   A    
Cr1   O25   S    
C25   H9    S    
C10   H31   S    
Cr5   O15   S    
C29   C30   A    
C32   H14   S    
C12   O22   A    
Cr3   O22   S    
C11   C16   S    
Cr4   O13   S    
C47   C48   A    
C51   O8    A    
C54   O15   A    
C1    O20   A    
C28   H11   S    
C61   H34   S    
C12   O21   A    
C4    C17   A    
C40   C41   A    
C49   C50   A    
C40   C54   S    
C14   H3    S    
C22   C24   A    
C58   C59   A    
C2    C5    S    
C42   C43   A    
C22   H8    S    
C37   C45   S    
Cr5   O9    S    
C39   C40   A    
C61   H33   S    
C44   C50   A    
C25   C30   A    
Cr4   O7    S    
C15   H4    S    
C46   C47   A    
C11   C17   A    
Cr6   O17   S    
Cr5   O16   S    
C31   C32   A    
C2    C8    A    
Cr6   O11   S    
C4    C5    A    
C3    C5    A    
C45   O3    A    
C39   H18   S    
C4    H1    S    
C3    C52   S    
C27   C53   S    
C57   O13   A    
C31   H13   S    
C6    C7    A    
C55   O17   A    
C41   H19   S    
C56   O24   A    
Cr1   O5    S    
C25   C26   A    
C38   C43   A    
C3    C10   A    
C32   C33   A    
Cr3   O23   S    
Cr1   O1    S    
C53   O6    A    
C48   C49   A    
C1    C30   S    
Cr5   O19   S    
C54   O14   A    
Cr2   O21   S    
C10   C11   A    
C6    C16   A    
Cr2   O2    S    
C43   C56   S    
C7    C13   A    
C23   O1    A    
C20   C21   A    
C6    H29   S    
C27   C28   A    
C14   C15   A    
C59   H27   S    
C13   C14   A    
C58   H26   S    
C61   H32   S    
Cr2   O5    S    
C13   H2    S    
C60   H28   S    
