data_mof_unit_43737.cif
_audit_creation_date              2012-12-10T17:00:40-0500
_audit_creation_method            fapswitch 2.2
_symmetry_space_group_name_H-M    P1
_symmetry_Int_Tables_number       1
_space_group_crystal_system       triclinic
_cell_length_a                    27.786412
_cell_length_b                    10.901049
_cell_length_c                    9.694344
_cell_angle_alpha                 90.326792
_cell_angle_beta                  90.345708
_cell_angle_gamma                 90.196559
_cell_volume                      2936.30802595

loop_
_atom_site_label
_atom_site_type_symbol
_atom_type_description
_atom_site_fract_x
_atom_site_fract_y
_atom_site_fract_z
_atom_type_partial_charge
C1    C     C_R   0.497952 0.265316 0.499798 0.836523
C2    C     C_R   0.278873 0.527370 0.375506 0.427382
C3    C     C_R   0.253518 0.501783 0.497147 0.264654
C4    C     C_R   0.101636 0.502868 0.500275 -0.047058
C5    C     C_R   0.126718 0.407759 0.433463 -0.030906
C6    C     C_R   0.100977 0.313892 0.367493 -0.127191
C7    C     C_R   0.127794 0.597235 0.566657 -0.027035
C8    C     C_R   0.354531 0.500158 0.498661 -0.113465
C9    C     C_R   0.644731 0.499176 0.501115 -0.067024
C10   C     C_R   0.973665 0.416995 0.420495 0.059940
C11   C     C_R   0.974647 0.592268 0.582053 -0.024022
C12   C     C_R   0.407484 0.499922 0.499616 0.844324
C13   C     C_R   0.948773 0.505239 0.501481 0.071389
C14   C     C_R   0.946541 0.338000 0.333820 -0.198982
C15   C     C_R   0.896695 0.341694 0.331582 -0.136494
C16   C     C_R   0.871828 0.423912 0.415797 0.010322
C17   C     C_R   0.897548 0.506209 0.501726 -0.098683
C18   C     C_R   0.872038 0.588707 0.587713 -0.117110
C19   C     C_R   0.821095 0.584619 0.585166 0.598025
C20   C     C_R   0.821494 0.426087 0.414579 0.514316
C21   C     C_R   0.721305 0.402290 0.547768 -0.143342
C22   C     C_R   0.671079 0.398637 0.551614 -0.049590
C23   C     C_R   0.501919 0.734503 0.500365 0.845872
C24   C     C_R   0.668749 0.601141 0.447379 -0.280814
C25   C     C_R   0.719098 0.605566 0.444179 0.053443
C26   C     C_R   0.745551 0.504780 0.495364 0.291021
C27   C     C_R   0.024686 0.411238 0.427417 0.040525
C28   C     C_R   0.050493 0.503549 0.500765 0.077239
C29   C     C_R   0.025726 0.596554 0.574508 0.064122
C30   C     C_R   0.050994 0.315427 0.364251 -0.199143
C31   C     C_R   0.103102 0.691681 0.633248 -0.128458
C32   C     C_R   0.948545 0.671456 0.669269 -0.242246
C33   C     C_R   0.898471 0.670565 0.673148 0.422594
C34   C     C_R   0.592211 0.498877 0.500391 0.801560
C35   C     C_R   0.053119 0.691612 0.637216 -0.195991
C36   C     C_2   0.503095 0.932860 0.388189 -0.187799
C37   C     C_2   0.507502 0.866011 0.502644 -0.314760
C38   C     C_2   0.506831 0.066470 0.394500 -0.182302
C39   C     C_2   0.489113 0.134103 0.499319 -0.112539
C40   C     C_2   0.474552 0.423982 0.920540 -0.126277
C41   C     C_2   0.472763 0.427419 0.075756 0.449107
C42   C     C_R   0.177232 0.408336 0.435083 0.608109
C43   C     C_R   0.178300 0.595555 0.563555 0.577861
C44   C     C_R   0.278808 0.476102 0.618940 -0.150173
C45   C     C_R   0.328955 0.475669 0.619987 -0.200159
C46   C     C_R   0.329108 0.525669 0.376496 -0.216725
Cu1   Cu    Cu3+1 0.500010 0.500020 0.638630 0.950032
Cu2   Cu    Cu3+1 0.499990 0.499980 0.361370 0.991584
H1    H     H_    0.348180 0.545861 0.282128 0.205173
H2    H     H_    0.259468 0.456372 0.712936 0.179276
H3    H     H_    0.122352 0.766570 0.682932 0.193365
H4    H     H_    0.966252 0.733777 0.739841 0.175932
H5    H     H_    0.648053 0.677564 0.407713 0.137579
H6    H     H_    0.037005 0.769641 0.687295 0.148886
H7    H     H_    0.498477 0.889745 0.287679 0.178033
H8    H     H_    0.515811 0.908542 0.601344 0.159726
H9    H     H_    0.526223 0.110264 0.311001 0.167211
H10   H     H_    0.452773 0.355471 0.867499 0.193144
H11   H     H_    0.518778 0.567092 0.895003 0.186344
H12   H     H_    0.524535 0.553935 0.107038 0.152084
H13   H     H_    0.119394 0.238532 0.317395 0.192427
H14   H     H_    0.741879 0.325405 0.586604 0.156087
H15   H     H_    0.877660 0.279058 0.263142 0.184095
H16   H     H_    0.962799 0.274004 0.263178 0.144626
H17   H     H_    0.033991 0.238061 0.314149 0.145262
H18   H     H_    0.347659 0.455356 0.715463 0.186057
N1    N     N_R   0.201880 0.502093 0.498202 -0.453001
N2    N     N_R   0.797293 0.505938 0.497746 -0.472563
N3    N     N_2   0.499480 0.498660 0.846910 -0.307833
N4    N     N_2   0.499460 0.498630 0.153040 -0.307847
O1    O     O_R   0.500010 0.321960 0.617040 -0.586241
O2    O     O_2   0.796749 0.349444 0.330070 -0.559025
O3    O     O_2   0.203677 0.686769 0.624785 -0.520082
O4    O     O_2   0.795160 0.657375 0.669171 -0.468212
O5    O     O_R   0.499990 0.321920 0.382900 -0.533221
O6    O     O_R   0.430270 0.500040 0.617060 -0.578600
O7    O     O_R   0.430260 0.500000 0.382910 -0.527533
O8    O     O_R   0.500010 0.678080 0.617100 -0.576935
O9    O     O_R   0.499990 0.678040 0.382960 -0.582194
O10   O     O_R   0.569740 0.500000 0.617090 -0.579607
O11   O     O_R   0.569730 0.499960 0.382940 -0.579714
O12   O     O_2   0.201581 0.315957 0.374294 -0.503190
Cl1   Cl    Cl    0.872087 0.776590 0.788488 -0.567741
C47   C     C_R   0.743081 0.716326 0.388318 0.117294
C48   C     C_R   0.777522 0.706359 0.283234 -0.149896
C49   C     C_R   0.800158 0.811323 0.232130 -0.108214
C50   C     C_R   0.788402 0.926989 0.284668 -0.085937
C51   C     C_R   0.753851 0.937968 0.388096 -0.114743
C52   C     C_R   0.731179 0.833253 0.439634 -0.104210
H19   H     H_    0.786552 0.617694 0.239985 0.160802
H20   H     H_    0.826711 0.803002 0.151399 0.180006
H21   H     H_    0.805957 0.008133 0.244967 0.153826
H22   H     H_    0.744687 0.027616 0.428542 0.146794
H23   H     H_    0.704739 0.843209 0.520556 0.134659
Cl2   Cl    Cl    0.248505 0.564749 0.221697 -0.559562
C53   C     C_R   0.455064 0.084856 0.603935 0.114573
C54   C     C_R   0.465687 0.093753 0.745696 -0.173914
C55   C     C_R   0.433391 0.048208 0.842983 -0.131757
C56   C     C_R   0.390271 0.993544 0.799790 -0.077220
C57   C     C_R   0.379314 0.984605 0.659209 -0.131016
C58   C     C_R   0.411445 0.030364 0.561546 -0.109642
H24   H     H_    0.499117 0.134600 0.780994 0.146823
H25   H     H_    0.441855 0.055102 0.951902 0.161975
H26   H     H_    0.365337 0.958168 0.875251 0.154123
H27   H     H_    0.345866 0.942402 0.625888 0.160913
H28   H     H_    0.402367 0.023502 0.452958 0.159272
Cl3   Cl    Cl    0.431588 0.325256 0.150947 -0.613337
C59   C     C_R   0.647057 0.287048 0.603367 0.086623
C60   C     C_R   0.645228 0.180586 0.521290 -0.166378
C61   C     C_R   0.622714 0.074644 0.570341 -0.138439
C62   C     C_R   0.602161 0.074362 0.701599 -0.117237
C63   C     C_R   0.604028 0.179998 0.783929 -0.136513
C64   C     C_R   0.626506 0.286075 0.735255 -0.078830
H29   H     H_    0.661082 0.179886 0.419488 0.140855
H30   H     H_    0.621201 0.992801 0.506673 0.131493
H31   H     H_    0.584850 0.992310 0.739680 0.121693
H32   H     H_    0.588096 0.179639 0.885538 0.124393
H33   H     H_    0.627968 0.367221 0.800158 0.137300

loop_
_geom_bond_atom_site_label_1
_geom_bond_atom_site_label_2
_ccdc_geom_bond_type
C10   C27   A    
C43   O3    S    
C21   C26   A    
C62   C63   A    
C42   O12   S    
C50   C51   A    
C54   C55   A    
C48   C49   A    
C2    C46   A    
C46   H1    S    
C57   H27   S    
C1    O1    A    
Cu2   O9    S    
C21   C22   A    
C36   C37   D    
Cu1   O6    S    
C49   H20   S    
C5    C6    A    
C9    C22   A    
C15   C16   A    
C59   C60   A    
C18   C19   A    
C52   H23   S    
C61   C62   A    
Cu1   N3    S    
C34   O10   A    
C8    C45   A    
C37   H8    S    
C32   H4    S    
Cu1   Cu2   S    
C16   C17   A    
C25   C47   S    
C62   H31   S    
C34   O11   A    
C7    C43   A    
C54   H24   S    
C16   C20   A    
C56   H26   S    
C53   C58   A    
C12   O7    A    
C35   H6    S    
Cu2   O5    S    
Cu1   O10   S    
C4    C7    A    
C63   C64   A    
C4    C28   A    
C3    C44   A    
C40   H10   S    
C40   N3    D    
C1    O5    A    
C7    C31   A    
C24   C25   A    
C10   C14   A    
Cu2   N4    S    
C49   C50   A    
C24   H5    S    
C23   C37   S    
Cu2   O7    S    
C38   H9    S    
C56   C57   A    
H12   N4    S    
C8    C12   S    
C14   H16   S    
C53   C54   A    
C17   C18   A    
C19   N2    A    
C47   C48   A    
C33   Cl1   S    
Cu1   O1    S    
C21   H14   S    
C60   H29   S    
H11   N3    S    
C40   C41   S    
C6    C30   A    
C11   C32   A    
C12   O6    A    
C42   N1    A    
C31   C35   A    
C47   C52   A    
C27   C28   A    
C44   C45   A    
C6    H13   S    
C5    C42   A    
C44   H2    S    
C58   H28   S    
C51   H22   S    
C28   C29   A    
C41   Cl3   S    
C20   N2    A    
C19   O4    S    
C3    N1    S    
C31   H3    S    
C4    C5    A    
C10   C13   A    
C2    Cl2   S    
C48   H19   S    
C9    C24   A    
C59   C64   A    
C29   C35   A    
C13   C17   A    
C63   H32   S    
C26   N2    S    
C32   C33   A    
C36   C38   S    
Cu2   O11   S    
C25   C26   A    
C36   H7    S    
C60   C61   A    
C11   C13   A    
C38   C39   D    
C22   C59   S    
C57   C58   A    
C9    C34   S    
C2    C3    A    
C23   O8    A    
C18   C33   A    
C8    C46   A    
C39   C53   S    
C30   H17   S    
C1    C39   S    
C64   H33   S    
C51   C52   A    
C11   C29   A    
C43   N1    A    
C55   C56   A    
C45   H18   S    
C15   H15   S    
C14   C15   A    
C20   O2    S    
Cu1   O8    S    
C23   O9    A    
C50   H21   S    
C61   H30   S    
C55   H25   S    
C41   N4    D    
C27   C30   A    
