data_mof_unit_47979.cif
_audit_creation_date              2012-12-10T17:36:41-0500
_audit_creation_method            fapswitch 2.2
_symmetry_space_group_name_H-M    P1
_symmetry_Int_Tables_number       1
_space_group_crystal_system       triclinic
_cell_length_a                    12.004488
_cell_length_b                    12.822171
_cell_length_c                    15.718528
_cell_angle_alpha                 90.113111
_cell_angle_beta                  86.34567
_cell_angle_gamma                 94.027275
_cell_volume                      2408.56326543

loop_
_atom_site_label
_atom_site_type_symbol
_atom_type_description
_atom_site_fract_x
_atom_site_fract_y
_atom_site_fract_z
_atom_type_partial_charge
C1    C     C_R   0.522868 0.700449 0.499643 0.874016
C2    C     C_R   0.477134 0.299556 0.500605 0.888466
C3    C     C_R   0.627928 0.971512 0.554755 -0.255187
C4    C     C_R   0.372079 0.028515 0.446463 -0.268489
C5    C     C_R   0.625796 0.863311 0.545823 0.103012
C6    C     C_R   0.374161 0.136433 0.455807 0.091446
C7    C     C_R   0.456289 0.867493 0.467832 -0.311269
C8    C     C_R   0.543919 0.132637 0.533079 -0.318340
C9    C     C_R   0.456958 0.973887 0.478544 0.161921
C10   C     C_R   0.543168 0.026136 0.522497 0.157629
C11   C     C_R   0.955305 0.412292 0.413493 -0.417194
C12   C     C_R   0.044693 0.587669 0.586538 -0.414451
C13   C     C_R   0.837980 0.417272 0.423464 0.629768
C14   C     C_R   0.162015 0.582666 0.576581 0.628575
C15   C     C_R   0.858174 0.536354 0.538534 -0.113017
C16   C     C_R   0.141824 0.463652 0.461464 -0.119427
C17   C     C_R   0.975510 0.531363 0.531715 0.039112
C18   C     C_R   0.024489 0.468634 0.468292 0.037401
C19   C     C_R   0.500334 0.500284 0.662047 0.891093
C20   C     C_R   0.499674 0.499757 0.337951 0.900676
C21   C     C_3   0.480078 0.593880 0.028998 0.580489
C22   C     C_3   0.519985 0.406428 0.970992 0.580309
C23   C     C_3   0.581567 0.571117 0.968600 -0.325394
C24   C     C_3   0.418498 0.429189 0.031387 -0.324499
C25   C     C_1   0.500926 0.500775 0.750929 -0.165980
C26   C     C_1   0.499104 0.499383 0.249065 -0.163315
C27   C     C_3   0.398551 0.526052 0.976632 -0.313003
C28   C     C_3   0.601513 0.474254 0.023356 -0.312775
C29   C     C_3   0.500429 0.501462 0.917111 0.072141
C30   C     C_3   0.499634 0.498845 0.082879 0.072012
C31   C     C_1   0.500943 0.501150 0.826227 0.006396
C32   C     C_1   0.499107 0.499098 0.173765 0.007307
C33   C     C_R   0.461786 0.187867 0.498408 -0.053503
C34   C     C_R   0.538218 0.812150 0.502653 -0.065838
H1    H     H_    0.646652 0.629320 0.940958 0.153006
H2    H     H_    0.353412 0.370986 0.059026 0.153602
H3    H     H_    0.683108 0.452116 0.044575 0.159722
H4    H     H_    0.316956 0.548190 0.955413 0.159692
H5    H     H_    0.610332 0.173278 0.566616 0.158169
H6    H     H_    0.390031 0.826995 0.434036 0.158767
H7    H     H_    0.693835 0.012624 0.588333 0.133774
H8    H     H_    0.305695 0.988040 0.412948 0.138096
H9    H     H_    0.180701 0.414736 0.413566 0.158013
H10   H     H_    0.819294 0.585263 0.586435 0.154868
H11   H     H_    0.992148 0.366099 0.362745 0.151384
H12   H     H_    0.007850 0.633827 0.637309 0.151203
N1    N     N_R   0.207800 0.519340 0.515560 -0.136802
N2    N     N_R   0.792200 0.480660 0.484440 -0.136975
O1    O     O_R   0.421700 0.658830 0.504150 -0.610683
O2    O     O_R   0.578300 0.341170 0.495850 -0.612942
O3    O     O_R   0.609310 0.646410 0.494170 -0.602603
O4    O     O_R   0.390690 0.353590 0.505830 -0.601342
O5    O     O_R   0.406210 0.506220 0.628210 -0.558237
O6    O     O_R   0.593790 0.493780 0.371790 -0.558375
O7    O     O_R   0.593830 0.493800 0.618230 -0.633685
O8    O     O_R   0.406170 0.506200 0.381770 -0.629180
Zn1   Zn    Zn3+2 0.374730 0.508290 0.506660 0.987739
Zn2   Zn    Zn3+2 0.625270 0.491710 0.493340 0.986620
O9    O     O_3   0.459240 0.691003 0.066898 -0.603854
C35   C     C_3   0.444748 0.764620 0.002699 0.100193
H13   H     H_    0.372604 0.739217 0.964645 0.135425
H14   H     H_    0.521780 0.776800 0.959570 0.134111
C36   C     C_3   0.421042 0.868769 0.044029 -0.821703
H15   H     H_    0.492447 0.897451 0.081377 0.255329
H16   H     H_    0.408828 0.927261 0.994075 0.203465
H17   H     H_    0.344029 0.859562 0.087174 0.258805
O10   O     O_3   0.540821 0.309305 0.933088 -0.604158
C37   C     C_3   0.555325 0.235687 0.997282 0.100449
H18   H     H_    0.478304 0.223511 0.040423 0.134628
H19   H     H_    0.627483 0.261085 0.035323 0.135669
C38   C     C_3   0.579011 0.131536 0.955945 -0.822499
H20   H     H_    0.656014 0.140739 0.912788 0.258633
H21   H     H_    0.591235 0.073042 0.005895 0.203799
H22   H     H_    0.507592 0.102860 0.918610 0.255130
N3    N     N_3   0.290944 0.193672 0.418788 -0.450339
H23   H     H_    0.293982 0.178365 0.353347 0.170947
H24   H     H_    0.212414 0.165304 0.444965 0.182094
N4    N     N_3   0.708489 0.805180 0.583299 -0.438984
H25   H     H_    0.770771 0.855790 0.607613 0.170348
H26   H     H_    0.668765 0.763785 0.635295 0.167320
O11   O     O_3   0.231028 0.633217 0.633197 -0.584078
C39   C     C_3   0.225743 0.742604 0.626329 0.100900
H27   H     H_    0.142852 0.767218 0.651134 0.120598
H28   H     H_    0.242152 0.769248 0.558962 0.140675
C40   C     C_3   0.314217 0.796734 0.679553 -0.795303
H29   H     H_    0.398236 0.771066 0.659400 0.251795
H30   H     H_    0.314930 0.882792 0.671284 0.208412
H31   H     H_    0.295569 0.777072 0.748008 0.239618
O12   O     O_3   0.768941 0.366560 0.366945 -0.583537
C41   C     C_3   0.774382 0.257198 0.373909 0.097965
H32   H     H_    0.758151 0.230644 0.441313 0.140423
H33   H     H_    0.857263 0.232650 0.349025 0.120510
C42   C     C_3   0.685852 0.202862 0.320853 -0.789509
H34   H     H_    0.704225 0.222555 0.252381 0.239066
H35   H     H_    0.685401 0.116822 0.329101 0.208759
H36   H     H_    0.601806 0.228314 0.341175 0.254977

loop_
_geom_bond_atom_site_label_1
_geom_bond_atom_site_label_2
_ccdc_geom_bond_type
C25   C31   T    
C36   H16   S    
C11   C18   A    
C26   C32   T    
C42   H34   S    
C22   C29   S    
C27   C29   S    
C24   C27   S    
C20   O8    A    
O11   C39   S    
C6    N3    S    
C40   H29   S    
C24   H2    S    
C4    H8    S    
C35   C36   S    
C23   C29   S    
C15   H10   S    
C21   O9    S    
N4    H26   S    
N1    Zn1   S    
C27   H4    S    
O1    Zn1   S    
O8    Zn1   S    
C35   H14   S    
C2    O2    A    
C37   H18   S    
C12   C17   A    
C7    H6    S    
C8    H5    S    
C9    C10   A    
C19   O5    A    
C21   C27   S    
C36   H17   S    
O9    C35   S    
C42   H35   S    
C22   C28   S    
C15   N2    A    
C16   N1    A    
C1    C34   S    
C40   H30   S    
O10   C37   S    
O2    Zn2   S    
C20   O6    A    
C38   H21   S    
O5    Zn1   S    
N4    H25   S    
C35   H13   S    
C12   H12   S    
N3    H23   S    
C13   N2    A    
N3    H24   S    
C41   H33   S    
C4    C9    A    
C5    C34   A    
C17   C18   A    
O3    Zn2   S    
C23   C28   S    
C1    O3    A    
C16   H9    S    
C2    O4    A    
C2    C33   S    
C4    C6    A    
C12   C14   A    
C42   H36   S    
C23   H1    S    
C21   C23   S    
C7    C34   A    
C22   C24   S    
C11   H11   S    
C41   C42   S    
O6    Zn2   S    
C40   H31   S    
C19   O7    A    
C15   C17   A    
C3    H7    S    
C13   O12   S    
C8    C10   A    
C3    C5    A    
C38   H22   S    
N2    Zn2   S    
C14   N1    A    
C39   C40   S    
C21   C30   S    
C39   H28   S    
C6    C33   A    
C16   C18   A    
C28   C30   S    
C5    N4    S    
C38   H20   S    
C29   C31   S    
C3    C10   A    
C30   C32   S    
C11   C13   A    
C41   H32   S    
C20   C26   S    
C28   H3    S    
C37   C38   S    
C8    C33   A    
C19   C25   S    
C24   C30   S    
C22   O10   S    
O4    Zn1   S    
C36   H15   S    
C7    C9    A    
C37   H19   S    
C39   H27   S    
O7    Zn2   S    
C14   O11   S    
O12   C41   S    
C1    O1    A    
