data_mof_unit_58086.cif
_audit_creation_date              2012-12-10T19:12:59-0500
_audit_creation_method            fapswitch 2.2
_symmetry_space_group_name_H-M    P1
_symmetry_Int_Tables_number       1
_space_group_crystal_system       triclinic
_cell_length_a                    8.75406
_cell_length_b                    15.97424
_cell_length_c                    14.757338
_cell_angle_alpha                 90.163435
_cell_angle_beta                  97.725223
_cell_angle_gamma                 89.895212
_cell_volume                      2044.91810029

loop_
_atom_site_label
_atom_site_type_symbol
_atom_type_description
_atom_site_fract_x
_atom_site_fract_y
_atom_site_fract_z
_atom_type_partial_charge
C1    C     C_R   0.499574 0.340847 0.499868 0.824810
C2    C     C_R   0.500455 0.659152 0.500129 0.825028
C3    C     C_R   0.499477 0.498473 0.902788 -0.281867
C4    C     C_R   0.500398 0.501629 0.097213 -0.280278
C5    C     C_R   0.374368 0.464423 0.942563 0.294653
C6    C     C_R   0.625424 0.535769 0.057438 0.287657
C7    C     C_1   0.499689 0.499422 0.802620 0.249032
C8    C     C_1   0.500255 0.500620 0.197379 0.255898
C9    C     C_R   0.203199 0.498352 0.477038 0.850375
C10   C     C_R   0.796801 0.501655 0.522959 0.849212
C11   C     C_2   0.038687 0.485951 0.466345 0.142818
C12   C     C_2   0.961310 0.514073 0.533637 0.141875
C13   C     C_R   0.555755 0.957017 0.582040 0.315192
C14   C     C_R   0.444576 0.042966 0.417827 0.319030
C15   C     C_R   0.517907 0.913229 0.498708 -0.261399
C16   C     C_R   0.482347 0.086754 0.501171 -0.242646
C17   C     C_R   0.473029 0.955781 0.415576 0.242751
C18   C     C_R   0.527243 0.044198 0.584302 0.304750
C19   C     C_1   0.511671 0.823234 0.499727 0.232368
C20   C     C_1   0.488500 0.176755 0.500181 0.255129
C21   C     C_1   0.494488 0.251811 0.499586 -0.063555
C22   C     C_1   0.505620 0.748184 0.500381 -0.053386
C23   C     C_R   0.624470 0.533649 0.960887 0.390677
C24   C     C_R   0.375376 0.466485 0.039118 0.389736
Cu1   Cu    Cu3+1 0.500040 0.500000 0.589220 0.993040
Cu2   Cu    Cu3+1 0.499960 0.500000 0.410780 1.001389
N1    N     N_1   0.500050 0.499980 0.276720 -0.178873
N2    N     N_1   0.499950 0.500020 0.723280 -0.181529
O1    O     O_R   0.500070 0.380310 0.575330 -0.573913
O2    O     O_R   0.499930 0.619690 0.424670 -0.561892
O3    O     O_R   0.500000 0.380310 0.424640 -0.563229
O4    O     O_R   0.500000 0.619690 0.575360 -0.564798
O5    O     O_R   0.274870 0.500000 0.557960 -0.570145
O6    O     O_R   0.725130 0.500000 0.442040 -0.571241
O7    O     O_R   0.274790 0.500000 0.407270 -0.597878
O8    O     O_R   0.725210 0.500000 0.592730 -0.598073
O9    O     O_3   0.974280 0.425303 0.404934 -0.593371
C25   C     C_3   0.955369 0.457015 0.314797 0.113807
H1    H     H_    0.067887 0.466992 0.289892 0.173953
H2    H     H_    0.889792 0.517005 0.309845 0.160132
C26   C     C_3   0.866505 0.393155 0.251699 -0.687028
H3    H     H_    0.750975 0.382518 0.272665 0.248969
H4    H     H_    0.852503 0.415955 0.180113 0.232339
H5    H     H_    0.930219 0.332811 0.255012 0.251613
O10   O     O_3   0.025691 0.574766 0.594996 -0.595433
C27   C     C_3   0.044669 0.543114 0.685155 0.112922
H6    H     H_    0.110290 0.483140 0.690141 0.162127
H7    H     H_    0.932173 0.533126 0.710082 0.173600
C28   C     C_3   0.133521 0.607031 0.748183 -0.684499
H8    H     H_    0.069830 0.667384 0.744775 0.251416
H9    H     H_    0.147480 0.584318 0.819800 0.232690
H10   H     H_    0.249070 0.617621 0.727224 0.249608
S1    S     S_3+6 0.534995 0.100874 0.689734 0.074347
O11   O     O_2   0.497652 0.045506 0.765877 -0.182785
O12   O     O_2   0.694132 0.136479 0.713928 -0.255401
O13   O     O_3   0.406519 0.179934 0.679308 -0.551046
H11   H     H_    0.433219 0.214532 0.734978 0.357300
S2    S     S_3+6 0.465278 0.899107 0.310095 0.081433
O14   O     O_2   0.306249 0.863493 0.285831 -0.211821
O15   O     O_2   0.501905 0.954216 0.233553 -0.188676
O16   O     O_3   0.592584 0.819527 0.319769 -0.546358
H12   H     H_    0.694815 0.846486 0.334194 0.348245
S3    S     S_3+6 0.648673 0.902170 0.679998 0.053040
O17   O     O_2   0.527522 0.869913 0.734087 -0.268337
O18   O     O_2   0.740286 0.829411 0.651163 -0.320342
O19   O     O_3   0.771207 0.964661 0.746584 -0.428259
H13   H     H_    0.806325 0.930899 0.801686 0.374247
S4    S     S_3+6 0.351793 0.097796 0.319818 0.052510
O20   O     O_2   0.260476 0.170717 0.348554 -0.314776
O21   O     O_2   0.473006 0.129811 0.265630 -0.273957
O22   O     O_3   0.228963 0.035348 0.253376 -0.431521
H14   H     H_    0.194194 0.068989 0.198131 0.373778
O23   O     O_3   0.757172 0.564566 0.111302 -0.563433
C29   C     C_3   0.726599 0.640058 0.156151 0.051004
H15   H     H_    0.689232 0.626277 0.223431 0.174498
H16   H     H_    0.636826 0.679513 0.115761 0.151465
C30   C     C_3   0.874410 0.690872 0.174323 -0.687546
H17   H     H_    0.915590 0.707581 0.108818 0.240401
H18   H     H_    0.852816 0.749325 0.211526 0.231924
H19   H     H_    0.965150 0.654015 0.216613 0.239985
O24   O     O_3   0.242422 0.435877 0.888707 -0.554232
C31   C     C_3   0.272496 0.360382 0.843730 0.019485
H20   H     H_    0.362258 0.320797 0.883950 0.133538
H21   H     H_    0.309625 0.374177 0.776391 0.163649
C32   C     C_3   0.124437 0.309761 0.825727 -0.689677
H22   H     H_    0.033703 0.346758 0.783607 0.242627
H23   H     H_    0.145577 0.251303 0.788414 0.236899
H24   H     H_    0.083487 0.293066 0.891302 0.241082
O25   O     O_3   0.752546 0.560477 0.923223 -0.539736
C33   C     C_3   0.755711 0.649040 0.918946 0.077898
H25   H     H_    0.875279 0.669670 0.943277 0.184273
H26   H     H_    0.678859 0.681537 0.962225 0.130423
C34   C     C_3   0.714228 0.678356 0.820602 -0.697392
H27   H     H_    0.589738 0.668149 0.797455 0.241012
H28   H     H_    0.738811 0.746256 0.816526 0.255469
H29   H     H_    0.783174 0.643984 0.774744 0.251619
O26   O     O_3   0.247234 0.439748 0.076778 -0.539085
C35   C     C_3   0.243832 0.351188 0.081024 0.077229
H30   H     H_    0.320043 0.318644 0.037393 0.130056
H31   H     H_    0.124045 0.330681 0.057088 0.183773
C36   C     C_3   0.286187 0.321784 0.179277 -0.700447
H32   H     H_    0.217934 0.356230 0.225457 0.252384
H33   H     H_    0.261372 0.253915 0.183396 0.255570
H34   H     H_    0.410863 0.331817 0.201986 0.240099

loop_
_geom_bond_atom_site_label_1
_geom_bond_atom_site_label_2
_ccdc_geom_bond_type
S3    O18   D    
C1    C21   S    
C34   H27   S    
C26   H3    S    
C3    C23   A    
C4    C8    S    
O26   C35   S    
C30   H17   S    
Cu1   N2    S    
C15   C19   S    
C27   C28   S    
Cu2   N1    S    
C36   H32   S    
C29   H16   S    
C13   C18   A    
C33   C34   S    
C3    C7    S    
C32   H22   S    
C25   H1    S    
C4    C24   A    
C32   H24   S    
S2    O15   D    
C35   H30   S    
C1    O3    A    
O13   H11   S    
C2    O4    A    
O23   C29   S    
C11   O9    S    
C18   S1    S    
Cu2   O6    S    
S4    O20   D    
C28   H9    S    
C29   C30   S    
C2    C22   S    
C23   O25   S    
C17   S2    S    
Cu1   O4    S    
C32   H23   S    
O19   H13   S    
S3    O19   S    
Cu2   O3    S    
C36   H33   S    
C9    O5    A    
C26   H4    S    
C14   C17   A    
O24   C31   S    
S1    O12   D    
Cu1   O1    S    
C27   H7    S    
C29   H15   S    
C24   O26   S    
C19   C22   T    
C25   C26   S    
C4    C6    A    
Cu1   Cu2   S    
O10   C27   S    
C31   H20   S    
C7    N2    T    
O9    C25   S    
C5    O24   S    
C33   H26   S    
C13   S3    S    
C16   C20   S    
C28   H10   S    
C1    O1    A    
C30   H18   S    
C10   O6    A    
C9    C11   S    
C10   C12   S    
C16   C18   A    
Cu2   O2    S    
C34   H29   S    
C35   H31   S    
C13   C15   A    
C26   H5    S    
C14   C16   A    
C35   C36   S    
C6    O23   S    
S1    O13   S    
C15   C17   A    
C27   H6    S    
C12   O10   S    
C3    C5    A    
C11   C12   D    
S1    O11   D    
C36   H34   S    
C31   C32   S    
C31   H21   S    
C2    O2    A    
S2    O14   D    
O22   H14   S    
C25   H2    S    
C30   H19   S    
C33   H25   S    
C34   H28   S    
C5    C24   A    
S2    O16   S    
S4    O22   S    
C6    C23   A    
O16   H12   S    
Cu1   O8    S    
S3    O17   D    
Cu2   O7    S    
C20   C21   T    
S4    O21   D    
C28   H8    S    
C9    O7    A    
C8    N1    T    
C14   S4    S    
C10   O8    A    
O25   C33   S    
Cu1   O5    S    
