data_mof_unit_56280.cif
_audit_creation_date              2012-10-26T19:21:05-0400
_audit_creation_method            fapswitch 2.2
_symmetry_space_group_name_H-M    P1
_symmetry_Int_Tables_number       1
_space_group_crystal_system       triclinic
_cell_length_a                    9.801027
_cell_length_b                    11.043252
_cell_length_c                    13.360976
_cell_angle_alpha                 94.471809
_cell_angle_beta                  81.309826
_cell_angle_gamma                 111.296985
_cell_volume                      1331.48568243

loop_
_atom_site_label
_atom_site_type_symbol
_atom_type_description
_atom_site_fract_x
_atom_site_fract_y
_atom_site_fract_z
_atom_type_partial_charge
C1    C     C_R   0.556644 0.745532 0.507189 0.559667
C2    C     C_R   0.372168 0.468885 0.800732 -0.004798
C3    C     C_2   0.588640 0.884776 0.511258 -0.136499
C4    C     C_R   0.420686 0.482055 0.690673 0.535854
C5    C     C_2   0.484549 0.930615 0.497819 -0.165304
C6    C     C_2   0.411625 0.115297 0.488705 -0.132719
C7    C     C_2   0.515807 0.069564 0.502209 -0.169847
C8    C     C_2   0.922417 0.489418 0.491447 -0.035963
C9    C     C_2   0.076599 0.508895 0.509728 -0.031343
C10   C     C_R   0.443412 0.254483 0.492786 0.555691
C11   C     C_R   0.577765 0.510504 0.309339 0.547826
C12   C     C_R   0.437111 0.474015 0.970858 0.024607
C13   C     C_R   0.736229 0.397988 0.064194 -0.149555
C14   C     C_R   0.620638 0.499347 0.200212 0.021447
C15   C     C_R   0.243494 0.492447 0.842121 -0.134161
C16   C     C_R   0.205892 0.497214 0.946608 -0.148555
C17   C     C_R   0.301943 0.489142 0.010605 -0.127483
C18   C     C_3   0.772526 0.306639 0.854038 -0.283064
C19   C     C_3   0.782988 0.268543 0.741213 -0.444713
C20   C     C_3   0.506182 0.657469 0.156594 -0.284293
C21   C     C_3   0.633682 0.775749 0.189011 -0.431810
C22   C     C_R   0.460241 0.444773 0.866528 0.007112
C23   C     C_R   0.543847 0.476853 0.033000 0.025369
C24   C     C_R   0.647934 0.415414 0.996464 0.036693
C25   C     C_R   0.659230 0.370281 0.894276 0.006606
C26   C     C_R   0.565678 0.387083 0.831099 -0.098292
C27   C     C_R   0.550712 0.538221 0.130779 0.004873
C28   C     C_R   0.716819 0.433397 0.165760 -0.154013
Cu1   Cu    Cu3+1 0.362000 0.479240 0.482530 0.920100
Cu2   Cu    Cu3+1 0.638000 0.520760 0.517470 0.915407
H1    H     H_    0.774758 0.406390 0.218030 0.118427
H2    H     H_    0.104160 0.511338 0.978198 0.112546
H3    H     H_    0.625147 0.134812 0.516583 0.151814
H4    H     H_    0.302444 0.049756 0.474459 0.103247
H5    H     H_    0.678053 0.192386 0.723644 0.148092
H6    H     H_    0.810170 0.355007 0.694350 0.167709
H7    H     H_    0.872584 0.228322 0.721323 0.144454
H8    H     H_    0.883819 0.375306 0.867586 0.140224
H9    H     H_    0.747011 0.217335 0.897291 0.146188
H10   H     H_    0.662527 0.761061 0.263116 0.158709
H11   H     H_    0.732615 0.795276 0.131011 0.154252
H12   H     H_    0.375175 0.865401 0.483521 0.157087
H13   H     H_    0.600618 0.862518 0.197049 0.138041
H14   H     H_    0.474826 0.689331 0.089700 0.149387
H15   H     H_    0.410274 0.635444 0.217109 0.166374
H16   H     H_    0.268176 0.492324 0.091333 0.110030
H17   H     H_    0.567858 0.346930 0.755107 0.150769
H18   H     H_    0.697866 0.950260 0.525477 0.100801
H19   H     H_    0.124422 0.576165 0.569526 0.145335
H20   H     H_    0.873704 0.420606 0.432730 0.144333
H21   H     H_    0.107090 0.385628 0.399350 0.199932
H22   H     H_    0.894292 0.616896 0.598927 0.203610
H23   H     H_    0.814479 0.349586 0.041492 0.102904
H24   H     H_    0.172456 0.508124 0.793743 0.122785
N1    N     N_2   0.845330 0.551960 0.543750 -0.357430
N2    N     N_2   0.154690 0.448120 0.456210 -0.354346
O1    O     O_R   0.426290 0.668220 0.490680 -0.495088
O2    O     O_R   0.659360 0.703290 0.520190 -0.483893
O3    O     O_R   0.326580 0.473880 0.629020 -0.496035
O4    O     O_R   0.559660 0.508940 0.658530 -0.496367
O5    O     O_R   0.340640 0.296710 0.479810 -0.486291
O6    O     O_R   0.573710 0.331780 0.509320 -0.505410
O7    O     O_R   0.440340 0.491060 0.341470 -0.492783
O8    O     O_R   0.673420 0.526120 0.370980 -0.498246

loop_
_geom_bond_atom_site_label_1
_geom_bond_atom_site_label_2
_ccdc_geom_bond_type
C12   C17   A    
C6    C10   S    
C2    C4    S    
C5    H12   S    
Cu1   O7    S    
C13   C28   A    
C2    C22   A    
C6    C7    D    
Cu1   N2    S    
Cu2   O8    S    
C14   C27   A    
C16   H2    S    
Cu1   Cu2   S    
Cu2   N1    S    
Cu1   O3    S    
C13   H23   S    
C20   H15   S    
H22   N1    S    
C18   H9    S    
C25   C26   A    
C4    O4    A    
C20   C27   S    
C18   H8    S    
C3    C5    D    
C9    N2    D    
C19   H5    S    
C1    O2    A    
C24   C25   A    
C2    C15   A    
C7    H3    S    
C12   C23   A    
C10   O6    A    
C18   C25   S    
C26   H17   S    
C21   H11   S    
Cu2   O2    S    
C8    N1    D    
C20   H14   S    
Cu1   O1    S    
H21   N2    S    
C8    H20   S    
C11   O7    A    
C19   H6    S    
Cu2   O6    S    
C11   C14   S    
Cu1   O5    S    
C10   O5    A    
C16   C17   A    
C23   C24   A    
C15   C16   A    
C15   H24   S    
C12   C22   A    
C3    H18   S    
C9    H19   S    
C17   H16   S    
C4    O3    A    
C11   O8    A    
C22   C26   A    
C5    C7    S    
C1    O1    A    
C18   C19   S    
C19   H7    S    
C14   C28   A    
C20   C21   S    
C21   H13   S    
C28   H1    S    
C23   C27   A    
C6    H4    S    
C13   C24   A    
Cu2   O4    S    
C8    C9    S    
C1    C3    S    
C21   H10   S    
