data_mof_unit_63925.cif
_audit_creation_date              2012-12-10T16:50:34-0500
_audit_creation_method            fapswitch 2.2
_symmetry_space_group_name_H-M    P1
_symmetry_Int_Tables_number       1
_space_group_crystal_system       triclinic
_cell_length_a                    26.254708
_cell_length_b                    26.240363
_cell_length_c                    22.335225
_cell_angle_alpha                 89.999841
_cell_angle_beta                  53.789186
_cell_angle_gamma                 89.999277
_cell_volume                      12415.3662261

loop_
_atom_site_label
_atom_site_type_symbol
_atom_type_description
_atom_site_fract_x
_atom_site_fract_y
_atom_site_fract_z
_atom_type_partial_charge
C1    C     C_R   0.650494 0.750007 0.699024 0.820104
C2    C     C_3   0.033045 0.262248 0.042438 0.498884
C3    C     C_2   0.553677 0.751714 0.504944 -0.341258
C4    C     C_2   0.991630 0.715679 0.461774 0.481711
C5    C     C_2   0.991640 0.284307 0.461752 0.481637
C6    C     C_2   0.491629 0.215678 0.461776 0.481646
C7    C     C_2   0.491641 0.784307 0.461750 0.481749
C8    C     C_3   0.532904 0.237138 0.042438 0.498880
C9    C     C_3   0.532339 0.765053 0.042439 0.499042
C10   C     C_3   0.964284 0.803057 0.043305 -0.445309
C11   C     C_3   0.961924 0.197619 0.043320 -0.445455
C12   C     C_3   0.462519 0.302563 0.043317 -0.445423
C13   C     C_3   0.464675 0.696842 0.043302 -0.445454
C14   C     C_3   0.007574 0.803186 0.957196 -0.392760
C15   C     C_3   0.005212 0.197477 0.957210 -0.392694
C16   C     C_3   0.505807 0.302701 0.957207 -0.392798
C17   C     C_R   0.650493 0.249993 0.699024 0.819855
C18   C     C_3   0.507967 0.696716 0.957193 -0.392749
C19   C     C_1   0.110650 0.749985 0.778412 -0.137584
C20   C     C_1   0.110652 0.250015 0.778412 -0.137641
C21   C     C_1   0.610651 0.249985 0.778412 -0.137686
C22   C     C_1   0.610649 0.750016 0.778412 -0.137574
C23   C     C_3   0.963437 0.749410 0.073202 0.126418
C24   C     C_3   0.963460 0.250585 0.073202 0.126749
C25   C     C_3   0.463454 0.249414 0.073202 0.126708
C26   C     C_3   0.463433 0.750591 0.073202 0.126542
C27   C     C_3   0.074846 0.734348 0.956304 -0.445318
C28   C     C_R   0.150494 0.250007 0.699024 0.820120
C29   C     C_3   0.075490 0.263267 0.956302 -0.445403
C30   C     C_3   0.575337 0.236125 0.956302 -0.445410
C31   C     C_3   0.574729 0.766042 0.956304 -0.445309
C32   C     C_3   0.036368 0.749574 0.926744 0.211248
C33   C     C_3   0.036387 0.250430 0.926744 0.211383
C34   C     C_3   0.536382 0.249572 0.926744 0.211459
C35   C     C_3   0.536364 0.750425 0.926745 0.211238
C36   C     C_3   0.981837 0.710789 0.956525 -0.472525
C37   C     C_3   0.983628 0.290945 0.956512 -0.472566
C38   C     C_3   0.483167 0.209488 0.956515 -0.472591
C39   C     C_R   0.150493 0.749993 0.699024 0.819856
C40   C     C_3   0.481548 0.788919 0.956528 -0.472484
C41   C     C_3   0.938080 0.711067 0.043054 0.201798
C42   C     C_3   0.939857 0.290693 0.043040 0.201767
C43   C     C_3   0.439400 0.209747 0.043043 0.201790
C44   C     C_3   0.437794 0.788637 0.043056 0.201810
C45   C     C_R   0.849563 0.749963 0.300982 0.819139
C46   C     C_R   0.849562 0.250037 0.300983 0.819032
C47   C     C_R   0.349563 0.249963 0.300982 0.819118
C48   C     C_R   0.349562 0.750037 0.300983 0.819025
C49   C     C_1   0.077183 0.749857 0.845195 -0.057631
C50   C     C_2   0.945794 0.751396 0.497001 -0.328410
C51   C     C_1   0.077192 0.250144 0.845195 -0.057658
C52   C     C_1   0.577189 0.249857 0.845195 -0.057745
C53   C     C_1   0.577182 0.750143 0.845195 -0.057584
C54   C     C_1   0.922667 0.749654 0.154822 0.020221
C55   C     C_1   0.922677 0.250342 0.154822 0.020028
C56   C     C_1   0.422674 0.249657 0.154822 0.020081
C57   C     C_1   0.422665 0.750347 0.154822 0.020113
C58   C     C_1   0.889286 0.749807 0.221601 -0.098912
C59   C     C_1   0.889289 0.250190 0.221601 -0.099320
C60   C     C_1   0.389289 0.249809 0.221601 -0.099084
C61   C     C_2   0.945794 0.248601 0.497002 -0.328498
C62   C     C_1   0.389285 0.750193 0.221601 -0.099211
C63   C     C_2   0.742498 0.028054 0.456958 -0.156059
C64   C     C_2   0.740612 0.971946 0.458566 -0.156600
C65   C     C_2   0.242499 0.528054 0.456958 -0.156204
C66   C     C_2   0.240612 0.471946 0.458566 -0.156591
C67   C     C_2   0.748094 0.056095 0.503015 -0.291322
C68   C     C_2   0.752380 0.943905 0.499363 -0.290812
C69   C     C_2   0.248095 0.556095 0.503015 -0.291324
C70   C     C_2   0.252380 0.443906 0.499363 -0.290827
C71   C     C_2   0.800794 0.471944 0.456892 -0.145537
C72   C     C_2   0.445794 0.251396 0.497001 -0.328490
C73   C     C_2   0.801064 0.528056 0.458472 -0.146532
C74   C     C_2   0.300795 0.971944 0.456892 -0.145606
C75   C     C_2   0.301063 0.028056 0.458472 -0.146500
C76   C     C_2   0.748921 0.443904 0.503009 -0.294654
C77   C     C_2   0.748303 0.556095 0.499426 -0.294564
C78   C     C_2   0.248921 0.943904 0.503009 -0.294593
C79   C     C_2   0.248303 0.056095 0.499427 -0.294539
C80   C     C_R   0.749939 0.611368 0.499883 0.858694
C81   C     C_R   0.750002 0.388632 0.500253 0.858807
C82   C     C_R   0.249939 0.111368 0.499883 0.858703
C83   C     C_2   0.445794 0.748601 0.497002 -0.328473
C84   C     C_R   0.250002 0.888632 0.500253 0.858830
C85   C     C_R   0.750252 0.888630 0.499865 0.856483
C86   C     C_R   0.749798 0.111369 0.500251 0.856832
C87   C     C_R   0.250252 0.388630 0.499865 0.856528
C88   C     C_R   0.249798 0.611370 0.500251 0.856698
C89   C     C_R   0.611148 0.750160 0.500475 0.891464
C90   C     C_R   0.611148 0.249840 0.500476 0.891496
C91   C     C_R   0.111148 0.250160 0.500475 0.891344
C92   C     C_R   0.111148 0.749840 0.500476 0.891670
C93   C     C_R   0.888842 0.749818 0.499871 0.888810
C94   C     C_3   0.032448 0.735340 0.042439 0.499046
C95   C     C_R   0.888842 0.250181 0.499870 0.889017
C96   C     C_R   0.388842 0.249817 0.499871 0.888827
C97   C     C_R   0.388843 0.750181 0.499870 0.888980
C98   C     C_2   0.049808 0.719937 0.457884 -0.283272
C99   C     C_2   0.049815 0.280052 0.457869 -0.283660
C100  C     C_2   0.549806 0.219936 0.457886 -0.283497
C101  C     C_2   0.549815 0.780051 0.457868 -0.283482
C102  C     C_2   0.053674 0.748284 0.504948 -0.341274
C103  C     C_2   0.053676 0.251714 0.504944 -0.341236
C104  C     C_2   0.553674 0.248284 0.504948 -0.341281
F1    F     F_    0.056247 0.770357 0.066614 -0.654983
F2    F     F_    0.055242 0.225666 0.066624 -0.655319
F3    F     F_    0.555514 0.273329 0.066622 -0.655335
F4    F     F_    0.556395 0.730301 0.066611 -0.655039
H1    H     H_    0.090396 0.697586 0.415702 0.183029
H2    H     H_    0.891771 0.279199 0.061498 0.165370
H3    H     H_    0.391446 0.221680 0.061501 0.165372
H4    H     H_    0.390358 0.775140 0.061511 0.165525
H5    H     H_    0.001543 0.672074 0.934772 0.194593
H6    H     H_    0.005055 0.329227 0.934747 0.194608
H7    H     H_    0.504160 0.171089 0.934752 0.194571
H8    H     H_    0.500969 0.827697 0.934777 0.194610
H9    H     H_    0.033862 0.697441 0.063621 0.081446
H10   H     H_    0.036140 0.299574 0.063610 0.081348
H11   H     H_    0.535576 0.199659 0.063612 0.081391
H12   H     H_    0.090406 0.302396 0.415681 0.182851
H13   H     H_    0.533474 0.803039 0.063625 0.081392
H14   H     H_    0.094790 0.695428 0.936509 0.134939
H15   H     H_    0.097162 0.301699 0.936498 0.134885
H16   H     H_    0.596573 0.197562 0.936500 0.134873
H17   H     H_    0.594385 0.805034 0.936513 0.134952
H18   H     H_    0.953648 0.720897 0.935744 0.173852
H19   H     H_    0.955027 0.282566 0.935732 0.173700
H20   H     H_    0.454662 0.218308 0.935735 0.173709
H21   H     H_    0.453434 0.778528 0.935747 0.173858
H22   H     H_    0.738395 0.046685 0.416546 0.177149
H23   H     H_    0.590394 0.197583 0.415705 0.182942
H24   H     H_    0.729723 0.953314 0.423938 0.176965
H25   H     H_    0.238395 0.546685 0.416546 0.177112
H26   H     H_    0.229724 0.453314 0.423937 0.176951
H27   H     H_    0.750735 0.039194 0.545237 0.151916
H28   H     H_    0.764912 0.960807 0.533155 0.152191
H29   H     H_    0.250735 0.539194 0.545236 0.151931
H30   H     H_    0.264912 0.460807 0.533156 0.152173
H31   H     H_    0.845501 0.453305 0.416439 0.185787
H32   H     H_    0.846743 0.546697 0.423698 0.186149
H33   H     H_    0.345502 0.953305 0.416440 0.185753
H34   H     H_    0.590407 0.802395 0.415679 0.182951
H35   H     H_    0.346743 0.046697 0.423698 0.186149
H36   H     H_    0.013809 0.769606 0.549750 0.154271
H37   H     H_    0.013810 0.230397 0.549751 0.154252
H38   H     H_    0.513810 0.269606 0.549750 0.154253
H39   H     H_    0.513810 0.730398 0.549752 0.154273
H40   H     H_    0.703851 0.460797 0.545269 0.151414
H41   H     H_    0.701810 0.539202 0.533405 0.151865
H42   H     H_    0.203851 0.960797 0.545268 0.151429
H43   H     H_    0.201811 0.039202 0.533405 0.151874
H44   H     H_    0.950041 0.784230 0.523108 0.107945
H45   H     H_    0.979739 0.815055 0.936625 0.179203
H46   H     H_    0.950030 0.215776 0.523131 0.107963
H47   H     H_    0.450042 0.284230 0.523107 0.107901
H48   H     H_    0.450030 0.715776 0.523132 0.107971
H49   H     H_    0.115397 0.760865 0.933979 0.220221
H50   H     H_    0.114828 0.235465 0.933986 0.220114
H51   H     H_    0.614988 0.263606 0.933984 0.220100
H52   H     H_    0.615476 0.739741 0.933977 0.220210
H53   H     H_    0.915593 0.814360 0.063888 0.164370
H54   H     H_    0.912768 0.188041 0.063903 0.164343
H55   H     H_    0.413474 0.312580 0.063899 0.164317
H56   H     H_    0.976887 0.187319 0.936640 0.179193
H57   H     H_    0.416070 0.685258 0.063884 0.164298
H58   H     H_    0.981305 0.832054 0.064064 0.238974
H59   H     H_    0.977621 0.167429 0.064089 0.238867
H60   H     H_    0.478556 0.332455 0.064084 0.238872
H61   H     H_    0.481910 0.668046 0.064059 0.238902
H62   H     H_    0.045959 0.831669 0.936731 0.196917
H63   H     H_    0.042296 0.167767 0.936756 0.196896
H64   H     H_    0.543226 0.332106 0.936751 0.196837
H65   H     H_    0.546561 0.668440 0.936726 0.196896
H66   H     H_    0.972318 0.646462 0.049270 0.331585
H67   H     H_    0.477599 0.313296 0.936637 0.179147
H68   H     H_    0.976945 0.353568 0.049238 0.331469
H69   H     H_    0.475774 0.146420 0.049244 0.331484
H70   H     H_    0.471555 0.853514 0.049276 0.331552
H71   H     H_    0.022007 0.652216 0.405906 0.327322
H72   H     H_    0.022038 0.347752 0.405838 0.327248
H73   H     H_    0.522004 0.152213 0.405913 0.327260
H74   H     H_    0.522041 0.847749 0.405832 0.327346
H75   H     H_    0.480220 0.684567 0.936621 0.179181
H76   H     H_    0.890546 0.724284 0.061509 0.165526
O1    O     O_3   0.750030 0.750030 0.500000 -0.498281
O2    O     O_R   0.758570 0.135390 0.542990 -0.642848
O3    O     O_R   0.258570 0.364610 0.542990 -0.642895
O4    O     O_R   0.258570 0.635390 0.542990 -0.642842
O5    O     O_R   0.638020 0.720010 0.663980 -0.637842
O6    O     O_R   0.638020 0.279990 0.663980 -0.638057
O7    O     O_R   0.138020 0.220010 0.663980 -0.637838
O8    O     O_R   0.138020 0.779990 0.663980 -0.638042
O9    O     O_R   0.801960 0.780050 0.336020 -0.643188
O10   O     O_R   0.801960 0.219950 0.336020 -0.643358
O11   O     O_R   0.301960 0.280050 0.336020 -0.643206
O12   O     O_3   0.750030 0.249970 0.500000 -0.498232
O13   O     O_R   0.301960 0.719950 0.336020 -0.643384
O14   O     O_R   0.698090 0.780090 0.663980 -0.635079
O15   O     O_R   0.698090 0.219910 0.663980 -0.635333
O16   O     O_R   0.198090 0.280090 0.663980 -0.635114
O17   O     O_R   0.198090 0.719910 0.663980 -0.635302
O18   O     O_R   0.862050 0.719970 0.336020 -0.623635
O19   O     O_R   0.862050 0.280030 0.336020 -0.623920
O20   O     O_R   0.362050 0.219970 0.336020 -0.623714
O21   O     O_R   0.362050 0.780030 0.336020 -0.623821
O22   O     O_R   0.698510 0.635460 0.542990 -0.645458
O23   O     O_3   0.250030 0.250030 0.500000 -0.498235
O24   O     O_R   0.698510 0.364540 0.542990 -0.645447
O25   O     O_R   0.198510 0.135460 0.542990 -0.645448
O26   O     O_R   0.198510 0.864540 0.542990 -0.645416
O27   O     O_R   0.741470 0.864610 0.457010 -0.642545
O28   O     O_R   0.741470 0.135390 0.457010 -0.642564
O29   O     O_R   0.241470 0.364610 0.457010 -0.642509
O30   O     O_R   0.241470 0.635390 0.457010 -0.642652
O31   O     O_R   0.613960 0.720010 0.542990 -0.645329
O32   O     O_R   0.613960 0.279990 0.542990 -0.645170
O33   O     O_R   0.113960 0.220010 0.542990 -0.645345
O34   O     O_3   0.250030 0.749970 0.500000 -0.498272
O35   O     O_R   0.113960 0.779990 0.542990 -0.645140
O36   O     O_R   0.843120 0.780070 0.542990 -0.659857
O37   O     O_R   0.843120 0.219930 0.542990 -0.659667
O38   O     O_R   0.343120 0.280070 0.542990 -0.659877
O39   O     O_R   0.343120 0.719930 0.542990 -0.659670
O40   O     O_R   0.656940 0.780080 0.457010 -0.641394
O41   O     O_R   0.656940 0.219920 0.457010 -0.641296
O42   O     O_R   0.156940 0.280080 0.457010 -0.641467
O43   O     O_R   0.156940 0.719920 0.457010 -0.641207
O44   O     O_R   0.886110 0.719980 0.457010 -0.567708
O45   O     O_R   0.801570 0.635440 0.457010 -0.631882
O46   O     O_R   0.886110 0.280020 0.457010 -0.567583
O47   O     O_R   0.386110 0.219980 0.457010 -0.567759
O48   O     O_R   0.386110 0.780020 0.457010 -0.567515
O49   O     O_3   0.930032 0.661764 0.072434 -0.747275
O50   O     O_3   0.934006 0.339651 0.072405 -0.747475
O51   O     O_3   0.432994 0.160692 0.072411 -0.747381
O52   O     O_3   0.429383 0.837987 0.072440 -0.747392
O53   O     O_3   0.984927 0.674988 0.427483 -0.725847
O54   O     O_3   0.984952 0.324986 0.427431 -0.725642
O55   O     O_3   0.484925 0.174985 0.427489 -0.725985
O56   O     O_R   0.801570 0.364560 0.457010 -0.631919
O57   O     O_3   0.484954 0.824984 0.427427 -0.725444
O58   O     O_R   0.301570 0.135440 0.457010 -0.631869
O59   O     O_R   0.301570 0.864560 0.457010 -0.631946
O60   O     O_R   0.758570 0.864610 0.542990 -0.642874
Zn1   Zn    Zn3+2 0.823660 0.707100 0.438580 1.020957
Zn2   Zn    Zn3+2 0.737810 0.207050 0.438580 0.970920
Zn3   Zn    Zn3+2 0.237810 0.292950 0.438580 0.970869
Zn4   Zn    Zn3+2 0.237810 0.707050 0.438580 0.970940
Zn5   Zn    Zn3+2 0.762240 0.792950 0.561420 0.973401
Zn6   Zn    Zn3+2 0.762240 0.207050 0.561420 0.973354
Zn7   Zn    Zn3+2 0.262240 0.292950 0.561420 0.973359
Zn8   Zn    Zn3+2 0.262240 0.707050 0.561420 0.973331
Zn9   Zn    Zn3+2 0.823660 0.292900 0.438580 1.020857
Zn10  Zn    Zn3+2 0.323660 0.207100 0.438580 1.020846
Zn11  Zn    Zn3+2 0.323660 0.792900 0.438580 1.020978
Zn12  Zn    Zn3+2 0.676410 0.707120 0.561420 0.974510
Zn13  Zn    Zn3+2 0.676410 0.292880 0.561420 0.974357
Zn14  Zn    Zn3+2 0.176410 0.207120 0.561420 0.974465
Zn15  Zn    Zn3+2 0.176410 0.792880 0.561420 0.974495
Zn16  Zn    Zn3+2 0.737810 0.792950 0.438580 0.970971

loop_
_geom_bond_atom_site_label_1
_geom_bond_atom_site_label_2
_ccdc_geom_bond_type
O39   Zn8   S    
C7    C83   D    
C40   H21   S    
H74   O57   S    
C94   F1    S    
C3    H39   S    
C8    C25   S    
C4    C98   S    
C46   C59   S    
C35   C53   S    
C24   C42   S    
C90   O41   A    
C80   O22   A    
C1    O14   A    
O14   Zn5   S    
C95   O46   A    
C80   O45   A    
C14   H62   S    
O46   Zn9   S    
O22   Zn12  S    
C61   H46   S    
C25   C43   S    
O1    Zn12  S    
C90   O32   A    
C2    H10   S    
C100  H23   S    
C26   C44   S    
C57   C62   T    
H69   O51   S    
C66   C70   D    
C24   C55   S    
C6    C72   D    
C103  H37   S    
O56   Zn9   S    
C95   O37   A    
C75   C79   D    
C88   O30   A    
C13   C18   S    
C2    C29   S    
C28   O7    A    
O34   Zn15  S    
C32   C36   S    
C47   O11   A    
O23   Zn10  S    
C86   O28   A    
C20   C51   T    
C55   C59   T    
C44   O52   S    
O16   Zn7   S    
C71   C76   D    
C17   O6    A    
C84   O26   A    
C96   O47   A    
C97   O48   A    
C70   C87   S    
O1    Zn1   S    
C29   C33   S    
C11   C24   S    
C100  C104  D    
O9    Zn16  S    
O59   Zn11  S    
C82   O58   A    
O29   Zn3   S    
C63   H22   S    
C37   C42   S    
O4    Zn8   S    
O47   Zn10  S    
C16   H64   S    
O1    Zn16  S    
C16   C34   S    
O43   Zn4   S    
C66   H26   S    
C11   C15   S    
C8    F3    S    
C70   H30   S    
H68   O50   S    
C64   H24   S    
C92   O43   A    
C45   O18   A    
C48   O21   A    
C9    H13   S    
O34   Zn11  S    
C25   C56   S    
C41   H76   S    
C50   H44   S    
C84   O59   A    
C18   C35   S    
C74   C78   D    
C31   H52   S    
O21   Zn11  S    
C92   C102  S    
C89   O31   A    
C82   O25   A    
O45   Zn1   S    
O38   Zn7   S    
H73   O55   S    
C13   H61   S    
C99   H12   S    
C1    C22   S    
C98   H1    S    
O36   Zn5   S    
C69   H29   S    
C68   C85   S    
O6    Zn13  S    
C36   C41   S    
O48   Zn11  S    
C43   H3    S    
O32   Zn13  S    
C89   O40   A    
C36   H5    S    
C85   O27   A    
C27   H14   S    
C9    C26   S    
C46   O10   A    
C22   C53   T    
C45   O9    A    
C30   H51   S    
C32   C49   S    
C63   C67   D    
C45   C58   S    
O60   Zn5   S    
C30   C34   S    
C15   H63   S    
C11   H59   S    
C12   C16   S    
C15   H56   S    
O42   Zn3   S    
O28   Zn2   S    
C99   C103  D    
C5    O54   S    
C77   H41   S    
O7    Zn14  S    
C71   C73   S    
C9    C31   S    
C27   H49   S    
C87   O3    A    
C37   H6    S    
C20   C28   S    
O26   Zn15  S    
C98   C102  D    
O23   Zn14  S    
O11   Zn3   S    
O12   Zn9   S    
C2    F2    S    
C11   H54   S    
C33   C37   S    
O33   Zn14  S    
C97   O39   A    
C4    C50   D    
C9    F4    S    
C6    C100  S    
C91   O33   A    
C92   O35   A    
C67   H27   S    
C18   H65   S    
C5    C99   S    
C104  H38   S    
O20   Zn10  S    
C101  H34   S    
C19   C49   T    
O15   Zn6   S    
C13   H57   S    
C102  H36   S    
H72   O54   S    
C4    O53   S    
O17   Zn8   S    
C7    O57   S    
C87   O29   A    
C5    C61   D    
C83   H48   S    
C28   O16   A    
C68   H28   S    
C90   C104  S    
C69   C88   S    
C75   H35   S    
C81   O24   A    
C44   H4    S    
C16   H67   S    
C46   O19   A    
C74   H33   S    
C30   H16   S    
C86   O2    A    
C10   H53   S    
C96   O38   A    
C93   O36   A    
C91   O42   A    
O10   Zn2   S    
C10   C23   S    
C31   C35   S    
C13   C26   S    
O35   Zn15  S    
C31   H17   S    
C19   C39   S    
O12   Zn6   S    
H66   O49   S    
C64   C68   D    
C48   C62   S    
C47   C60   S    
C39   O8    A    
C78   H42   S    
C23   C54   S    
C79   H43   S    
C54   C58   T    
C77   C80   S    
O41   Zn2   S    
O18   Zn1   S    
C67   C86   S    
O24   Zn13  S    
O12   Zn2   S    
C27   C32   S    
C34   C38   S    
O34   Zn8   S    
O8    Zn15  S    
C36   H18   S    
C91   C103  S    
C63   C64   S    
O23   Zn3   S    
C76   C81   S    
C12   H60   S    
C79   C82   S    
C38   H20   S    
C61   C95   S    
C50   C93   S    
C71   H31   S    
C29   H50   S    
O44   Zn1   S    
C73   H32   S    
C10   H58   S    
C33   C51   S    
C6    O55   S    
C48   O13   A    
O13   Zn4   S    
C34   C52   S    
C23   C41   S    
C81   O56   A    
O40   Zn16  S    
C12   C25   S    
C3    C89   S    
C8    C30   S    
C39   O17   A    
C35   C40   S    
C42   H2    S    
C38   C43   S    
C14   H45   S    
C43   O51   S    
C12   H55   S    
C2    C24   S    
C38   H7    S    
C42   O50   S    
C93   O44   A    
C3    C101  D    
O25   Zn14  S    
C40   H8    S    
C41   O49   S    
C18   H75   S    
C65   C69   D    
C29   H15   S    
O31   Zn12  S    
C94   H9    S    
C47   O20   A    
C17   O15   A    
O5    Zn12  S    
C85   O60   A    
O3    Zn7   S    
O12   Zn13  S    
C26   C57   S    
C17   C21   S    
C78   C84   S    
O2    Zn6   S    
O58   Zn10  S    
H70   O52   S    
O1    Zn5   S    
C88   O4    A    
C72   C96   S    
C23   C94   S    
C56   C60   T    
C40   C44   S    
C14   C32   S    
O37   Zn6   S    
C76   H40   S    
H71   O53   S    
C65   C66   S    
C83   C97   S    
O27   Zn16  S    
C72   H47   S    
C73   C77   D    
C27   C94   S    
O30   Zn4   S    
O34   Zn4   S    
O19   Zn9   S    
O23   Zn7   S    
C15   C33   S    
C21   C52   T    
C65   H25   S    
C74   C75   S    
C8    H11   S    
C10   C14   S    
C37   H19   S    
C7    C101  S    
C1    O5    A    
