data_mof_unit_54385.cif
_audit_creation_date              2012-12-11T15:44:55-0500
_audit_creation_method            fapswitch 2.2
_symmetry_space_group_name_H-M    P1
_symmetry_Int_Tables_number       1
_space_group_crystal_system       triclinic
_cell_length_a                    18.975839
_cell_length_b                    10.979845
_cell_length_c                    18.77355
_cell_angle_alpha                 89.76684
_cell_angle_beta                  90.156794
_cell_angle_gamma                 90.314817
_cell_volume                      3911.3965496

loop_
_atom_site_label
_atom_site_type_symbol
_atom_type_description
_atom_site_fract_x
_atom_site_fract_y
_atom_site_fract_z
_atom_type_partial_charge
C1    C     C_R   0.761078 0.533158 0.646315 0.535248
C2    C     C_R   0.265793 0.989089 0.520027 -0.105133
C3    C     C_R   0.509328 0.952672 0.960500 0.026437
C4    C     C_R   0.014040 0.233677 0.958990 -0.175385
C5    C     C_R   0.015150 0.231513 0.033521 -0.171437
C6    C     C_R   0.522042 0.734248 0.955992 -0.172281
C7    C     C_R   0.526870 0.731913 0.030491 -0.164253
C8    C     C_3   0.957110 0.551989 0.044335 -0.263768
C9    C     C_3   0.953372 0.556326 0.964162 -0.220883
C10   C     C_3   0.464114 0.052391 0.043493 -0.260110
C11   C     C_3   0.458977 0.057677 0.963373 -0.227586
C12   C     C_R   0.759411 0.535193 0.851143 0.526791
C13   C     C_R   0.325588 0.600506 0.445721 -0.153437
C14   C     C_R   0.237671 0.528194 0.145720 0.542278
C15   C     C_R   0.260293 0.032745 0.852190 0.525471
C16   C     C_R   0.737820 0.028394 0.145767 0.537249
C17   C     C_R   0.771807 0.123749 0.852156 0.544652
C18   C     C_R   0.227547 0.127896 0.146391 0.556570
C19   C     C_R   0.272093 0.624026 0.852180 0.547477
C20   C     C_R   0.724579 0.634780 0.143588 0.550528
C21   C     C_R   0.970586 0.347399 0.853296 0.539759
C22   C     C_R   0.030538 0.346588 0.145936 0.546845
C23   C     C_R   0.471318 0.847354 0.852757 0.539694
C24   C     C_R   0.765914 0.489154 0.520016 -0.105166
C25   C     C_R   0.532796 0.846650 0.144666 0.545056
C26   C     C_R   0.757161 0.106847 0.416581 -0.008049
C27   C     C_R   0.252845 0.072932 0.574511 0.053533
C28   C     C_R   0.257150 0.606855 0.416580 -0.007962
C29   C     C_R   0.752856 0.572931 0.574510 0.053653
C30   C     C_R   0.704381 0.160572 0.457596 0.018995
C31   C     C_R   0.222621 0.184457 0.559144 -0.008659
C32   C     C_R   0.204355 0.660505 0.457610 0.019005
C33   C     C_R   0.722506 0.684350 0.559150 -0.008457
C34   C     C_R   0.715510 0.182434 0.529383 0.040282
C35   C     C_3   0.629444 0.123184 0.469538 -0.248033
C36   C     C_R   0.210677 0.216702 0.488696 -0.017163
C37   C     C_R   0.215488 0.682372 0.529396 0.040290
C38   C     C_R   0.710551 0.716592 0.488706 -0.017219
C39   C     C_3   0.251885 0.306247 0.577702 -0.266182
C40   C     C_3   0.129440 0.622993 0.469573 -0.248027
C41   C     C_3   0.751610 0.806231 0.577743 -0.266394
C42   C     C_3   0.642502 0.143203 0.548450 -0.252510
C43   C     C_3   0.241107 0.340192 0.500533 -0.255095
C44   C     C_3   0.142499 0.643060 0.548480 -0.252579
C45   C     C_R   0.239876 0.535613 0.353170 0.530314
C46   C     C_3   0.740810 0.840185 0.500577 -0.255160
C47   C     C_R   0.779931 0.154628 0.562080 -0.007384
C48   C     C_R   0.225850 0.136052 0.433705 0.051799
C49   C     C_R   0.279923 0.654618 0.562081 -0.007312
C50   C     C_R   0.725845 0.636042 0.433705 0.051576
C51   C     C_R   0.990021 0.328988 0.420919 -0.009683
C52   C     C_R   0.994423 0.350228 0.570345 -0.007057
C53   C     C_R   0.490018 0.828992 0.420918 -0.009875
C54   C     C_R   0.494423 0.850227 0.570345 -0.006980
C55   C     C_R   0.014217 0.108573 0.434723 -0.139010
C56   C     C_R   0.261074 0.033166 0.646318 0.535219
C57   C     C_R   0.040467 0.142251 0.578985 -0.149677
C58   C     C_R   0.514207 0.608585 0.434719 -0.139131
C59   C     C_R   0.540451 0.642246 0.578982 -0.149605
C60   C     C_R   0.038776 0.010974 0.476079 0.344529
C61   C     C_R   0.052910 0.028332 0.548282 0.314914
C62   C     C_R   0.538765 0.510990 0.476071 0.344515
C63   C     C_R   0.552890 0.528335 0.548277 0.314974
C64   C     C_R   0.013524 0.239670 0.538215 -0.054756
C65   C     C_R   0.005916 0.225858 0.463952 -0.046539
C66   C     C_R   0.513516 0.739670 0.538213 -0.054761
C67   C     C_R   0.739876 0.035609 0.353172 0.529615
C68   C     C_R   0.505909 0.725863 0.463950 -0.046732
C69   C     C_R   0.977093 0.453371 0.526064 -0.032728
C70   C     C_R   0.965167 0.435536 0.453032 -0.039812
C71   C     C_R   0.477099 0.953372 0.526065 -0.032736
C72   C     C_R   0.465166 0.935538 0.453033 -0.039928
C73   C     C_R   0.790926 0.170195 0.638617 0.558284
C74   C     C_R   0.209281 0.169014 0.361504 0.563284
C75   C     C_R   0.290924 0.670192 0.638616 0.557663
C76   C     C_R   0.709280 0.669014 0.361504 0.563640
C77   C     C_R   0.972411 0.575078 0.551368 -0.134633
C78   C     C_R   0.836654 0.122970 0.518233 -0.155153
C79   C     C_R   0.934335 0.529076 0.411658 -0.143639
C80   C     C_R   0.472434 0.075079 0.551367 -0.134629
C81   C     C_R   0.434334 0.029078 0.411661 -0.143563
C82   C     C_R   0.944317 0.669453 0.509461 0.309991
C83   C     C_R   0.924493 0.645996 0.439457 0.300746
C84   C     C_R   0.444351 0.169461 0.509458 0.309869
C85   C     C_R   0.424511 0.146004 0.439458 0.300717
C86   C     C_R   0.741944 0.058467 0.070110 -0.005120
C87   C     C_R   0.252022 0.068220 0.926172 0.004689
C88   C     C_R   0.241897 0.559586 0.070297 -0.001546
C89   C     C_R   0.251338 0.019738 0.449669 -0.106059
C90   C     C_R   0.742397 0.595381 0.918427 -0.000794
C91   C     C_R   0.796406 0.002955 0.033349 0.008617
C92   C     C_R   0.217839 0.982633 0.969379 0.005047
C93   C     C_R   0.299374 0.511691 0.034616 0.006915
C94   C     C_R   0.684346 0.551129 0.956800 -0.013624
C95   C     C_R   0.801409 0.010396 0.960795 0.061716
C96   C     C_R   0.215717 0.994266 0.042057 -0.010511
C97   C     C_R   0.305078 0.518980 0.962289 0.071907
C98   C     C_R   0.680777 0.563979 0.029212 0.007263
C99   C     C_R   0.689075 0.109780 0.954706 -0.114780
C100  C     C_R   0.336648 0.623016 0.518224 -0.155180
C101  C     C_R   0.290854 0.171113 0.033823 -0.103367
C102  C     C_R   0.189084 0.604059 0.953761 -0.105468
C103  C     C_R   0.785782 0.686061 0.028552 -0.101345
C104  C     C_R   0.684604 0.106888 0.029404 0.204066
C105  C     C_R   0.291411 0.162509 0.959233 0.187919
C106  C     C_R   0.183077 0.599589 0.028222 0.208441
C107  C     C_R   0.788861 0.677352 0.953684 0.193795
C108  C     C_3   0.873691 0.016174 0.044903 -0.281081
C109  C     C_3   0.143174 0.939590 0.965390 -0.247067
C110  C     C_3   0.375980 0.533027 0.047135 -0.283706
C111  C     C_R   0.751453 0.519798 0.449655 -0.106014
C112  C     C_3   0.652393 0.426041 0.961108 -0.236728
C113  C     C_3   0.879685 0.027066 0.965019 -0.245450
C114  C     C_3   0.140873 0.952657 0.045283 -0.253538
C115  C     C_3   0.382690 0.543062 0.967144 -0.242647
C116  C     C_3   0.648642 0.441947 0.040823 -0.246217
C117  C     C_R   0.751145 0.073387 0.920785 -0.040529
C118  C     C_R   0.248890 0.091541 0.075427 -0.037905
C119  C     C_R   0.252926 0.575069 0.921248 -0.032932
C120  C     C_R   0.734630 0.619863 0.067252 -0.038284
C121  C     C_R   0.969860 0.348621 0.645417 0.527894
C122  C     C_R   0.825594 0.100448 0.445730 -0.153481
C123  C     C_R   0.026511 0.343986 0.351722 0.524994
C124  C     C_R   0.469860 0.848621 0.645417 0.527514
C125  C     C_R   0.526510 0.843987 0.351721 0.525994
C126  C     C_R   0.009223 0.340213 0.072244 0.007131
C127  C     C_R   0.002442 0.344133 0.923344 0.004116
C128  C     C_R   0.516928 0.839857 0.069649 0.006432
C129  C     C_R   0.506224 0.844282 0.921347 0.002851
C130  C     C_R   0.007360 0.449646 0.035294 0.104948
C131  C     C_R   0.004435 0.452450 0.962586 0.029705
C132  C     C_R   0.513651 0.949460 0.033014 0.091251
Cr1   Cr    Cr6+3 0.885860 0.491680 0.749630 1.002771
Cr2   Cr    Cr6+3 0.112430 0.179310 0.249850 0.996243
Cr3   Cr    Cr6+3 0.387570 0.679310 0.750150 1.003155
Cr4   Cr    Cr6+3 0.612430 0.679310 0.249850 0.998252
Cr5   Cr    Cr6+3 0.114140 0.491680 0.250370 1.012967
Cr6   Cr    Cr6+3 0.385860 0.991680 0.749630 1.004697
Cr7   Cr    Cr6+3 0.614140 0.991680 0.250370 1.016277
Cr8   Cr    Cr6+3 0.730490 0.332970 0.748720 1.006963
Cr9   Cr    Cr6+3 0.269510 0.332970 0.251280 1.012922
Cr10  Cr    Cr6+3 0.230490 0.832970 0.748720 1.009971
Cr11  Cr    Cr6+3 0.769510 0.832970 0.251280 1.011359
Cr12  Cr    Cr6+3 0.887570 0.179310 0.750150 1.000983
H1    H     H_    0.888188 0.107024 0.540952 0.161654
H2    H     H_    0.138700 0.844068 0.947387 0.163594
H3    H     H_    0.402581 0.451422 0.069579 0.148790
H4    H     H_    0.690158 0.354325 0.945538 0.165766
H5    H     H_    0.887615 0.101256 0.073722 0.129075
H6    H     H_    0.108479 0.004605 0.936700 0.130572
H7    H     H_    0.386920 0.619957 0.075408 0.131292
H8    H     H_    0.599727 0.420997 0.935153 0.136603
H9    H     H_    0.895074 0.119748 0.947579 0.155986
H10   H     H_    0.104634 0.024266 0.062744 0.156684
H11   H     H_    0.395875 0.636671 0.949170 0.155735
H12   H     H_    0.261734 0.954593 0.407842 0.130506
H13   H     H_    0.593869 0.446798 0.061342 0.143992
H14   H     H_    0.909301 0.951275 0.940260 0.182117
H15   H     H_    0.135331 0.866307 0.074588 0.150635
H16   H     H_    0.414526 0.469035 0.943292 0.170137
H17   H     H_    0.684784 0.381170 0.070847 0.138774
H18   H     H_    0.014872 0.148750 0.930007 0.118533
H19   H     H_    0.017799 0.145505 0.061046 0.123449
H20   H     H_    0.523831 0.649497 0.926752 0.127227
H21   H     H_    0.535979 0.646006 0.057250 0.141374
H22   H     H_    0.982090 0.634221 0.067929 0.182075
H23   H     H_    0.388188 0.607104 0.540937 0.161662
H24   H     H_    0.900676 0.529413 0.943759 0.185684
H25   H     H_    0.489807 0.134021 0.066960 0.191634
H26   H     H_    0.405855 0.032195 0.943716 0.182018
H27   H     H_    0.906859 0.522829 0.069762 0.110039
H28   H     H_    0.976010 0.641270 0.941018 0.177753
H29   H     H_    0.414277 0.023341 0.069740 0.115669
H30   H     H_    0.481705 0.142477 0.940137 0.168095
H31   H     H_    0.868659 0.064097 0.414905 0.161976
H32   H     H_    0.288113 0.901064 0.532077 0.112560
H33   H     H_    0.368657 0.564197 0.414886 0.162029
H34   H     H_    0.761934 0.454712 0.407820 0.130350
H35   H     H_    0.788319 0.401186 0.532058 0.112513
H36   H     H_    0.117234 0.527249 0.455486 0.142334
H37   H     H_    0.807925 0.803616 0.594039 0.184280
H38   H     H_    0.617174 0.027480 0.455426 0.142239
H39   H     H_    0.308201 0.303426 0.593987 0.184581
H40   H     H_    0.592074 0.188733 0.445750 0.214536
H41   H     H_    0.216885 0.356677 0.614560 0.137883
H42   H     H_    0.092023 0.688468 0.445786 0.214395
H43   H     H_    0.716536 0.856499 0.614601 0.137848
H44   H     H_    0.610886 0.218120 0.570810 0.223207
H45   H     H_    0.647422 0.153025 0.924374 0.145255
H46   H     H_    0.201068 0.410858 0.493597 0.126379
H47   H     H_    0.110857 0.717956 0.570832 0.223046
H48   H     H_    0.700676 0.910682 0.493640 0.126335
H49   H     H_    0.641397 0.057482 0.580201 0.121454
H50   H     H_    0.291227 0.354843 0.471212 0.224261
H51   H     H_    0.141432 0.557350 0.580241 0.121397
H52   H     H_    0.790918 0.855040 0.471273 0.223997
H53   H     H_    0.999018 0.090243 0.380282 0.125869
H54   H     H_    0.053417 0.154792 0.634657 0.117058
H55   H     H_    0.499009 0.590260 0.380277 0.126132
H56   H     H_    0.318051 0.247245 0.058268 0.164546
H57   H     H_    0.553402 0.654782 0.634655 0.117247
H58   H     H_    0.919714 0.511806 0.356757 0.114639
H59   H     H_    0.995181 0.601731 0.601641 0.137488
H60   H     H_    0.419707 0.011809 0.356762 0.115016
H61   H     H_    0.495208 0.101722 0.601640 0.137590
H62   H     H_    0.951779 0.787856 0.585968 0.317669
H63   H     H_    0.895868 0.712903 0.348118 0.317796
H64   H     H_    0.451864 0.287885 0.585946 0.317909
H65   H     H_    0.395875 0.212907 0.348121 0.317922
H66   H     H_    0.638881 0.196593 0.104527 0.330535
H67   H     H_    0.146009 0.639860 0.922212 0.138862
H68   H     H_    0.311670 0.250746 0.871680 0.335456
H69   H     H_    0.128634 0.676351 0.102446 0.333597
H70   H     H_    0.825426 0.751803 0.867774 0.337731
H71   H     H_    0.037709 0.900033 0.395585 0.316559
H72   H     H_    0.079569 0.955834 0.638908 0.314974
H73   H     H_    0.537750 0.400102 0.395559 0.316718
H74   H     H_    0.579609 0.455867 0.638897 0.315239
H75   H     H_    0.823817 0.742709 0.056087 0.154030
H76   H     H_    0.897882 0.931762 0.066526 0.148883
O1    O     O_R   0.957020 0.451640 0.669920 -0.530747
O2    O     O_R   0.168040 0.093290 0.169870 -0.516976
O3    O     O_R   0.331960 0.593290 0.830130 -0.510067
O4    O     O_R   0.668040 0.593290 0.169870 -0.513493
O5    O     O_R   0.945600 0.250580 0.824860 -0.510120
O6    O     O_R   0.054400 0.250580 0.175140 -0.513111
O7    O     O_R   0.445600 0.750580 0.824860 -0.510581
O8    O     O_R   0.554400 0.750580 0.175140 -0.514407
O9    O     O_3   0.834640 0.334650 0.749500 -0.263156
O10   O     O_3   0.165360 0.334650 0.250500 -0.261942
O11   O     O_3   0.334640 0.834650 0.749500 -0.263960
O12   O     O_R   0.042980 0.451640 0.330080 -0.522173
O13   O     O_3   0.665360 0.834650 0.250500 -0.265066
O14   O     O_R   0.821450 0.543440 0.674610 -0.510884
O15   O     O_R   0.178550 0.543440 0.325390 -0.500895
O16   O     O_R   0.321450 0.043440 0.674610 -0.510290
O17   O     O_R   0.678550 0.043440 0.325390 -0.501037
O18   O     O_R   0.715320 0.458650 0.668100 -0.510552
O19   O     O_R   0.284680 0.458650 0.331900 -0.511763
O20   O     O_R   0.215320 0.958650 0.668100 -0.511138
O21   O     O_R   0.784680 0.958650 0.331900 -0.511924
O22   O     O_R   0.737170 0.209590 0.674530 -0.494820
O23   O     O_R   0.457020 0.951640 0.669920 -0.530920
O24   O     O_R   0.262830 0.209590 0.325470 -0.495582
O25   O     O_R   0.237170 0.709590 0.674530 -0.495899
O26   O     O_R   0.762830 0.709590 0.325470 -0.494253
O27   O     O_R   0.832710 0.092740 0.669580 -0.514330
O28   O     O_R   0.167290 0.092740 0.330420 -0.518400
O29   O     O_R   0.332710 0.592740 0.669580 -0.514262
O30   O     O_R   0.667290 0.592740 0.330420 -0.517658
O31   O     O_R   0.946290 0.250060 0.676040 -0.517139
O32   O     O_R   0.053710 0.250060 0.323960 -0.525315
O33   O     O_R   0.446290 0.750060 0.676040 -0.517384
O34   O     O_R   0.542980 0.951640 0.330080 -0.521346
O35   O     O_R   0.553710 0.750060 0.323960 -0.524718
O36   O     O_R   0.956270 0.452200 0.830470 -0.517789
O37   O     O_R   0.043730 0.452200 0.169530 -0.498142
O38   O     O_R   0.456270 0.952200 0.830470 -0.518113
O39   O     O_R   0.543730 0.952200 0.169530 -0.498333
O40   O     O_R   0.820760 0.543950 0.823440 -0.499824
O41   O     O_R   0.179240 0.543950 0.176560 -0.499445
O42   O     O_R   0.320760 0.043950 0.823440 -0.501318
O43   O     O_R   0.679240 0.043950 0.176560 -0.493403
O44   O     O_R   0.714570 0.459210 0.828640 -0.526454
O45   O     O_R   0.736470 0.210100 0.823360 -0.509278
O46   O     O_R   0.285430 0.459210 0.171360 -0.521357
O47   O     O_R   0.214570 0.959210 0.828640 -0.521653
O48   O     O_R   0.785430 0.959210 0.171360 -0.522414
O49   O     O_3   0.937305 0.786330 0.535195 -0.641968
O50   O     O_3   0.899712 0.740759 0.398139 -0.658586
O51   O     O_3   0.437376 0.286349 0.535183 -0.642063
O52   O     O_3   0.399745 0.240775 0.398137 -0.658639
O53   O     O_3   0.625328 0.156766 0.059399 -0.719022
O54   O     O_3   0.328861 0.249214 0.921492 -0.720972
O55   O     O_3   0.119892 0.636894 0.056219 -0.723794
O56   O     O_R   0.263530 0.210100 0.176640 -0.512101
O57   O     O_3   0.839847 0.743550 0.918298 -0.732419
O58   O     O_3   0.049454 0.897587 0.447071 -0.645266
O59   O     O_3   0.077369 0.931719 0.588127 -0.680055
O60   O     O_3   0.549462 0.397628 0.447053 -0.645297
O61   O     O_3   0.577349 0.431727 0.588118 -0.680075
O62   O     O_R   0.236470 0.710100 0.823360 -0.504660
O63   O     O_R   0.763530 0.710100 0.176640 -0.510723
O64   O     O_R   0.831960 0.093290 0.830130 -0.511573

loop_
_geom_bond_atom_site_label_1
_geom_bond_atom_site_label_2
_ccdc_geom_bond_type
Cr7   O17   S    
C51   C123  S    
C34   C42   S    
Cr2   O32   S    
C76   O30   A    
C101  H56   S    
H74   O61   S    
C43   H50   S    
C105  O54   S    
C90   C107  A    
C59   C66   A    
C92   C109  S    
C121  O31   A    
H63   O50   S    
C29   C33   A    
H66   O53   S    
C41   H43   S    
C125  O35   A    
C53   C68   A    
C40   H36   S    
H69   O55   S    
C5    C126  A    
C7    C128  A    
Cr5   O15   S    
C18   C118  S    
C93   C110  S    
C74   O24   A    
Cr4   O8    S    
Cr8   O9    S    
Cr9   O19   S    
Cr4   O30   S    
Cr2   O28   S    
C55   C65   A    
C9    C131  S    
C22   O37   A    
C27   C31   A    
C48   C74   S    
Cr12  O9    S    
C28   C32   A    
C124  O33   A    
Cr9   O10   S    
C108  C113  S    
C50   C76   S    
C1    C29   S    
C20   O4    A    
C98   C120  A    
C100  H23   S    
C20   C120  S    
C4    C127  A    
C70   C79   A    
C3    C129  A    
Cr11  O63   S    
C56   O20   A    
C106  O55   S    
Cr5   O10   S    
C57   C61   A    
C6    C7    A    
C73   O27   A    
Cr5   O37   S    
Cr3   O3    S    
C59   C63   A    
C33   C38   A    
C115  H16   S    
C37   C44   S    
C130  C131  A    
C14   C88   S    
Cr10  O62   S    
C21   O36   A    
C55   H53   S    
C77   C82   A    
Cr1   O14   S    
C69   C70   A    
C127  C131  A    
C3    C11   S    
C94   C98   A    
C31   C36   A    
C103  C107  A    
C114  H10   S    
Cr6   O23   S    
Cr6   O38   S    
Cr7   O43   S    
C83   O50   S    
C69   C77   A    
C86   C104  A    
C95   C117  A    
C10   H25   S    
Cr3   O7    S    
C101  C118  A    
C5    H19   S    
C85   O52   S    
C12   C90   S    
C25   C128  S    
C102  H67   S    
C40   H42   S    
C92   C96   A    
C12   O44   A    
C35   C42   S    
C17   O64   A    
Cr1   O40   S    
C73   O22   A    
Cr2   O2    S    
Cr4   O4    S    
Cr7   O13   S    
C49   C75   S    
C20   O63   A    
C8    H27   S    
Cr5   O12   S    
C81   H60   S    
C18   O56   A    
C58   H55   S    
Cr9   O24   S    
C30   C34   A    
C116  H17   S    
Cr7   O34   S    
C43   H46   S    
C97   C119  A    
C42   H49   S    
C45   O19   A    
C99   C117  A    
C74   O28   A    
C87   C105  A    
Cr11  O21   S    
C32   C37   A    
C53   C125  S    
C109  C114  S    
Cr12  O31   S    
C26   C30   A    
H72   O59   S    
Cr12  O5    S    
C97   C115  S    
C93   C97   A    
C112  C116  S    
C11   H30   S    
C84   O51   S    
C9    H24   S    
C36   C43   S    
C54   C66   A    
Cr11  O26   S    
Cr9   O46   S    
C109  H6    S    
C123  O32   A    
C110  C115  S    
C94   C112  S    
C50   C111  A    
C36   C48   A    
Cr2   O10   S    
C125  O34   A    
C10   C132  S    
C38   C46   S    
C10   C11   S    
C102  C119  A    
C91   C95   A    
C25   O39   A    
C40   C44   S    
Cr8   O44   S    
H70   O57   S    
C46   H52   S    
C56   O16   A    
C60   O58   S    
C47   C78   A    
C87   C92   A    
C81   C85   A    
Cr5   O41   S    
C58   C62   A    
Cr4   O35   S    
Cr6   O16   S    
C103  C120  A    
C80   C84   A    
C96   C114  S    
Cr10  O20   S    
C82   O49   S    
C15   O47   A    
C86   C91   A    
C126  C130  A    
C23   C129  S    
Cr11  O48   S    
C51   C65   A    
C24   C29   A    
C52   C69   A    
C16   O43   A    
H65   O52   S    
C54   C71   A    
Cr6   O42   S    
C23   O38   A    
H71   O58   S    
Cr7   O39   S    
Cr1   O1    S    
C112  H8    S    
C13   C28   A    
C2    C27   A    
C72   C81   A    
C17   C117  S    
C10   H29   S    
C99   C104  A    
C7    H21   S    
C19   C119  S    
Cr3   O11   S    
C55   C60   A    
C16   C86   S    
C61   O59   S    
C41   H37   S    
Cr3   O29   S    
C77   H59   S    
C90   C94   A    
C3    C132  A    
C19   O3    A    
C84   C85   A    
C47   C73   S    
C110  H7    S    
C52   C64   A    
C27   C56   S    
C89   H12   S    
C35   H40   S    
C67   O17   A    
C60   C61   A    
C2    C89   A    
C62   C63   A    
C37   C49   A    
C52   C121  S    
C1    O14   A    
C79   H58   S    
C124  O23   A    
C22   O6    A    
C58   C68   A    
C6    H20   S    
C8    C130  S    
C4    H18   S    
C42   H44   S    
C54   C124  S    
C44   H51   S    
C91   C108  S    
C45   O15   A    
C46   H48   S    
H68   O54   S    
C33   C41   S    
C64   C65   A    
C79   C83   A    
Cr10  O11   S    
C13   H33   S    
C4    C5    A    
C18   O2    A    
Cr1   O9    S    
C108  H76   S    
C71   C72   A    
C11   H26   S    
C82   C83   A    
H62   O49   S    
C121  O1    A    
C9    H28   S    
C34   C47   A    
C26   C122  A    
C75   O29   A    
C53   C72   A    
C104  O53   S    
C39   H39   S    
C103  H75   S    
C66   C68   A    
C57   H54   S    
C109  H2    S    
C67   O21   A    
C35   H38   S    
C30   C35   S    
C26   C67   S    
Cr2   O6    S    
C96   C118  A    
Cr6   O11   S    
C44   H47   S    
C22   C126  S    
C122  H31   S    
C17   O45   A    
C78   H1    S    
C2    H32   S    
C8    C9    S    
Cr12  O64   S    
C111  H34   S    
C41   C46   S    
C51   C70   A    
C113  H14   S    
C21   C127  S    
C75   O25   A    
Cr10  O25   S    
C80   H61   S    
C24   C111  A    
C62   O60   S    
C6    C129  A    
C128  C132  A    
Cr1   O36   S    
C71   C80   A    
H73   O60   S    
C101  C105  A    
C28   C45   S    
C123  O12   A    
Cr10  O47   S    
C99   H45   S    
C39   C43   S    
C112  H4    S    
C14   O41   A    
C88   C106  A    
C59   H57   S    
C98   C116  S    
H64   O51   S    
Cr4   O13   S    
C24   H35   S    
Cr8   O18   S    
Cr3   O33   S    
C16   O48   A    
C8    H22   S    
C48   C89   A    
Cr12  O27   S    
C110  H3    S    
C107  O57   S    
C63   O61   S    
C57   C64   A    
C15   C87   S    
C19   O62   A    
C88   C93   A    
C115  H11   S    
C76   O26   A    
C113  H9    S    
C23   O7    A    
C38   C50   A    
C1    O18   A    
C21   O5    A    
C25   O8    A    
Cr11  O13   S    
C13   C100  A    
C116  H13   S    
C15   O42   A    
C49   C100  A    
C95   C113  S    
C31   C39   S    
C102  C106  A    
Cr8   O22   S    
C32   C40   S    
C78   C122  A    
C114  H15   S    
C108  H5    S    
C39   H41   S    
Cr8   O45   S    
C12   O40   A    
Cr9   O56   S    
C14   O46   A    
