data_mof_unit_37670.cif
_audit_creation_date              2012-10-26T18:32:00-0400
_audit_creation_method            fapswitch 2.2
_symmetry_space_group_name_H-M    P1
_symmetry_Int_Tables_number       1
_space_group_crystal_system       triclinic
_cell_length_a                    12.349149
_cell_length_b                    13.208398
_cell_length_c                    14.260091
_cell_angle_alpha                 93.000133
_cell_angle_beta                  108.055438
_cell_angle_gamma                 117.06525
_cell_volume                      1917.23324311

loop_
_atom_site_label
_atom_site_type_symbol
_atom_type_description
_atom_site_fract_x
_atom_site_fract_y
_atom_site_fract_z
_atom_type_partial_charge
C1    C     C_R   0.651585 0.714893 0.509439 0.554649
C2    C     C_R   0.123361 0.378117 0.004226 -0.056084
C3    C     C_R   0.106936 0.440601 0.077621 0.021882
C4    C     C_R   0.618385 0.515909 0.686976 0.568219
C5    C     C_R   0.227554 0.354770 0.032788 -0.101937
C6    C     C_R   0.314287 0.391955 0.133171 -0.168991
C7    C     C_R   0.208854 0.495679 0.173739 0.304741
C8    C     C_R   0.131691 0.968204 0.349166 0.265630
C9    C     C_R   0.245975 0.161247 0.458764 -0.039615
C10   C     C_R   0.733561 0.926515 0.573677 0.233603
C11   C     C_R   0.816750 0.045514 0.579785 0.265696
C12   C     C_R   0.825122 0.469313 0.919148 -0.005797
C13   C     C_R   0.914145 0.075992 0.540357 -0.052420
C14   C     C_R   0.925208 0.990504 0.486667 -0.034497
C15   C     C_R   0.825068 0.873012 0.462078 -0.091747
C16   C     C_R   0.344628 0.284877 0.484196 0.549526
C17   C     C_R   0.031122 0.019442 0.454045 -0.038976
C18   C     C_R   0.026015 0.935637 0.383223 0.053039
C19   C     C_R   0.916686 0.822367 0.350054 0.389209
C20   C     C_R   0.817632 0.792813 0.387624 -0.072526
C21   C     C_R   0.144354 0.129273 0.493592 -0.129084
C22   C     C_R   0.241198 0.079942 0.388641 -0.073297
C23   C     C_R   0.778240 0.491855 0.992172 -0.061850
C24   C     C_R   0.735457 0.839472 0.512656 0.007341
C25   C     C_R   0.258573 0.689285 0.661157 0.410249
C26   C     C_R   0.654132 0.341025 0.364398 0.117523
C27   C     C_R   0.731779 0.305735 0.335408 0.405392
C28   C     C_R   0.381095 0.483218 0.313091 0.522463
C29   C     C_R   0.867558 0.365679 0.387027 -0.008407
C30   C     C_R   0.928266 0.463032 0.468439 -0.027561
C31   C     C_R   0.844310 0.495590 0.495423 0.157342
C32   C     C_R   0.068296 0.528532 0.524069 -0.072782
C33   C     C_R   0.121564 0.625187 0.605891 0.082731
C34   C     C_R   0.919332 0.432054 0.946400 -0.088220
C35   C     C_R   0.037871 0.656220 0.631435 0.273516
C36   C     C_R   0.902452 0.591613 0.576653 -0.023858
C37   C     C_R   0.158875 0.502419 0.502060 0.062580
C38   C     C_R   0.340698 0.658145 0.635568 0.086436
C39   C     C_R   0.676925 0.513354 0.793321 0.007199
C40   C     C_R   0.304565 0.460980 0.204765 -0.019683
C41   C     C_R   0.676040 0.517942 0.963407 -0.098098
C42   C     C_R   0.623488 0.525517 0.864025 -0.189653
C43   C     C_R   0.782207 0.491423 0.823107 0.444635
C44   C     C_R   0.992903 0.451818 0.050316 -0.081662
C45   C     C_R   0.943251 0.471977 0.122291 0.495841
C46   C     C_R   0.834676 0.488258 0.092589 0.455263
C47   C     C_R   0.935809 0.368072 0.874304 0.495995
C48   C     C_R   0.034966 0.339440 0.903666 0.416932
Cu1   Cu    Cu3+1 0.416420 0.526630 0.522910 1.006425
Cu2   Cu    Cu3+1 0.583580 0.473370 0.477090 0.993589
F1    F     F_    0.786716 0.503118 0.162845 -0.551817
F2    F     F_    0.906383 0.736725 0.285080 -0.567688
F3    F     F_    0.314478 0.781952 0.739957 -0.552593
F4    F     F_    0.675143 0.212712 0.256984 -0.598911
F5    F     F_    0.045666 0.275293 0.832969 -0.576747
F6    F     F_    0.851564 0.503923 0.762735 -0.581222
F7    F     F_    0.989021 0.462336 0.219139 -0.560314
F8    F     F_    0.846642 0.320026 0.777795 -0.517732
H1    H     H_    0.239672 0.304468 0.978403 0.198246
H2    H     H_    0.845420 0.619165 0.601278 0.178972
H3    H     H_    0.388097 0.365576 0.154890 0.164186
H4    H     H_    0.636193 0.532061 0.017435 0.200462
H5    H     H_    0.542272 0.542579 0.843031 0.160799
H6    H     H_    0.045287 0.864968 0.217883 0.375054
H7    H     H_    0.691521 0.956562 0.689211 0.352807
H8    H     H_    0.715959 0.103554 0.621301 0.361779
H9    H     H_    0.313178 0.642902 0.274458 0.336671
H10   H     H_    0.018667 0.761110 0.719098 0.326480
H11   H     H_    0.318958 0.105198 0.359589 0.161859
H12   H     H_    0.156674 0.192238 0.553011 0.146141
H13   H     H_    0.975871 0.168222 0.548128 0.152284
H14   H     H_    0.733572 0.706323 0.355030 0.184324
H15   H     H_    0.445456 0.707205 0.677985 0.179771
H16   H     H_    0.127083 0.431349 0.441092 0.159391
H17   H     H_    0.548899 0.293833 0.324074 0.139363
H18   H     H_    0.922360 0.333813 0.361658 0.158170
N1    N     N_R   0.290690 0.566960 0.557640 -0.284734
N2    N     N_R   0.709100 0.433710 0.442970 -0.271063
O1    O     O_R   0.545970 0.684450 0.528810 -0.431898
O2    O     O_3   0.652902 0.893495 0.628326 -0.682293
O3    O     O_3   0.806994 0.134601 0.624477 -0.585870
O4    O     O_3   0.219525 0.589670 0.231478 -0.587769
O5    O     O_3   0.089874 0.750282 0.710948 -0.573131
O6    O     O_R   0.687130 0.639470 0.490120 -0.556768
O7    O     O_R   0.519670 0.535100 0.660030 -0.518563
O8    O     O_R   0.660830 0.490120 0.621340 -0.440847
O9    O     O_R   0.312870 0.360530 0.509880 -0.510497
O10   O     O_R   0.454030 0.315550 0.471190 -0.502569
O11   O     O_R   0.339170 0.509880 0.378660 -0.470714
O12   O     O_R   0.480330 0.464900 0.339970 -0.516478
O13   O     O_3   0.130111 0.895472 0.275418 -0.607441

loop_
_geom_bond_atom_site_label_1
_geom_bond_atom_site_label_2
_ccdc_geom_bond_type
C48   F5    S    
C37   H16   S    
C27   C29   A    
C41   C42   A    
Cu1   O9    S    
C19   C20   A    
C27   F4    S    
Cu2   O6    S    
C29   H18   S    
C45   C46   A    
C11   O3    S    
C1    O6    A    
C12   C23   A    
C45   F7    S    
C26   C27   A    
C26   N2    A    
C6    H3    S    
C9    C16   S    
C25   F3    S    
C12   C43   A    
C3    C7    A    
C30   C31   A    
C9    C22   A    
C4    O8    A    
C28   C40   S    
C18   C19   A    
C19   F2    S    
Cu2   O12   S    
C35   C36   A    
C16   O9    A    
C8    C22   A    
C7    C40   A    
C28   O11   A    
C22   H11   S    
Cu2   O10   S    
H7    O2    S    
C13   C14   A    
C14   C17   A    
C41   H4    S    
Cu2   N2    S    
C26   H17   S    
C39   C42   A    
C15   C20   A    
C3    C44   A    
C5    H1    S    
Cu1   O7    S    
C34   C44   A    
C10   O2    S    
C39   C43   A    
C4    O7    A    
C13   H13   S    
C2    C48   A    
C37   N1    A    
C46   F1    S    
C8    C18   A    
Cu1   O1    S    
C29   C30   A    
C25   C38   A    
C47   C48   A    
C4    C39   S    
C17   C18   A    
C8    O13   S    
C32   C37   A    
H9    O4    S    
C15   C24   A    
C1    O1    A    
C6    C40   A    
C2    C5    A    
C12   C34   A    
C44   C45   A    
C31   N2    A    
C16   O10   A    
C35   O5    S    
C14   C15   A    
H10   O5    S    
Cu1   O11   S    
C36   H2    S    
C38   N1    A    
C23   C41   A    
C21   H12   S    
C10   C24   A    
C32   C33   A    
C2    C3    A    
H8    O3    S    
C30   C32   A    
C11   C13   A    
C9    C21   A    
C5    C6    A    
C33   C35   A    
Cu1   N1    S    
C17   C21   A    
C10   C11   A    
Cu2   O8    S    
C43   F6    S    
C7    O4    S    
C1    C24   S    
Cu1   Cu2   S    
C23   C46   A    
C31   C36   A    
C20   H14   S    
C28   O12   A    
C34   C47   A    
H6    O13   S    
C42   H5    S    
C25   C33   A    
C47   F8    S    
C38   H15   S    
