data_mof_unit_51678.cif
_audit_creation_date              2012-12-10T20:49:47-0500
_audit_creation_method            fapswitch 2.2
_symmetry_space_group_name_H-M    P1
_symmetry_Int_Tables_number       1
_space_group_crystal_system       triclinic
_cell_length_a                    8.107314
_cell_length_b                    8.925191
_cell_length_c                    17.036983
_cell_angle_alpha                 90.138557
_cell_angle_beta                  84.407079
_cell_angle_gamma                 90.006241
_cell_volume                      1226.91227449

loop_
_atom_site_label
_atom_site_type_symbol
_atom_type_description
_atom_site_fract_x
_atom_site_fract_y
_atom_site_fract_z
_atom_type_partial_charge
C1    C     C_R   0.500081 0.781996 0.499508 1.059317
C2    C     C_R   0.419903 0.594851 0.227233 -0.014838
C3    C     C_R   0.482262 0.640424 0.858686 -0.204627
C4    C     C_R   0.372684 0.556956 0.154275 -0.226663
C5    C     C_R   0.380262 0.535862 0.899778 0.070054
C6    C     C_R   0.456500 0.445655 0.108220 0.097626
C7    C     C_R   0.303924 0.419629 0.860404 -0.000320
C8    C     C_R   0.585830 0.363234 0.138016 -0.008902
C9    C     C_R   0.353035 0.397408 0.779461 -0.077669
C10   C     C_R   0.619918 0.387248 0.217020 -0.097303
C11   C     C_2   0.371904 0.545667 0.985032 -0.226369
C12   C     C_R   0.500004 0.218006 0.499939 0.909929
C13   C     C_2   0.417590 0.427959 0.026321 -0.221823
C14   C     C_2   0.164720 0.333056 0.902780 0.470417
C15   C     C_2   0.687944 0.257132 0.086086 0.498970
C16   C     C_2   0.612142 0.756962 0.738516 0.450010
C17   C     C_2   0.342361 0.729948 0.266688 0.441778
C18   C     C_2   0.734430 0.286044 0.255053 0.471731
C19   C     C_2   0.313982 0.254343 0.739461 0.486220
C20   C     C_1   0.500042 0.934810 0.499585 -0.093281
C21   C     C_1   0.500017 0.065218 0.499751 -0.145234
C22   C     C_R   0.475729 0.500041 0.652726 0.903182
C23   C     C_R   0.523558 0.500541 0.347084 0.917289
C24   C     C_R   0.452204 0.508059 0.737847 -0.155730
C25   C     C_R   0.534031 0.502364 0.261504 -0.146736
C26   C     C_R   0.514315 0.632168 0.777573 -0.012631
H1    H     H_    0.271513 0.618650 0.132543 0.139178
H2    H     H_    0.298534 0.251079 0.677058 0.061969
H3    H     H_    0.536623 0.730414 0.890599 0.141492
H4    H     H_    0.441816 0.321846 0.996267 0.138401
H5    H     H_    0.364564 0.657366 0.010515 0.174182
H6    H     H_    0.148347 0.329367 0.966599 0.100809
H7    H     H_    0.631366 0.185013 0.045079 0.047193
H8    H     H_    0.688207 0.826659 0.772913 0.081349
H9    H     H_    0.229398 0.775962 0.247107 0.070403
H10   H     H_    0.817606 0.330514 0.295397 0.082574
N1    N     N_1   0.926360 0.500000 0.499990 -0.026457
N2    N     N_1   0.073640 0.500000 0.500010 -0.027547
O1    O     O_R   0.363150 0.714660 0.500000 -0.605388
O2    O     O_2   0.838050 0.251352 0.087797 -0.545725
O3    O     O_2   0.604015 0.788597 0.669455 -0.576137
O4    O     O_2   0.407147 0.795100 0.318787 -0.570826
O5    O     O_2   0.734283 0.151175 0.242808 -0.529839
O6    O     O_2   0.307071 0.135971 0.775445 -0.531444
O7    O     O_R   0.636850 0.285340 0.500000 -0.620283
O8    O     O_R   0.636850 0.714660 0.500000 -0.591241
O9    O     O_R   0.363150 0.285340 0.500000 -0.625593
O10   O     O_R   0.346950 0.500000 0.615800 -0.636618
O11   O     O_R   0.653050 0.500000 0.384200 -0.649625
O12   O     O_R   0.620700 0.500000 0.615800 -0.581954
O13   O     O_R   0.379300 0.500000 0.384200 -0.601851
O14   O     O_2   0.059572 0.272332 0.867035 -0.521691
Zn1   Zn    Zn3+2 0.317220 0.500000 0.500010 1.026600
Zn2   Zn    Zn3+2 0.682780 0.500000 0.499990 1.033669

loop_
_geom_bond_atom_site_label_1
_geom_bond_atom_site_label_2
_ccdc_geom_bond_type
C22   O10   A    
C9    C24   A    
N1    N2    T    
C2    C25   A    
C3    C26   A    
C2    C4    A    
O9    Zn1   S    
C22   O12   A    
C16   H8    S    
O8    Zn2   S    
C3    C5    A    
C11   H5    S    
O12   Zn2   S    
C18   O5    D    
C19   O6    D    
C2    C17   S    
C19   H2    S    
C11   C13   D    
O1    Zn1   S    
N2    Zn1   S    
C10   C18   S    
C12   O9    A    
N1    Zn2   S    
C12   C21   S    
C10   C25   A    
C4    C6    A    
C24   C26   A    
O7    Zn2   S    
C5    C11   S    
C8    C15   S    
C5    C7    A    
C23   C25   S    
C16   C26   S    
O10   Zn1   S    
C1    O8    A    
C22   C24   S    
C15   O2    D    
C23   O11   A    
C1    O1    A    
O11   Zn2   S    
C7    C9    A    
C13   H4    S    
C4    H1    S    
C20   C21   T    
C8    C10   A    
C14   H6    S    
C3    H3    S    
C17   O4    D    
C1    C20   S    
C6    C8    A    
C17   H9    S    
O13   Zn1   S    
C18   H10   S    
C16   O3    D    
C9    C19   S    
C7    C14   S    
C14   O14   D    
C23   O13   A    
C15   H7    S    
C12   O7    A    
C6    C13   S    
