data_mof_unit_37311.cif
_audit_creation_date              2012-12-11T14:08:33-0500
_audit_creation_method            fapswitch 2.2
_symmetry_space_group_name_H-M    P1
_symmetry_Int_Tables_number       1
_space_group_crystal_system       triclinic
_cell_length_a                    10.954565
_cell_length_b                    10.961975
_cell_length_c                    18.866615
_cell_angle_alpha                 90.562517
_cell_angle_beta                  90.504547
_cell_angle_gamma                 60.150466
_cell_volume                      1964.89649327

loop_
_atom_site_label
_atom_site_type_symbol
_atom_type_description
_atom_site_fract_x
_atom_site_fract_y
_atom_site_fract_z
_atom_type_partial_charge
C1    C     C_R   0.235824 0.648505 0.607799 0.559728
C2    C     C_2   0.790356 0.101575 0.701152 -0.070978
C3    C     C_2   0.184577 0.681591 0.679838 0.169410
C4    C     C_R   0.649562 0.615749 0.604251 0.537059
C5    C     C_2   0.081736 0.722441 0.826428 -0.033566
C6    C     C_2   0.188377 0.603140 0.800975 -0.026675
C7    C     C_2   0.204109 0.579301 0.724347 -0.092584
C8    C     C_2   0.666897 0.687306 0.331876 0.197184
C9    C     C_2   0.670196 0.680229 0.170894 -0.046474
C10   C     C_2   0.775029 0.657091 0.216274 -0.062510
C11   C     C_2   0.777335 0.613228 0.288782 0.185825
C12   C     C_3   0.671741 0.534894 0.802861 0.181107
C13   C     C_2   0.638865 0.185865 0.322388 -0.096572
C14   C     C_2   0.636306 0.188887 0.168066 -0.090400
C15   C     C_2   0.530930 0.199934 0.208498 0.248306
C16   C     C_R   0.627160 0.229511 0.602510 0.557243
C17   C     C_2   0.524337 0.242328 0.280677 -0.082918
C18   C     C_2   0.124410 0.685471 0.342285 -0.100052
C19   C     C_2   0.163541 0.658128 0.181553 0.152534
C20   C     C_2   0.175097 0.750025 0.225538 0.223419
C21   C     C_2   0.116095 0.784096 0.298075 0.220746
C22   C     C_R   0.733500 0.030232 0.892428 0.544460
C23   C     C_3   0.693249 0.663775 0.815569 0.021353
C24   C     C_R   0.719491 0.684632 0.890323 0.558800
C25   C     C_R   0.049827 0.745854 0.900052 0.508351
C26   C     C_R   0.674200 0.109234 0.103226 0.579553
C27   C     C_R   0.696775 0.690773 0.096910 0.551763
C28   C     C_R   0.214778 0.652546 0.404268 0.557429
C29   C     C_R   0.096524 0.707680 0.112703 0.590850
C30   C     C_R   0.644239 0.626738 0.395618 0.579655
C31   C     C_R   0.616002 0.230311 0.394972 0.563091
C32   C     C_3   0.556420 0.793641 0.787298 -0.324404
C33   C     C_3   0.532509 0.769682 0.709295 -0.295077
C34   C     C_3   0.664675 0.636806 0.679993 -0.027726
C35   C     C_3   0.821763 0.649551 0.771675 0.135903
C36   C     C_3   0.791980 0.657560 0.691964 -0.186278
C37   C     C_3   0.683925 0.503837 0.721924 0.165946
C38   C     C_2   0.658415 0.182509 0.676118 0.213855
C39   C     C_2   0.739061 0.035445 0.815256 -0.112316
C40   C     C_2   0.818955 0.071976 0.777989 -0.048744
Cl1   Cl    Cl    0.847899 0.347701 0.699979 -0.449712
Cl2   Cl    Cl    0.189877 0.492435 0.206990 -0.566985
Cl3   Cl    Cl    0.775954 0.383248 0.857410 -0.433433
Cl4   Cl    Cl    0.984148 0.489359 0.789766 -0.470583
Cl5   Cl    Cl    0.510888 0.266816 0.733170 -0.623234
Cl6   Cl    Cl    0.151656 0.851080 0.710507 -0.644995
Cl7   Cl    Cl    0.930506 0.454980 0.312472 -0.454297
Cl8   Cl    Cl    0.534320 0.860617 0.309661 -0.478727
Cl9   Cl    Cl    0.405428 0.148810 0.185021 -0.319545
Cl10  Cl    Cl    0.241098 0.856963 0.192208 -0.404227
Cl11  Cl    Cl    0.064257 0.954532 0.332064 -0.432066
Cr1   Cr    Cr6+3 0.393010 0.398050 0.501480 1.102853
Cr2   Cr    Cr6+3 0.398820 0.707980 0.501630 1.137842
Cr3   Cr    Cr6+3 0.708140 0.393940 0.496850 1.142447
Cr4   Cr    Cr6+3 0.937950 0.938450 0.008940 1.126008
Cr5   Cr    Cr6+3 0.626180 0.937030 0.994750 1.113061
Cr6   Cr    Cr6+3 0.937790 0.625760 0.001410 1.151828
H1    H     H_    0.885937 0.578338 0.662270 0.211828
H2    H     H_    0.665189 0.015060 0.786697 0.136495
H3    H     H_    0.257370 0.518401 0.836217 0.202024
H4    H     H_    0.003686 0.799825 0.791753 0.107142
H5    H     H_    0.573414 0.684744 0.187568 0.168562
H6    H     H_    0.419687 0.311901 0.301520 0.222542
H7    H     H_    0.439908 0.754317 0.705224 0.205250
H8    H     H_    0.111203 0.599610 0.324373 0.176580
H9    H     H_    0.509155 0.864580 0.678025 0.186783
H10   H     H_    0.837559 0.738899 0.785823 0.053645
H11   H     H_    0.768312 0.762197 0.671585 0.076093
H12   H     H_    0.241942 0.473279 0.704726 0.212995
H13   H     H_    0.562308 0.565711 0.818667 0.106455
H14   H     H_    0.598399 0.482121 0.706192 0.124093
H15   H     H_    0.463590 0.812007 0.819141 0.181560
H16   H     H_    0.871690 0.649874 0.197032 0.181816
H17   H     H_    0.707427 0.223700 0.188166 0.103969
H18   H     H_    0.744297 0.116616 0.302533 0.147113
H19   H     H_    0.563624 0.890362 0.791726 0.161498
H20   H     H_    0.901881 0.083637 0.803372 0.241449
H21   H     H_    0.878743 0.067314 0.665444 0.191797
O1    O     O_R   0.507110 0.256280 0.580300 -0.469713
O2    O     O_R   0.837080 0.593860 0.915300 -0.405172
O3    O     O_R   0.064770 0.636080 0.932550 -0.470086
O4    O     O_R   0.280830 0.527190 0.577940 -0.513182
O5    O     O_R   0.068250 0.829200 0.092940 -0.464795
O6    O     O_R   0.799650 0.057040 0.080330 -0.487467
O7    O     O_R   0.586130 0.079760 0.077080 -0.433391
O8    O     O_R   0.627700 0.809630 0.066580 -0.458046
O9    O     O_R   0.816140 0.597180 0.075920 -0.482405
O10   O     O_R   0.045360 0.639170 0.081440 -0.459579
O11   O     O_3   0.833980 0.833750 0.001700 -0.364910
O12   O     O_R   0.524640 0.695370 0.425100 -0.455647
O13   O     O_R   0.261360 0.738990 0.584270 -0.457073
O14   O     O_R   0.532590 0.694780 0.574370 -0.514949
O15   O     O_R   0.744470 0.503750 0.577000 -0.461196
O16   O     O_R   0.698520 0.277230 0.571620 -0.486327
O17   O     O_R   0.498530 0.256920 0.419280 -0.490822
O18   O     O_R   0.272880 0.527780 0.428680 -0.500957
O19   O     O_R   0.252780 0.739630 0.423250 -0.428676
O20   O     O_R   0.735890 0.504390 0.415980 -0.462854
O21   O     O_R   0.690560 0.277820 0.422350 -0.469152
O22   O     O_3   0.499990 0.499990 0.499980 -0.310334
O23   O     O_R   0.089190 0.825870 0.932320 -0.480107
O24   O     O_R   0.819070 0.053960 0.931440 -0.467302
O25   O     O_R   0.607070 0.076440 0.916460 -0.453619
O26   O     O_R   0.647110 0.806550 0.917690 -0.554461

loop_
_geom_bond_atom_site_label_1
_geom_bond_atom_site_label_2
_ccdc_geom_bond_type
C28   O19   A    
C18   C21   D    
C11   Cl7   S    
C35   C36   S    
C30   O12   A    
C32   H15   S    
C18   H8    S    
C12   C23   S    
Cr6   O11   S    
C14   H17   S    
C29   O5    A    
C12   Cl3   S    
C3    C7    D    
C8    C11   D    
C5    C6    D    
C10   H16   S    
C34   C37   S    
Cr1   O17   S    
C12   C37   S    
C29   O10   A    
C20   Cl10  S    
C24   O2    A    
C13   H18   S    
C38   Cl5   S    
Cr2   O13   S    
C23   C24   S    
C31   O21   A    
Cr1   O1    S    
C9    C10   D    
C19   Cl2   S    
C1    O13   A    
C25   O3    A    
Cr6   O2    S    
Cr3   O22   S    
C33   H9    S    
Cr2   O22   S    
C4    C34   S    
C9    H5    S    
C6    H3    S    
C18   C28   S    
Cr5   O26   S    
C39   C40   D    
Cr2   O19   S    
C1    O4    A    
Cr1   O22   S    
C22   O25   A    
Cr6   O9    S    
C1    C3    S    
C27   O8    A    
C27   O9    A    
C8    Cl8   S    
C7    H12   S    
C2    H21   S    
C2    C38   D    
Cr5   O8    S    
Cr4   O24   S    
C35   H10   S    
C39   H2    S    
Cr2   O14   S    
C33   C34   S    
C5    H4    S    
C14   C26   S    
Cr1   O4    S    
C35   Cl4   S    
C5    C25   S    
Cr5   O11   S    
C23   C35   S    
C37   H14   S    
Cr6   O3    S    
Cr3   O21   S    
Cr4   O5    S    
C19   C29   S    
C21   Cl11  S    
C9    C27   S    
C30   O20   A    
C15   C17   S    
C12   H13   S    
C26   O6    A    
C40   H20   S    
C16   O16   A    
C13   C31   S    
C26   O7    A    
Cr5   O25   S    
C32   H19   S    
C36   H11   S    
C6    C7    S    
Cr4   O23   S    
C3    Cl6   S    
C36   H1    S    
C22   O24   A    
Cr6   O10   S    
C13   C17   D    
C28   O18   A    
C16   O1    A    
C8    C30   S    
C23   C32   S    
C19   C20   D    
Cr3   O15   S    
Cr4   O11   S    
C32   C33   S    
C25   O23   A    
Cr5   O7    S    
C33   H7    S    
C31   O17   A    
C22   C39   S    
Cr1   O18   S    
C34   C36   S    
C15   Cl9   S    
C37   Cl1   S    
Cr3   O16   S    
C10   C11   S    
C4    O15   A    
C2    C40   S    
C20   C21   S    
Cr2   O12   S    
C14   C15   D    
Cr3   O20   S    
C24   O26   A    
Cr4   O6    S    
C17   H6    S    
C16   C38   S    
C4    O14   A    
