data_mof_unit_16040.cif
_audit_creation_date              2012-12-10T19:11:33-0500
_audit_creation_method            fapswitch 2.2
_symmetry_space_group_name_H-M    P1
_symmetry_Int_Tables_number       1
_space_group_crystal_system       triclinic
_cell_length_a                    7.781351
_cell_length_b                    9.176769
_cell_length_c                    17.310512
_cell_angle_alpha                 90.021311
_cell_angle_beta                  85.325572
_cell_angle_gamma                 90.190383
_cell_volume                      1231.98490405

loop_
_atom_site_label
_atom_site_type_symbol
_atom_type_description
_atom_site_fract_x
_atom_site_fract_y
_atom_site_fract_z
_atom_type_partial_charge
C1    C     C_R   0.500196 0.780114 0.499902 0.808894
C2    C     C_R   0.499831 0.219882 0.499976 0.843275
C3    C     C_1   0.500256 0.934787 0.499924 -0.159136
C4    C     C_1   0.499778 0.065188 0.499949 -0.166072
C5    C     C_R   0.476742 0.503864 0.649997 0.801807
C6    C     C_R   0.523206 0.504905 0.349882 0.800938
C7    C     C_R   0.461028 0.524030 0.733410 -0.159183
C8    C     C_R   0.537089 0.521242 0.265969 -0.177869
C9    C     C_R   0.533976 0.419620 0.779317 -0.378898
C10   C     C_R   0.429141 0.436104 0.223595 -0.357713
C11   C     C_R   0.525972 0.435444 0.860239 0.481893
C12   C     C_R   0.426237 0.453865 0.143324 0.476877
C13   C     C_R   0.436207 0.556134 0.894273 -0.051983
C14   C     C_R   0.545545 0.551766 0.104641 -0.070635
C15   C     C_R   0.360793 0.658676 0.848006 -0.263170
C16   C     C_R   0.655372 0.634712 0.147502 -0.258952
C17   C     C_R   0.374837 0.646184 0.767837 0.405803
C18   C     C_R   0.649907 0.623974 0.227672 0.393892
C19   C     C_2   0.421091 0.579984 0.978511 0.406251
C20   C     C_2   0.561746 0.570328 0.019581 0.382255
Cu1   Cu    Cu3+1 0.330920 0.500000 0.500000 1.013732
Cu2   Cu    Cu3+1 0.669080 0.500000 0.500000 1.010488
H1    H     H_    0.295868 0.752768 0.874196 0.177620
H2    H     H_    0.740754 0.714515 0.119001 0.170703
H3    H     H_    0.595214 0.325148 0.751724 0.156742
H4    H     H_    0.344731 0.356402 0.253358 0.173218
N1    N     N_1   0.923170 0.500000 0.500010 -0.043363
N2    N     N_1   0.076830 0.500000 0.499990 -0.043198
O1    O     O_R   0.357240 0.711600 0.500000 -0.578550
O2    O     O_R   0.642760 0.288400 0.500000 -0.577264
O3    O     O_R   0.642760 0.711600 0.500000 -0.580480
O4    O     O_R   0.357240 0.288400 0.500000 -0.576815
O5    O     O_R   0.340660 0.500000 0.613590 -0.577120
O6    O     O_R   0.659340 0.500000 0.386410 -0.581279
O7    O     O_R   0.626230 0.500000 0.613600 -0.579288
O8    O     O_R   0.373770 0.500000 0.386400 -0.578599
O9    O     O_3   0.314599 0.370636 0.102400 -0.579640
C21   C     C_3   0.139761 0.390968 0.131879 0.101031
H5    H     H_    0.066563 0.434948 0.084728 0.217758
H6    H     H_    0.121018 0.467172 0.181958 0.130870
C22   C     C_3   0.057607 0.246282 0.155856 -0.411790
H7    H     H_    0.061690 0.176455 0.103684 0.234328
H8    H     H_    0.131361 0.195475 0.200973 0.232456
C23   C     C_3   0.870187 0.264290 0.187841 -0.874515
H9    H     H_    0.862556 0.333763 0.240557 0.272473
H10   H     H_    0.813987 0.155876 0.203518 0.266135
H11   H     H_    0.793333 0.314485 0.143638 0.260213
O10   O     O_3   0.594710 0.331071 0.907332 -0.584685
C24   C     C_3   0.765724 0.294755 0.879518 0.116571
H12   H     H_    0.838107 0.391506 0.854962 0.152339
H13   H     H_    0.763464 0.209479 0.833983 0.121885
C25   C     C_3   0.862700 0.233798 0.945765 -0.325997
H14   H     H_    0.842162 0.304971 0.997543 0.261995
H15   H     H_    0.811976 0.123494 0.961637 0.200130
C26   C     C_3   0.056176 0.224668 0.922498 -0.883394
H16   H     H_    0.080586 0.166135 0.866553 0.255656
H17   H     H_    0.121599 0.165113 0.967451 0.258725
H18   H     H_    0.112469 0.335936 0.916498 0.285217
O11   O     O_3   0.753056 0.718414 0.265597 -0.738529
H19   H     H_    0.704805 0.730895 0.319796 0.328791
O12   O     O_3   0.306434 0.757245 0.726142 -0.740132
H20   H     H_    0.350273 0.750921 0.671050 0.323746
O13   O     O_3   0.726831 0.573223 0.982131 -0.621803
C27   C     C_3   0.769739 0.715894 0.955289 -0.000994
H21   H     H_    0.853863 0.767875 0.996230 0.160823
H22   H     H_    0.656277 0.788614 0.950461 0.108906
C28   C     C_3   0.869715 0.706524 0.875773 -0.301191
H23   H     H_    0.984637 0.636138 0.879581 0.240814
H24   H     H_    0.786548 0.657275 0.833546 0.212618
C29   C     C_3   0.927594 0.856935 0.846534 -0.889110
H25   H     H_    0.814447 0.929296 0.842836 0.250030
H26   H     H_    0.995503 0.847279 0.787901 0.301220
H27   H     H_    0.016932 0.905942 0.886139 0.247288
O14   O     O_3   0.258162 0.607850 0.013723 -0.625240
C30   C     C_3   0.245909 0.752154 0.042641 -0.018225
H28   H     H_    0.167594 0.816472 0.004124 0.163404
H29   H     H_    0.372064 0.809738 0.044950 0.112800
C31   C     C_3   0.154552 0.748489 0.124178 -0.311897
H30   H     H_    0.036290 0.681105 0.124205 0.232071
H31   H     H_    0.241575 0.701783 0.165218 0.213007
C32   C     C_3   0.102414 0.898667 0.152589 -0.897790
H32   H     H_    0.217210 0.971198 0.147979 0.254799
H33   H     H_    0.050153 0.893202 0.214153 0.294106
H34   H     H_    0.000018 0.940307 0.117456 0.247907

loop_
_geom_bond_atom_site_label_1
_geom_bond_atom_site_label_2
_ccdc_geom_bond_type
C26   H16   S    
C22   H7    S    
C19   C20   D    
C32   H32   S    
C9    H3    S    
Cu1   O8    S    
C23   H9    S    
Cu2   O7    S    
C21   H5    S    
C31   H31   S    
Cu1   O5    S    
C1    O3    A    
C2    O4    A    
C12   O9    S    
C17   O12   S    
C25   H15   S    
C7    C17   A    
C5    O5    A    
C29   H25   S    
C25   C26   S    
C10   H4    S    
C15   H1    S    
O11   H19   S    
C16   H2    S    
Cu1   Cu2   S    
C22   H8    S    
C11   O10   S    
C32   H33   S    
C23   H10   S    
Cu2   O6    S    
Cu1   O4    S    
Cu2   O3    S    
C13   C19   S    
C28   H23   S    
C27   C28   S    
C14   C20   S    
C21   C22   S    
O14   C30   S    
C5    C7    S    
C31   H30   S    
C6    C8    S    
C24   H13   S    
Cu1   O1    S    
C8    C18   A    
C6    O6    A    
C1    C3    S    
C27   H22   S    
C2    C4    S    
C30   H28   S    
O9    C21   S    
C9    C11   A    
C24   C25   S    
C29   H27   S    
C1    O1    A    
C30   H29   S    
C10   C12   A    
C8    C10   A    
O10   C24   S    
Cu1   N2    S    
C12   C14   A    
Cu2   N1    S    
C26   H17   S    
C22   C23   S    
C14   C16   A    
C3    C4    T    
C32   H34   S    
C25   H14   S    
C15   C17   A    
Cu2   O2    S    
C19   O14   S    
C23   H11   S    
C2    O2    A    
C28   C29   S    
C27   H21   S    
C20   O13   S    
C13   C15   A    
C21   H6    S    
C11   C13   A    
C31   C32   S    
C5    O7    A    
C6    O8    A    
O12   H20   S    
C30   C31   S    
O13   C27   S    
C7    C9    A    
C18   O11   S    
C16   C18   A    
C24   H12   S    
C26   H18   S    
N1    N2    T    
C29   H26   S    
C28   H24   S    
