data_mof_unit_15785.cif
_audit_creation_date              2012-12-11T17:12:52-0500
_audit_creation_method            fapswitch 2.2
_symmetry_space_group_name_H-M    P1
_symmetry_Int_Tables_number       1
_space_group_crystal_system       triclinic
_cell_length_a                    17.149972
_cell_length_b                    6.883027
_cell_length_c                    14.416269
_cell_angle_alpha                 89.999954
_cell_angle_beta                  109.90617
_cell_angle_gamma                 90.000047
_cell_volume                      1600.07295867

loop_
_atom_site_label
_atom_site_type_symbol
_atom_type_description
_atom_site_fract_x
_atom_site_fract_y
_atom_site_fract_z
_atom_type_partial_charge
O1    O     O_R   0.314130 0.635770 0.168990 -0.540441
O2    O     O_R   0.685870 0.364230 0.831010 -0.540441
O3    O     O_R   0.185870 0.135770 0.331010 -0.540441
O4    O     O_R   0.814130 0.864230 0.668990 -0.540441
O5    O     O_R   0.146800 0.302460 0.139760 -0.536320
O6    O     O_R   0.853200 0.697540 0.860240 -0.536320
O7    O     O_R   0.353200 0.802460 0.360240 -0.536320
O8    O     O_R   0.646800 0.197540 0.639760 -0.536320
C1    C     C_R   0.114009 0.475876 0.112762 0.723118
C2    C     C_R   0.885990 0.524123 0.887238 0.723118
C3    C     C_R   0.385990 0.975877 0.387238 0.723118
C4    C     C_R   0.614009 0.024123 0.612762 0.723118
O9    O     O_R   0.311100 0.305780 0.157130 -0.540485
O10   O     O_R   0.688900 0.694220 0.842870 -0.540485
O11   O     O_R   0.188900 0.805780 0.342870 -0.540486
O12   O     O_R   0.811100 0.194220 0.657130 -0.540486
O13   O     O_R   0.351340 0.139640 0.348510 -0.534416
O14   O     O_R   0.648660 0.860360 0.651490 -0.534416
O15   O     O_R   0.148660 0.639640 0.151490 -0.534416
O16   O     O_R   0.851340 0.360360 0.848510 -0.534416
C5    C     C_R   0.332106 0.476166 0.134811 0.702516
C6    C     C_R   0.667894 0.523834 0.865189 0.702516
C7    C     C_R   0.167894 0.976166 0.365189 0.702517
C8    C     C_R   0.832106 0.023834 0.634811 0.702516
C9    C     C_1   0.533578 0.008860 0.533039 -0.161717
C10   C     C_1   0.466422 0.991140 0.466961 -0.161716
C11   C     C_1   0.966422 0.508860 0.966961 -0.161718
C12   C     C_1   0.033578 0.491140 0.033039 -0.161718
O17   O     O_3   0.263010 0.470920 0.312770 -0.361232
O18   O     O_3   0.736990 0.529080 0.687230 -0.361232
O19   O     O_3   0.236990 0.970920 0.187230 -0.361232
O20   O     O_3   0.763010 0.029080 0.812770 -0.361231
V1    V     V_3+5 0.247590 0.194450 0.238360 1.484361
V2    V     V_3+5 0.752410 0.805550 0.761640 1.484361
V3    V     V_3+5 0.252410 0.694450 0.261640 1.484360
V4    V     V_3+5 0.747590 0.305550 0.738360 1.484360
C13   C     C_R   0.118617 0.995422 0.431556 -0.102294
C14   C     C_R   0.881383 0.004578 0.568444 -0.102295
C15   C     C_R   0.381383 0.495423 0.068444 -0.102294
C16   C     C_R   0.618617 0.504577 0.931556 -0.102294
C17   C     C_R   0.916286 0.822514 0.442308 -0.204161
C18   C     C_R   0.083714 0.177486 0.557692 -0.204161
C19   C     C_R   0.583713 0.322510 0.057691 -0.204160
C20   C     C_R   0.416287 0.677490 0.942309 -0.204160
C21   C     C_R   0.861990 0.859868 0.494072 -0.048430
C22   C     C_R   0.138010 0.140132 0.505928 -0.048430
C23   C     C_R   0.638009 0.359864 0.005927 -0.048431
C24   C     C_R   0.361991 0.640135 0.994073 -0.048432
C25   C     C_R   0.954486 0.113083 0.587472 -0.223156
C26   C     C_R   0.045514 0.886917 0.412527 -0.223156
C27   C     C_R   0.545515 0.613084 0.912528 -0.223155
C28   C     C_R   0.454485 0.386916 0.087472 -0.223155
C29   C     C_R   0.009459 0.073661 0.536305 0.141931
C30   C     C_R   0.990541 0.926339 0.463695 0.141931
C31   C     C_R   0.490542 0.573662 0.963695 0.141931
C32   C     C_R   0.509458 0.426338 0.036305 0.141931
H1    H     H_    0.900894 0.710840 0.385812 0.126826
H2    H     H_    0.099106 0.289160 0.614188 0.126826
H3    H     H_    0.599104 0.210834 0.114186 0.126826
H4    H     H_    0.400895 0.789166 0.885814 0.126826
H5    H     H_    0.029734 0.777638 0.354889 0.120705
H6    H     H_    0.970266 0.222362 0.645111 0.120705
H7    H     H_    0.470265 0.277635 0.145109 0.120706
H8    H     H_    0.529735 0.722365 0.854891 0.120706
C33   C     C_1   0.213685 0.252010 0.530969 0.305488
N1    N     N_1   0.274281 0.341632 0.551024 -0.352294
C34   C     C_1   0.786315 0.747990 0.469031 0.305488
N2    N     N_1   0.725719 0.658367 0.448976 -0.352293
C35   C     C_1   0.286318 0.752019 0.969034 0.305487
N3    N     N_1   0.225722 0.841648 0.948981 -0.352291
C36   C     C_1   0.713682 0.247981 0.030966 0.305487
N4    N     N_1   0.774278 0.158352 0.051019 -0.352291

loop_
_geom_bond_atom_site_label_1
_geom_bond_atom_site_label_2
_ccdc_geom_bond_type
C2    C11   S    
C16   C23   A    
C31   C32   A    
O1    C5    A    
O3    C7    A    
C24   C35   S    
C18   H2    S    
C14   C25   A    
C29   C30   A    
O5    C1    A    
C26   C30   A    
O20   V4    S    
C18   C29   A    
O8    V4    S    
O4    C8    A    
O3    V1    S    
O17   V1    S    
C18   C22   A    
C14   C21   A    
C1    O15   A    
C2    O16   A    
O5    V1    S    
C21   C34   S    
C8    C14   S    
O19   V1    S    
C19   H3    S    
O11   C7    A    
C15   C28   A    
O12   C8    A    
O13   V1    S    
O11   V3    S    
O4    V2    S    
O18   V2    S    
C34   N2    T    
C22   C33   S    
C3    C10   S    
C9    C10   T    
C7    C13   S    
O6    V2    S    
O20   V2    S    
O7    C3    A    
O9    V1    S    
C5    C15   S    
O8    C4    A    
C6    C16   S    
O9    C5    A    
O14   V2    S    
C23   C36   S    
O19   V3    S    
O1    V3    S    
O2    V4    S    
C3    O13   A    
C25   H6    S    
O7    V3    S    
C27   H8    S    
C28   H7    S    
O10   V2    S    
C16   C27   A    
O17   V3    S    
O18   V4    S    
C4    C9    S    
O10   C6    A    
C17   H1    S    
C36   N4    T    
O15   V3    S    
O2    C6    A    
O12   V4    S    
C13   C26   A    
C20   C31   A    
C20   H4    S    
C25   C29   A    
C27   C31   A    
C35   N3    T    
C17   C30   A    
O6    C2    A    
O16   V4    S    
C28   C32   A    
C19   C32   A    
C33   N1    T    
C4    O14   A    
C11   C12   T    
C26   H5    S    
C17   C21   A    
C13   C22   A    
C19   C23   A    
C20   C24   A    
C1    C12   S    
C15   C24   A    
