data_mof_unit_29346.cif
_audit_creation_date              2012-12-10T17:53:16-0500
_audit_creation_method            fapswitch 2.2
_symmetry_space_group_name_H-M    P1
_symmetry_Int_Tables_number       1
_space_group_crystal_system       triclinic
_cell_length_a                    23.058941
_cell_length_b                    10.650832
_cell_length_c                    10.007857
_cell_angle_alpha                 89.241223
_cell_angle_beta                  90.190181
_cell_angle_gamma                 92.260678
_cell_volume                      2455.76075884

loop_
_atom_site_label
_atom_site_type_symbol
_atom_type_description
_atom_site_fract_x
_atom_site_fract_y
_atom_site_fract_z
_atom_type_partial_charge
C1    C     C_R   0.504009 0.259548 0.501624 0.888316
C2    C     C_R   0.971631 0.586000 0.757912 -0.153120
C3    C     C_R   0.032354 0.591333 0.764008 0.166883
C4    C     C_R   0.064748 0.612051 0.643922 -0.034712
C5    C     C_R   0.034664 0.634928 0.522519 -0.060168
C6    C     C_R   0.065378 0.656796 0.402060 0.001630
C7    C     C_R   0.035368 0.682738 0.283227 -0.168966
C8    C     C_R   0.975107 0.681819 0.281779 -0.167200
C9    C     C_R   0.125804 0.606760 0.637819 0.508143
C10   C     C_R   0.125405 0.646667 0.402035 0.501007
C11   C     C_R   0.256852 0.688867 0.504359 0.231346
C12   C     C_R   0.389618 0.501530 0.499928 0.833768
C13   C     C_R   0.314830 0.656734 0.497704 -0.166559
C14   C     C_R   0.329240 0.530382 0.500327 -0.047017
C15   C     C_R   0.286477 0.434758 0.511205 -0.312237
C16   C     C_R   0.228622 0.465623 0.515410 -0.146937
C17   C     C_R   0.213664 0.591947 0.511932 0.315000
C18   C     C_R   0.755524 0.645999 0.590040 -0.090361
C19   C     C_R   0.696412 0.616562 0.590560 -0.215349
C20   C     C_R   0.672992 0.527089 0.502031 -0.027231
C21   C     C_R   0.708918 0.467013 0.412783 -0.232047
C22   C     C_R   0.768509 0.493524 0.415413 -0.089667
C23   C     C_R   0.490830 0.737110 0.499078 0.892515
C24   C     C_R   0.792028 0.583262 0.504087 0.292753
C25   C     C_R   0.516922 0.099694 0.753365 -0.202332
C26   C     C_R   0.498260 0.036555 0.869770 -0.148088
C27   C     C_R   0.463494 0.926964 0.860113 -0.042874
C28   C     C_R   0.452708 0.873927 0.736864 -0.155779
C29   C     C_R   0.475859 0.931418 0.620594 0.056372
C30   C     C_R   0.499805 0.053809 0.626548 0.112530
C31   C     C_R   0.504893 0.123389 0.505128 -0.190280
C32   C     C_R   0.496193 0.063115 0.383113 -0.319794
C33   C     C_R   0.478965 0.938163 0.379144 0.424937
C34   C     C_R   0.610660 0.503153 0.500285 0.854538
C35   C     C_R   0.476706 0.868772 0.498480 -0.275004
C36   C     C_R   0.399473 0.412994 0.135782 0.199976
C37   C     C_R   0.346165 0.436443 0.072364 0.150953
C38   C     C_R   0.346002 0.447899 0.931943 0.095467
C39   C     C_R   0.397838 0.422493 0.865732 0.203375
C40   C     C_R   0.450292 0.462373 0.928737 0.043342
C41   C     C_R   0.450632 0.460424 0.071876 0.087549
C42   C     C_R   0.547512 0.537475 0.070950 -0.032475
C43   C     C_R   0.547579 0.536945 0.928540 -0.104093
C44   C     C_R   0.883120 0.642767 0.397334 0.500030
C45   C     C_R   0.881745 0.588164 0.629601 0.514188
C46   C     C_R   0.942216 0.603041 0.636919 -0.059099
C47   C     C_R   0.973561 0.631838 0.519845 -0.022569
C48   C     C_R   0.943770 0.653496 0.398855 0.000988
H1    H     H_    0.947095 0.566683 0.848561 0.195040
H2    H     H_    0.668752 0.665537 0.658131 0.153320
H3    H     H_    0.691030 0.398400 0.343431 0.150369
H4    H     H_    0.796482 0.443746 0.349414 0.155553
H5    H     H_    0.500623 0.114021 0.289574 0.190771
H6    H     H_    0.544204 0.183767 0.764398 0.170582
H7    H     H_    0.509379 0.074591 0.966700 0.162194
H8    H     H_    0.445919 0.878831 0.946465 0.248399
H9    H     H_    0.426484 0.787339 0.732750 0.158108
H10   H     H_    0.586367 0.569121 0.123368 0.147351
H11   H     H_    0.586504 0.568032 0.875751 0.147946
H12   H     H_    0.058306 0.701417 0.190366 0.187560
H13   H     H_    0.953218 0.699692 0.187894 0.190808
H14   H     H_    0.348930 0.729724 0.492820 0.150500
H15   H     H_    0.297882 0.337079 0.515448 0.146252
H16   H     H_    0.195168 0.391594 0.522427 0.150520
H17   H     H_    0.773130 0.716472 0.657590 0.157737
N1    N     N_R   0.853528 0.606838 0.510723 -0.354098
N2    N     N_R   0.153771 0.619832 0.517991 -0.350255
N3    N     N_R   0.499460 0.498800 0.142780 -0.087453
N4    N     N_R   0.499440 0.498720 0.857170 -0.108191
O1    O     O_R   0.500000 0.316780 0.614690 -0.630998
O2    O     O_2   0.851488 0.551819 0.739686 -0.559739
O3    O     O_2   0.157489 0.585970 0.748752 -0.577771
O4    O     O_2   0.155264 0.659828 0.286519 -0.565648
O5    O     O_R   0.500000 0.316750 0.385360 -0.629825
O6    O     O_R   0.416160 0.499970 0.614690 -0.617548
O7    O     O_R   0.416150 0.499950 0.385360 -0.581993
O8    O     O_R   0.500000 0.683250 0.614640 -0.621781
O9    O     O_R   0.500000 0.683220 0.385310 -0.520848
O10   O     O_R   0.583850 0.500050 0.614640 -0.621070
O11   O     O_R   0.583840 0.500030 0.385310 -0.622096
O12   O     O_2   0.853906 0.666932 0.283352 -0.557253
Zn1   Zn    Zn3+2 0.500000 0.500020 0.653130 0.938709
Zn2   Zn    Zn3+2 0.500000 0.499980 0.346870 1.008052
S1    S     S_3+6 0.452388 0.878893 0.226408 -0.014343
O13   O     O_2   0.408010 0.773716 0.249508 -0.265813
O14   O     O_2   0.424245 0.982939 0.150428 -0.376907
O15   O     O_3   0.508278 0.825441 0.138970 -0.566057
H18   H     H_    0.537701 0.895739 0.137332 0.331172
C49   C     C_3   0.059985 0.571943 0.899516 -0.767672
H19   H     H_    0.088713 0.654447 0.924511 0.268367
H20   H     H_    0.027190 0.561508 0.980372 0.201028
H21   H     H_    0.084824 0.484773 0.900403 0.269131
C50   C     C_3   0.401765 0.287050 0.206493 -0.769427
H22   H     H_    0.368542 0.219624 0.165125 0.241998
H23   H     H_    0.443917 0.245015 0.187352 0.240273
H24   H     H_    0.393313 0.292465 0.314856 0.241644
C51   C     C_3   0.290311 0.423847 0.149810 -0.814461
H25   H     H_    0.298607 0.399371 0.255444 0.249635
H26   H     H_    0.267859 0.514148 0.146593 0.274478
H27   H     H_    0.261723 0.347866 0.107596 0.236703
C52   C     C_3   0.291065 0.460320 0.851534 -0.764939
H28   H     H_    0.253558 0.485539 0.913130 0.268696
H29   H     H_    0.297913 0.536870 0.776449 0.254410
H30   H     H_    0.279766 0.371107 0.799815 0.236183
C53   C     C_3   0.396330 0.297049 0.796725 -0.784451
H31   H     H_    0.439387 0.256922 0.799880 0.253943
H32   H     H_    0.367320 0.228090 0.851190 0.215718
H33   H     H_    0.380016 0.302281 0.692885 0.237609
C54   C     C_3   0.241515 0.824823 0.506615 -0.859422
H34   H     H_    0.214653 0.847626 0.418069 0.269572
H35   H     H_    0.216767 0.843317 0.598806 0.241219
H36   H     H_    0.280903 0.888361 0.505104 0.236863

loop_
_geom_bond_atom_site_label_1
_geom_bond_atom_site_label_2
_ccdc_geom_bond_type
O15   H18   S    
C50   H22   S    
C11   C54   S    
C7    H12   S    
C44   N1    A    
C19   C20   A    
C9    O3    S    
O5    Zn2   S    
C26   H7    S    
C42   H10   S    
C37   C51   S    
C51   H25   S    
C7    C8    A    
C10   N2    A    
C2    C46   A    
C18   H17   S    
C5    C6    A    
C5    C47   A    
C26   C27   A    
C37   C38   A    
C18   C24   A    
C1    O5    A    
C28   C29   A    
S1    O14   D    
C38   C52   S    
C54   H35   S    
C30   C31   A    
C10   O4    S    
C45   O2    S    
C15   C16   A    
C1    C31   S    
C18   C19   A    
N4    Zn1   S    
C34   O11   A    
C36   C50   S    
C13   H14   S    
C47   C48   A    
C16   C17   A    
S1    O15   S    
C13   C14   A    
C49   H20   S    
C43   H11   S    
C8    H13   S    
C20   C34   S    
C50   H23   S    
C28   H9    S    
C21   C22   A    
C42   N3    A    
C36   C41   A    
O11   Zn2   S    
O9    Zn2   S    
O7    Zn2   S    
C51   H26   S    
C41   N3    A    
C53   H33   S    
C17   N2    S    
C40   N4    A    
C52   H28   S    
C25   H6    S    
C44   O12   S    
C54   H36   S    
C39   C40   A    
C27   H8    S    
C25   C26   A    
C45   C46   A    
C23   O8    A    
C8    C48   A    
C9    N2    A    
C29   C30   A    
C2    H1    S    
C34   O10   A    
C53   H32   S    
C31   C32   A    
S1    O13   D    
C49   H21   S    
C40   C41   A    
C12   C14   S    
C50   H24   S    
C23   C35   S    
C12   O7    A    
C22   C24   A    
C42   C43   A    
C3    C4    A    
C32   H5    S    
C21   H3    S    
C51   H27   S    
C22   H4    S    
C52   H29   S    
C25   C30   A    
C39   C53   S    
C46   C47   A    
C11   C17   A    
N3    Zn2   S    
C4    C5    A    
C6    C10   A    
O10   Zn1   S    
O6    Zn1   S    
C6    C7    A    
C24   N1    S    
C52   H30   S    
C53   H31   S    
C29   C35   A    
C1    O1    A    
C3    C49   S    
C32   C33   A    
C2    C3    A    
C49   H19   S    
C54   H34   S    
C11   C13   A    
C19   H2    S    
C38   C39   A    
O8    Zn1   S    
C33   C35   A    
C23   O9    A    
O1    Zn1   S    
C33   S1    S    
C20   C21   A    
C36   C37   A    
C12   O6    A    
C45   N1    A    
C15   H15   S    
C14   C15   A    
C16   H16   S    
C4    C9    A    
C43   N4    A    
C44   C48   A    
C27   C28   A    
