data_mof_unit_8431.cif
_audit_creation_date              2012-12-10T17:29:17-0500
_audit_creation_method            fapswitch 2.2
_symmetry_space_group_name_H-M    P1
_symmetry_Int_Tables_number       1
_space_group_crystal_system       triclinic
_cell_length_a                    12.034343
_cell_length_b                    12.809876
_cell_length_c                    13.103861
_cell_angle_alpha                 86.634004
_cell_angle_beta                  113.82211
_cell_angle_gamma                 94.582651
_cell_volume                      1841.28614851

loop_
_atom_site_label
_atom_site_type_symbol
_atom_type_description
_atom_site_fract_x
_atom_site_fract_y
_atom_site_fract_z
_atom_type_partial_charge
C1    C     C_R   0.476618 0.299506 0.498736 0.917539
C2    C     C_R   0.559677 0.514953 0.988742 0.147894
C3    C     C_R   0.543663 0.546487 0.879475 -0.075255
C4    C     C_R   0.471449 0.540081 0.027472 -0.023529
C5    C     C_R   0.380602 0.610750 0.965597 -0.190556
C6    C     C_R   0.377597 0.652772 0.863287 0.667138
C7    C     C_R   0.458228 0.621207 0.821404 -0.241400
C8    C     C_R   0.470068 0.493804 0.125454 -0.305294
C9    C     C_R   0.304721 0.596060 0.112738 0.517336
C10   C     C_R   0.612352 0.500999 0.830246 -0.243942
C11   C     C_R   0.538755 0.812247 0.499975 -0.258651
C12   C     C_R   0.567645 0.499308 0.708873 0.901971
C13   C     C_R   0.459991 0.188060 0.493721 -0.179147
C14   C     C_R   0.339836 0.034069 0.407146 0.724834
C15   C     C_R   0.348604 0.140331 0.424786 -0.336492
C16   C     C_R   0.562004 0.130742 0.548511 -0.159159
C17   C     C_R   0.555996 0.024901 0.530850 -0.088276
C18   C     C_R   0.443630 0.975901 0.458697 -0.174621
C19   C     C_R   0.437313 0.869759 0.441299 0.616885
C20   C     C_R   0.650389 0.860360 0.568151 -0.404585
C21   C     C_R   0.660987 0.968130 0.582141 0.516148
C22   C     C_R   0.006384 0.596251 0.389776 0.394963
C23   C     C_R   0.522820 0.700538 0.499509 0.946276
C24   C     C_R   0.128936 0.588786 0.404418 -0.156257
C25   C     C_R   0.157988 0.456237 0.545740 0.582378
C26   C     C_R   0.038566 0.466630 0.540376 -0.168930
C27   C     C_R   0.961156 0.535128 0.459569 -0.061979
C28   C     C_R   0.839891 0.540122 0.450822 -0.102790
C29   C     C_R   0.874037 0.417010 0.600785 0.784984
C30   C     C_R   0.994731 0.410519 0.613760 -0.341980
C31   C     C_R   0.433192 0.506087 0.291203 0.928772
C32   C     C_R   0.296642 0.638310 0.008923 0.400619
C33   C     C_R   0.395174 0.527107 0.172244 -0.235934
C34   C     C_R   0.713502 0.444388 0.896844 0.669879
C35   C     C_R   0.740867 0.427316 0.009678 -0.249341
C36   C     C_R   0.663613 0.459694 0.055166 -0.290853
H1    H     H_    0.727005 0.813539 0.614809 0.194683
H2    H     H_    0.270198 0.185934 0.380835 0.174403
H3    H     H_    0.647216 0.170117 0.602213 0.243294
H4    H     H_    0.778436 0.591715 0.388995 0.195930
H5    H     H_    0.052961 0.361490 0.681205 0.203723
H6    H     H_    0.166477 0.638443 0.355093 0.237541
H7    H     H_    0.530295 0.433169 0.170078 0.183860
H8    H     H_    0.689856 0.443660 0.143313 0.163028
H9    H     H_    0.819741 0.385090 0.061433 0.178079
H10   H     H_    0.453837 0.657082 0.743124 0.182544
N1    N     N_R   0.798200 0.480260 0.519790 -0.163026
N2    N     N_R   0.201820 0.519740 0.480210 -0.163279
O1    O     O_R   0.579910 0.341070 0.505280 -0.584890
O2    O     O_R   0.388440 0.353740 0.492580 -0.621549
O3    O     O_R   0.643280 0.490550 0.663120 -0.521719
O4    O     O_R   0.451810 0.503220 0.650420 -0.579847
O5    O     O_R   0.611560 0.646260 0.507420 -0.638054
O6    O     O_R   0.420090 0.658930 0.494720 -0.567312
O7    O     O_R   0.548190 0.496780 0.349580 -0.645583
O8    O     O_R   0.356720 0.509450 0.336880 -0.565785
Zn1   Zn    Zn3+2 0.627850 0.491540 0.508480 1.014058
Zn2   Zn    Zn3+2 0.372150 0.508460 0.491520 1.022027
F1    F     F_    0.228107 0.625960 0.156899 -0.655958
F2    F     F_    0.230816 0.989495 0.338424 -0.608843
O9    O     O_3   0.768933 0.016926 0.654914 -0.597355
C37   C     C_3   0.862835 0.006335 0.618210 0.108155
H11   H     H_    0.831875 0.022518 0.526569 0.139449
H12   H     H_    0.896793 0.926305 0.639033 0.159675
C38   C     C_3   0.968330 0.084594 0.677764 -0.781192
H13   H     H_    0.001835 0.071024 0.769510 0.270066
H14   H     H_    0.043912 0.075344 0.651604 0.201740
H15   H     H_    0.938291 0.165719 0.656375 0.270440
F3    F     F_    0.832796 0.359723 0.669947 -0.606743
O10   O     O_3   0.933618 0.669055 0.315147 -0.602065
C39   C     C_3   0.921694 0.651231 0.205691 0.122281
H16   H     H_    0.905566 0.566247 0.186784 0.131150
H17   H     H_    0.004391 0.682953 0.193605 0.211186
C40   C     C_3   0.813583 0.707846 0.122844 -0.764292
H18   H     H_    0.829911 0.793661 0.135039 0.268032
H19   H     H_    0.800264 0.691425 0.036229 0.217672
H20   H     H_    0.729778 0.680707 0.135195 0.247692
F4    F     F_    0.295428 0.722581 0.801454 -0.639974
O11   O     O_3   0.233367 0.385598 0.620688 -0.577629
C41   C     C_3   0.196644 0.283200 0.579489 0.086793
H21   H     H_    0.196839 0.277886 0.495280 0.153207
H22   H     H_    0.103504 0.258039 0.572527 0.117218
C42   C     C_3   0.283315 0.206314 0.659398 -0.753182
H23   H     H_    0.259824 0.126562 0.624847 0.213357
H24   H     H_    0.378575 0.230270 0.672091 0.263940
H25   H     H_    0.275953 0.204347 0.741299 0.247787
O12   O     O_3   0.204683 0.703843 0.949078 -0.529461
C43   C     C_3   0.240789 0.806326 0.989430 0.186174
H26   H     H_    0.329700 0.833979 0.986438 0.130490
H27   H     H_    0.248297 0.809892 0.076668 0.191282
C44   C     C_3   0.145583 0.880662 0.916546 -0.727183
H28   H     H_    0.055955 0.856253 0.918888 0.260626
H29   H     H_    0.172783 0.961540 0.947526 0.198245
H30   H     H_    0.137096 0.880148 0.828953 0.273784
F5    F     F_    0.783247 0.402071 0.852489 -0.595543
F6    F     F_    0.332085 0.821003 0.369909 -0.601796

loop_
_geom_bond_atom_site_label_1
_geom_bond_atom_site_label_2
_ccdc_geom_bond_type
O12   C43   S    
C28   N1    A    
C24   H6    S    
C14   C18   A    
C35   C36   A    
C8    H7    S    
C4    C8    A    
C11   C19   A    
C26   C27   A    
C37   H11   S    
C40   H19   S    
C29   N1    A    
C18   C19   A    
C3    C7    A    
C5    C6    A    
C6    F4    S    
N1    Zn1   S    
C28   H4    S    
O1    Zn1   S    
C34   C35   A    
C37   H12   S    
C9    C32   A    
C16   C17   A    
C38   H14   S    
C40   H20   S    
C31   C33   S    
C30   H5    S    
O10   C39   S    
O3    Zn1   S    
C31   O8    A    
C1    O2    A    
C21   O9    S    
C5    C32   A    
C9    C33   A    
C41   C42   S    
C12   O4    A    
C23   O5    A    
C29   F3    S    
O4    Zn2   S    
C11   C20   A    
C40   H18   S    
O2    Zn2   S    
C7    H10   S    
C34   F5    S    
C41   H22   S    
C44   H28   S    
C39   H17   S    
O5    Zn1   S    
C4    C5    A    
C25   C26   A    
C32   O12   S    
C17   C21   A    
C9    F1    S    
C24   N2    A    
C2    C4    A    
C15   H2    S    
C29   C30   A    
C44   H29   S    
C42   H23   S    
C43   C44   S    
C38   H15   S    
C17   C18   A    
C10   C34   A    
C20   C21   A    
C25   N2    A    
C10   C12   S    
C42   H24   S    
C43   H27   S    
C26   C30   A    
C22   C27   A    
O7    Zn1   S    
C22   C24   A    
C36   H8    S    
C1    C13   S    
C35   H9    S    
C12   O3    A    
C23   O6    A    
O6    Zn2   S    
C2    C36   A    
C37   C38   S    
C25   O11   S    
C41   H21   S    
C39   C40   S    
N2    Zn2   S    
C6    C7    A    
C14   F2    S    
C13   C15   A    
C2    C3    A    
C39   H16   S    
C3    C10   A    
C44   H30   S    
C20   H1    S    
C11   C23   S    
O8    Zn2   S    
C8    C33   A    
O9    C37   S    
C16   H3    S    
O11   C41   S    
C42   H25   S    
C43   H26   S    
C38   H13   S    
C13   C16   A    
C27   C28   A    
C14   C15   A    
C31   O7    A    
C1    O1    A    
C22   O10   S    
C19   F6    S    
