data_mof_unit_14478.cif
_audit_creation_date              2012-12-10T17:42:43-0500
_audit_creation_method            fapswitch 2.2
_symmetry_space_group_name_H-M    P1
_symmetry_Int_Tables_number       1
_space_group_crystal_system       triclinic
_cell_length_a                    9.937
_cell_length_b                    10.651269
_cell_length_c                    13.108957
_cell_angle_alpha                 90.683418
_cell_angle_beta                  69.95338
_cell_angle_gamma                 89.972021
_cell_volume                      1303.30411747

loop_
_atom_site_label
_atom_site_type_symbol
_atom_type_description
_atom_site_fract_x
_atom_site_fract_y
_atom_site_fract_z
_atom_type_partial_charge
C1    C     C_R   0.501879 0.739389 0.495465 1.048127
C2    C     C_R   0.368393 0.482379 0.821767 -0.068002
C3    C     C_R   0.488336 0.872547 0.302324 0.622096
C4    C     C_R   0.420267 0.493387 0.703861 0.858031
C5    C     C_R   0.480403 0.940255 0.214053 -0.182299
C6    C     C_R   0.480108 0.070569 0.216847 -0.227908
C7    C     C_R   0.487578 0.133913 0.308092 -0.136785
C8    C     C_R   0.494278 0.067083 0.399003 0.037042
C9    C     C_R   0.494696 0.935169 0.396821 -0.097292
C10   C     C_R   0.504780 0.872112 0.488808 -0.242590
C11   C     C_R   0.517758 0.936694 0.578177 0.582057
C12   C     C_R   0.430631 0.468752 0.984539 0.103307
C13   C     C_R   0.518087 0.065048 0.579164 -0.247855
C14   C     C_R   0.504123 0.128845 0.491656 -0.143053
C15   C     C_R   0.797919 0.664019 0.641749 -0.112500
C16   C     C_R   0.500398 0.260827 0.499372 0.878166
C17   C     C_R   0.836432 0.741467 0.713310 -0.135612
C18   C     C_R   0.974910 0.738452 0.714836 -0.203765
C19   C     C_R   0.075980 0.658683 0.644184 -0.156132
C20   C     C_R   0.040730 0.578743 0.570809 0.181706
C21   C     C_R   0.896632 0.579937 0.570152 0.148545
C22   C     C_R   0.959143 0.424134 0.432516 -0.071966
C23   C     C_R   0.459792 0.436068 0.874817 -0.006452
C24   C     C_R   0.102175 0.424426 0.432316 -0.091273
C25   C     C_R   0.579880 0.496041 0.295878 1.000185
C26   C     C_R   0.771599 0.361419 0.018033 -0.214804
C27   C     C_R   0.627597 0.475147 0.179046 -0.176490
C28   C     C_R   0.234174 0.533249 0.882465 -0.177771
C29   C     C_R   0.195089 0.546467 0.994347 -0.095625
C30   C     C_R   0.293273 0.517899 0.045119 -0.149219
C31   C     C_R   0.540161 0.451153 0.029054 -0.022428
C32   C     C_R   0.665684 0.381698 0.971171 -0.070060
C33   C     C_R   0.681925 0.332738 0.868369 0.626080
C34   C     C_R   0.580302 0.359798 0.820725 -0.282110
C35   C     C_R   0.529442 0.504374 0.128740 -0.270980
C36   C     C_R   0.751398 0.405829 0.122843 0.562690
F1    F     F_    0.848224 0.375526 0.170716 -0.675878
F2    F     F_    0.492928 0.746443 0.292347 -0.714261
F3    F     F_    0.797749 0.261453 0.812562 -0.667069
F4    F     F_    0.525932 0.874962 0.666028 -0.699785
H1    H     H_    0.475912 0.891129 0.142502 0.168406
H2    H     H_    0.441699 0.566404 0.171062 0.216769
H3    H     H_    0.161232 0.566154 0.843187 0.155953
H4    H     H_    0.257675 0.531873 0.132025 0.139211
H5    H     H_    0.090682 0.584155 0.041336 0.168241
H6    H     H_    0.596155 0.318909 0.741505 0.189733
H7    H     H_    0.004628 0.798872 0.770589 0.170943
H8    H     H_    0.180507 0.662231 0.649237 0.203335
H9    H     H_    0.475340 0.122786 0.147782 0.174505
H10   H     H_    0.489687 0.235261 0.305957 0.138855
H11   H     H_    0.526186 0.115158 0.649350 0.168634
H12   H     H_    0.930574 0.362045 0.377357 0.186623
H13   H     H_    0.690244 0.673890 0.644956 0.241931
H14   H     H_    0.758194 0.804577 0.767701 0.194964
H15   H     H_    0.180745 0.362535 0.376934 0.148849
H16   H     H_    0.867407 0.307674 0.975364 0.218307
N1    N     N_R   0.856860 0.501200 0.500990 -0.125954
N2    N     N_R   0.142450 0.501280 0.501020 -0.117577
O1    O     O_R   0.385310 0.683220 0.500000 -0.606541
O2    O     O_R   0.614640 0.683250 0.500010 -0.624463
O3    O     O_R   0.328400 0.499950 0.653610 -0.636014
O4    O     O_R   0.557730 0.499970 0.653620 -0.639265
O5    O     O_R   0.385360 0.316750 0.499990 -0.617264
O6    O     O_R   0.614690 0.316780 0.500000 -0.612032
O7    O     O_R   0.442270 0.500030 0.346380 -0.605640
O8    O     O_R   0.671600 0.500050 0.346390 -0.567300
Zn1   Zn    Zn3+2 0.346880 0.499980 0.499990 0.972621
Zn2   Zn    Zn3+2 0.653120 0.500020 0.500010 0.986105

loop_
_geom_bond_atom_site_label_1
_geom_bond_atom_site_label_2
_ccdc_geom_bond_type
O8    Zn2   S    
C3    F2    S    
C21   N1    A    
C6    C7    A    
C3    C9    A    
C16   O5    A    
C4    O4    A    
C27   C36   A    
C25   C27   S    
C2    C28   A    
C9    C10   A    
O3    Zn1   S    
C28   H3    S    
C2    C4    S    
C19   C20   A    
O4    Zn2   S    
C3    C5    A    
C23   C34   A    
C27   C35   A    
C32   C33   A    
C22   N1    A    
C17   C18   A    
C7    C8    A    
C6    H9    S    
C33   F3    S    
C13   C14   A    
C18   H7    S    
C24   H15   S    
C26   C32   A    
C11   C13   A    
C12   C23   A    
C30   H4    S    
C29   C30   A    
C34   H6    S    
C15   H13   S    
C22   C24   A    
C26   C36   A    
C36   F1    S    
C33   C34   A    
C22   H12   S    
C31   C35   A    
C1    O1    A    
C12   C31   A    
C5    C6    A    
O5    Zn1   S    
C10   C11   A    
C1    C10   S    
N1    Zn2   S    
C20   N2    A    
C11   F4    S    
O6    Zn2   S    
N2    Zn1   S    
C15   C21   A    
C25   O7    A    
C20   C21   A    
O2    Zn2   S    
C24   N2    A    
C18   C19   A    
C1    O2    A    
C2    C23   A    
C15   C17   A    
C35   H2    S    
C5    H1    S    
C19   H8    S    
C28   C29   A    
C8    C14   A    
C16   O6    A    
O1    Zn1   S    
C14   C16   S    
C13   H11   S    
C12   C30   A    
C4    O3    A    
C17   H14   S    
C25   O8    A    
C31   C32   A    
C7    H10   S    
C29   H5    S    
C8    C9    A    
O7    Zn1   S    
C26   H16   S    
