data_mof_unit_29413.cif
_audit_creation_date              2012-12-11T16:45:39-0500
_audit_creation_method            fapswitch 2.2
_symmetry_space_group_name_H-M    P1
_symmetry_Int_Tables_number       1
_space_group_crystal_system       triclinic
_cell_length_a                    19.736647
_cell_length_b                    17.108427
_cell_length_c                    15.327642
_cell_angle_alpha                 90.00586
_cell_angle_beta                  52.735043
_cell_angle_gamma                 90.134218
_cell_volume                      4118.93505425

loop_
_atom_site_label
_atom_site_type_symbol
_atom_type_description
_atom_site_fract_x
_atom_site_fract_y
_atom_site_fract_z
_atom_type_partial_charge
C1    C     C_R   0.839926 0.673503 0.046496 -0.204645
C2    C     C_R   0.150975 0.311299 0.069726 0.123593
C3    C     C_R   0.353295 0.809423 0.925077 0.114530
C4    C     C_R   0.647593 0.809995 0.073605 0.115064
C5    C     C_R   0.888446 0.685268 0.304466 0.125979
C6    C     C_R   0.110785 0.685499 0.695751 0.117789
C7    C     C_R   0.389073 0.185411 0.304182 0.118322
C8    C     C_R   0.610815 0.186684 0.697090 0.102036
C9    C     C_R   0.848448 0.712752 0.487867 0.105294
C10   C     C_R   0.148982 0.713640 0.513141 0.114354
C11   C     C_R   0.349650 0.213321 0.487323 0.112139
C12   C     C_R   0.160972 0.672862 0.951772 -0.218875
C13   C     C_R   0.654246 0.214346 0.514031 0.076397
C14   C     C_R   0.869981 0.741535 0.388420 -0.145860
C15   C     C_R   0.128653 0.742032 0.612147 -0.139798
C16   C     C_R   0.370797 0.241869 0.387963 -0.138834
C17   C     C_R   0.631215 0.244166 0.613481 -0.126121
C18   C     C_R   0.360916 0.323057 0.379696 0.628529
C19   C     C_R   0.647190 0.323939 0.620064 0.635915
C20   C     C_R   0.860617 0.822793 0.380054 0.631976
C21   C     C_R   0.138952 0.823236 0.620088 0.631694
C22   C     C_R   0.311096 0.367403 0.477611 -0.395753
C23   C     C_R   0.339962 0.173381 0.046646 -0.201681
C24   C     C_R   0.694542 0.368576 0.523137 -0.373866
C25   C     C_R   0.811151 0.867244 0.477825 -0.392139
C26   C     C_R   0.188473 0.867716 0.522078 -0.394796
C27   C     C_R   0.270697 0.330262 0.579617 -0.018074
C28   C     C_R   0.728425 0.333596 0.421785 -0.009522
C29   C     C_R   0.770533 0.830116 0.579880 -0.020180
C30   C     C_R   0.228363 0.830666 0.420228 -0.019423
C31   C     C_R   0.799273 0.756135 0.582143 0.168308
C32   C     C_R   0.198333 0.757047 0.418614 0.165386
C33   C     C_R   0.300131 0.256600 0.581694 0.165917
C34   C     C_R   0.660633 0.173181 0.952479 -0.205030
C35   C     C_R   0.702790 0.258414 0.418891 0.126166
C36   C     C_3   0.752196 0.685300 0.650682 -0.501353
C37   C     C_3   0.243807 0.686078 0.349992 -0.508803
C38   C     C_3   0.253855 0.185560 0.650210 -0.507637
C39   C     C_3   0.647133 0.237485 0.386672 -0.458093
C40   C     C_R   0.849197 0.329746 0.219508 -0.138492
C41   C     C_R   0.150399 0.330139 0.781647 -0.150118
C42   C     C_R   0.349167 0.830317 0.218269 -0.155066
C43   C     C_R   0.650490 0.830292 0.781806 -0.152645
C44   C     C_3   0.806368 0.637721 0.547484 -0.490399
C45   C     C_R   0.806480 0.363645 0.322315 0.103666
C46   C     C_3   0.189437 0.638469 0.453405 -0.500754
C47   C     C_3   0.308390 0.138100 0.546930 -0.492083
C48   C     C_3   0.594421 0.189451 0.489987 -0.453861
C49   C     C_2   0.781023 0.187514 0.963645 -0.153643
C50   C     C_2   0.221198 0.188742 0.033010 -0.154645
C51   C     C_2   0.286864 0.683882 0.954671 -0.127851
C52   C     C_2   0.720322 0.688380 0.033982 -0.152684
C53   C     C_2   0.313875 0.751644 0.899605 -0.217216
C54   C     C_2   0.687292 0.751800 0.097622 -0.206418
C55   C     C_2   0.813342 0.251650 0.901264 -0.207561
C56   C     C_R   0.192014 0.361197 0.677660 0.117564
C57   C     C_2   0.189755 0.253068 0.094774 -0.200714
C58   C     C_R   0.870643 0.386389 0.891044 -0.113922
C59   C     C_R   0.133124 0.387773 0.104823 -0.086703
C60   C     C_R   0.371114 0.886170 0.890537 -0.111317
C61   C     C_R   0.629129 0.886336 0.109189 -0.109846
C62   C     C_R   0.908444 0.607887 0.302492 -0.181127
C63   C     C_R   0.090885 0.607933 0.697850 -0.162308
C64   C     C_R   0.409081 0.107966 0.302138 -0.162712
C65   C     C_R   0.592999 0.108530 0.696493 -0.147342
C66   C     C_R   0.878171 0.298492 0.990585 -0.130842
C67   C     C_R   0.307415 0.861435 0.322146 0.116357
C68   C     C_R   0.122411 0.298871 0.008801 -0.136025
C69   C     C_R   0.378678 0.798150 0.989724 -0.131837
C70   C     C_R   0.621157 0.798439 0.010167 -0.133076
C71   C     C_R   0.896783 0.698156 0.209161 -0.110526
C72   C     C_R   0.102852 0.698316 0.790837 -0.111168
C73   C     C_R   0.397009 0.198201 0.209103 -0.112346
C74   C     C_R   0.602239 0.198623 0.792440 -0.113567
C75   C     C_R   0.857683 0.423067 0.315418 -0.140099
C76   C     C_R   0.141594 0.421223 0.683767 -0.137615
C77   C     C_R   0.358148 0.921336 0.316077 -0.136559
C78   C     C_R   0.692068 0.861286 0.677830 0.115291
C79   C     C_R   0.641625 0.921198 0.683800 -0.135331
C80   C     C_R   0.829067 0.580226 0.952789 0.593102
C81   C     C_R   0.169455 0.583034 0.050478 0.604780
C82   C     C_R   0.329031 0.080110 0.952948 0.593772
C83   C     C_R   0.671481 0.079802 0.045943 0.594232
C84   C     C_R   0.788328 0.644809 0.021013 -0.023467
C85   C     C_R   0.212530 0.644655 0.977578 -0.008415
C86   C     C_R   0.288419 0.144714 0.021083 -0.024059
C87   C     C_R   0.712533 0.144198 0.977172 -0.023797
C88   C     C_3   0.725506 0.507345 0.966862 -0.296279
C89   C     C_R   0.852097 0.310007 0.926670 0.115646
C90   C     C_3   0.127891 0.565730 0.223230 -0.347144
C91   C     C_3   0.225607 0.007189 0.966896 -0.302361
C92   C     C_3   0.775151 0.006516 0.030360 -0.300364
C93   C     C_3   0.345346 0.406661 0.273753 -0.297321
C94   C     C_3   0.674399 0.398422 0.721570 -0.308218
C95   C     C_3   0.844281 0.904840 0.273724 -0.313068
C96   C     C_3   0.156282 0.906113 0.725074 -0.308713
H1    H     H_    0.831359 0.725802 0.091518 0.126024
H2    H     H_    0.229825 0.674190 0.291007 0.193923
H3    H     H_    0.267181 0.173387 0.709766 0.201041
H4    H     H_    0.612475 0.288594 0.386469 0.200634
H5    H     H_    0.683819 0.684603 0.685106 0.198366
H6    H     H_    0.312339 0.684466 0.314737 0.199209
H7    H     H_    0.185449 0.184162 0.684804 0.195713
H8    H     H_    0.681303 0.201544 0.310845 0.192157
H9    H     H_    0.850613 0.597997 0.548047 0.188721
H10   H     H_    0.144103 0.599520 0.453725 0.183101
H11   H     H_    0.353144 0.098973 0.547254 0.193593
H12   H     H_    0.171121 0.723248 0.902888 0.126681
H13   H     H_    0.528795 0.212317 0.550409 0.201223
H14   H     H_    0.768712 0.609944 0.523686 0.196669
H15   H     H_    0.227236 0.609824 0.476262 0.196255
H16   H     H_    0.270863 0.109699 0.523350 0.193077
H17   H     H_    0.598117 0.125670 0.473848 0.184744
H18   H     H_    0.792772 0.174325 0.022384 0.141426
H19   H     H_    0.209623 0.175731 0.974013 0.141612
H20   H     H_    0.308858 0.663551 0.000519 0.153296
H21   H     H_    0.708996 0.675729 0.974669 0.141445
H22   H     H_    0.293613 0.771194 0.851444 0.130540
H23   H     H_    0.331598 0.225681 0.091533 0.129460
H24   H     H_    0.700317 0.766504 0.155038 0.130011
H25   H     H_    0.800060 0.266815 0.844249 0.129199
H26   H     H_    0.202921 0.268099 0.151952 0.130688
H27   H     H_    0.827648 0.281463 0.196679 0.104013
H28   H     H_    0.172866 0.285255 0.807340 0.112782
H29   H     H_    0.326432 0.785623 0.192534 0.113588
H30   H     H_    0.673020 0.785525 0.807588 0.112498
H31   H     H_    0.871491 0.410376 0.825176 0.146695
H32   H     H_    0.135642 0.412107 0.167684 0.137160
H33   H     H_    0.371769 0.910381 0.824920 0.148239
H34   H     H_    0.669506 0.225423 0.907145 0.126399
H35   H     H_    0.628462 0.910314 0.174925 0.147486
H36   H     H_    0.887433 0.243447 0.016558 0.086167
H37   H     H_    0.112269 0.243480 0.984360 0.086167
H38   H     H_    0.387075 0.743148 0.016650 0.090931
H39   H     H_    0.611481 0.743279 0.984726 0.088308
H40   H     H_    0.896670 0.753482 0.175725 0.148537
H41   H     H_    0.102755 0.753700 0.824334 0.150064
H42   H     H_    0.396813 0.253530 0.175722 0.151273
H43   H     H_    0.601193 0.253377 0.827755 0.156449
H44   H     H_    0.922248 0.580377 0.353450 0.100879
H45   H     H_    0.297733 0.428202 0.474894 0.151438
H46   H     H_    0.075935 0.580333 0.648013 0.113373
H47   H     H_    0.423842 0.080533 0.352223 0.114967
H48   H     H_    0.583308 0.080721 0.641495 0.106445
H49   H     H_    0.844990 0.460680 0.380313 0.096984
H50   H     H_    0.154757 0.458176 0.617946 0.095294
H51   H     H_    0.344997 0.958344 0.381790 0.096242
H52   H     H_    0.654763 0.957943 0.617850 0.096547
H53   H     H_    0.674114 0.550151 0.994866 0.151491
H54   H     H_    0.716481 0.478954 0.038750 0.148619
H55   H     H_    0.718417 0.460983 0.922268 0.167813
H56   H     H_    0.708910 0.429060 0.526077 0.148127
H57   H     H_    0.067356 0.535371 0.253959 0.141766
H58   H     H_    0.117218 0.629834 0.238065 0.153822
H59   H     H_    0.149037 0.543748 0.271270 0.177404
H60   H     H_    0.174071 0.050105 0.996166 0.150544
H61   H     H_    0.217132 0.977992 0.037981 0.149154
H62   H     H_    0.218197 0.961453 0.921886 0.168743
H63   H     H_    0.827068 0.049083 0.001804 0.150176
H64   H     H_    0.783355 0.978495 0.958815 0.149715
H65   H     H_    0.782274 0.959841 0.074505 0.168573
H66   H     H_    0.344327 0.465811 0.304387 0.162271
H67   H     H_    0.798213 0.928145 0.474902 0.152672
H68   H     H_    0.279716 0.382161 0.319591 0.127018
H69   H     H_    0.370079 0.413395 0.187089 0.182080
H70   H     H_    0.684140 0.458340 0.687890 0.167211
H71   H     H_    0.735923 0.366213 0.676767 0.124454
H72   H     H_    0.651034 0.404640 0.807735 0.172925
H73   H     H_    0.841401 0.964174 0.305169 0.161714
H74   H     H_    0.779354 0.878862 0.318597 0.130937
H75   H     H_    0.869501 0.911566 0.186860 0.171884
H76   H     H_    0.158089 0.965405 0.694215 0.164970
H77   H     H_    0.221557 0.881086 0.679023 0.131264
H78   H     H_    0.202158 0.928523 0.524580 0.151209
H79   H     H_    0.131984 0.912698 0.811577 0.171354
H80   H     H_    0.765239 0.672606 0.710399 0.199859
N1    N     N_R   0.908660 0.628630 0.995840 -0.070566
N2    N     N_R   0.096530 0.421430 0.063580 -0.050018
N3    N     N_R   0.403470 0.921430 0.936420 -0.047700
N4    N     N_R   0.596530 0.921430 0.063580 -0.047432
N5    N     N_R   0.927500 0.575670 0.211370 -0.042450
N6    N     N_R   0.072500 0.575670 0.788630 -0.042735
N7    N     N_R   0.427500 0.075670 0.211370 -0.044048
N8    N     N_R   0.572500 0.075670 0.788630 -0.044448
N9    N     N_R   0.908660 0.365680 0.995820 -0.048076
N10   N     N_R   0.091340 0.365680 0.004180 -0.046118
N11   N     N_R   0.408660 0.865680 0.995820 -0.049080
N12   N     N_R   0.091340 0.628630 0.004160 -0.068511
N13   N     N_R   0.591340 0.865680 0.004180 -0.048800
N14   N     N_R   0.922310 0.631420 0.151980 -0.044474
N15   N     N_R   0.077690 0.631420 0.848020 -0.044914
N16   N     N_R   0.422310 0.131420 0.151980 -0.047182
N17   N     N_R   0.577690 0.131420 0.848020 -0.047648
N18   N     N_R   0.927500 0.426330 0.211360 -0.044838
N19   N     N_R   0.072500 0.426330 0.788640 -0.042014
N20   N     N_R   0.427500 0.926330 0.211360 -0.042349
N21   N     N_R   0.572500 0.926330 0.788640 -0.042531
N22   N     N_R   0.903470 0.570760 0.936440 -0.095855
N23   N     N_R   0.408660 0.128630 0.995840 -0.071673
N24   N     N_R   0.096530 0.570760 0.063560 -0.106037
N25   N     N_R   0.403470 0.070760 0.936440 -0.096241
N26   N     N_R   0.596530 0.070760 0.063560 -0.096029
N27   N     N_R   0.591340 0.128630 0.004160 -0.070810
N28   N     N_R   0.922310 0.368460 0.151950 -0.042745
N29   N     N_R   0.077690 0.368460 0.848050 -0.042422
N30   N     N_R   0.422310 0.868460 0.151950 -0.042462
N31   N     N_R   0.577690 0.868460 0.848050 -0.042350
N32   N     N_R   0.903470 0.421430 0.936420 -0.047063
Ni1   Ni    Ni4+2 0.000000 0.630300 0.000000 0.209191
Ni2   Ni    Ni4+2 0.500000 0.130300 0.000000 0.208697
Ni3   Ni    Ni4+2 1.000000 0.369700 0.000000 0.201600
Ni4   Ni    Ni4+2 0.500000 0.869700 0.000000 0.200277
Ni5   Ni    Ni4+2 0.988090 0.497570 0.863760 0.226526
Ni6   Ni    Ni4+2 0.011910 0.497570 0.136240 0.200842
Ni7   Ni    Ni4+2 0.488090 0.997570 0.863760 0.225760
Ni8   Ni    Ni4+2 0.511910 0.997570 0.136240 0.224903
O1    O     O_3   0.807065 0.541639 0.893922 -0.645503
O2    O     O_3   0.191738 0.549152 0.111532 -0.633756
O3    O     O_3   0.307069 0.041647 0.893970 -0.644053
O4    O     O_3   0.693976 0.040964 0.104036 -0.645041
O5    O     O_3   0.400891 0.356923 0.276921 -0.623647
O6    O     O_3   0.611926 0.358041 0.721324 -0.618805
O7    O     O_3   0.900641 0.856744 0.277364 -0.622035
O8    O     O_3   0.099750 0.857047 0.722617 -0.622534

loop_
_geom_bond_atom_site_label_1
_geom_bond_atom_site_label_2
_ccdc_geom_bond_type
C92   H65   S    
C70   N13   A    
C83   C87   A    
C21   C26   A    
C55   H25   S    
N32   Ni5   S    
C79   N21   A    
C96   H79   S    
C54   H24   S    
C3    C53   S    
C88   H53   S    
C49   C87   S    
C11   C47   S    
C67   C77   A    
C80   C84   A    
N7    N16   A    
C51   C85   S    
C81   N24   A    
C4    C70   A    
N17   Ni2   S    
C2    C57   S    
C39   H8    S    
C7    C73   A    
N20   N30   A    
C44   H9    S    
C75   H49   S    
C60   N3    A    
C6    C72   A    
C69   H38   S    
C12   C85   A    
C68   N10   A    
C92   H63   S    
C56   C76   A    
C41   H28   S    
C68   H37   S    
C3    C69   A    
C77   N20   A    
C13   C35   A    
C2    C68   A    
N4    N13   A    
C23   H23   S    
C37   H6    S    
N20   Ni8   S    
N3    N11   A    
C20   C25   A    
N29   Ni3   S    
C47   H16   S    
C12   N12   A    
C23   N23   A    
C80   N22   A    
C88   O1    S    
C22   H45   S    
C92   O4    S    
C50   H19   S    
N5    N14   A    
C21   O8    S    
N1    Ni1   S    
C52   C84   S    
C18   O5    S    
N25   Ni7   S    
C91   H62   S    
C24   H56   S    
C42   H29   S    
C51   H20   S    
C57   H26   S    
C64   N7    A    
C1    N1    A    
C63   H46   S    
C82   O3    S    
C40   N28   A    
C28   C35   A    
C9    C31   A    
C96   O8    S    
C23   C86   A    
C10   C46   S    
N6    Ni5   S    
N24   Ni6   S    
N9    Ni3   S    
N27   Ni2   S    
C42   N30   A    
N5    Ni6   S    
C45   C75   A    
C90   H58   S    
N12   Ni1   S    
C77   H51   S    
C72   N15   A    
C30   C67   S    
N21   Ni7   S    
N12   N24   A    
C73   H42   S    
C52   H21   S    
C48   H13   S    
C6    C15   S    
C74   N17   A    
C76   H50   S    
C58   H31   S    
C63   N6    A    
C18   C22   A    
N10   Ni3   S    
C41   N29   A    
N9    N32   A    
C94   H70   S    
C19   O6    S    
C83   N26   A    
C43   H30   S    
C37   H2    S    
C58   C89   A    
C52   C54   D    
C66   C89   A    
C66   H36   S    
C25   C29   A    
C40   C45   A    
C28   C45   S    
C64   H47   S    
C90   O2    S    
N26   N27   A    
C29   C78   S    
C43   N31   A    
C14   C20   A    
N4    Ni8   S    
C96   H77   S    
C1    H1    S    
C71   H40   S    
C12   H12   S    
C65   H48   S    
N2    Ni6   S    
C78   C79   A    
N8    Ni7   S    
C93   H68   S    
C59   H32   S    
C82   C86   A    
C4    C61   A    
C27   C33   A    
C36   H5    S    
C43   C78   A    
C6    C63   A    
C94   H71   S    
C35   C39   S    
C9    C14   A    
C41   C56   A    
C38   H7    S    
C76   N19   A    
N30   Ni4   S    
C82   N25   A    
C11   C16   A    
N19   N29   A    
C58   N32   A    
C34   N27   A    
N18   N28   A    
C8    C74   A    
C38   C47   S    
C32   C37   S    
C27   C56   S    
C90   H57   S    
C95   H73   S    
N16   Ni2   S    
C5    C14   S    
N15   Ni1   S    
C16   C18   A    
C7    C16   S    
C2    C59   A    
C36   H80   S    
C47   H11   S    
N1    N22   A    
C61   H35   S    
C42   C67   A    
C88   H55   S    
C36   C44   S    
C1    C84   A    
N6    N15   A    
C94   H72   S    
C80   O1    S    
N23   N25   A    
N7    Ni8   S    
C40   H27   S    
C69   N11   A    
C72   H41   S    
C9    C44   S    
C4    C54   S    
C53   H22   S    
C50   C57   D    
C88   H54   S    
N14   Ni1   S    
C59   N2    A    
C24   C28   A    
C38   H3    S    
N13   Ni4   S    
C60   H33   S    
N18   Ni6   S    
C13   C48   S    
N31   Ni4   S    
C26   C30   A    
C79   H52   S    
C11   C33   A    
C74   H43   S    
C22   C27   A    
C8    C17   S    
C13   C17   A    
C10   C15   A    
N23   Ni2   S    
C62   H44   S    
C19   C24   A    
C90   H59   S    
C91   H60   S    
C29   C31   A    
C49   C55   D    
C3    C60   A    
C62   N5    A    
C30   C32   A    
C83   O4    S    
C92   H64   S    
C39   H4    S    
C70   H39   S    
C15   C21   A    
C93   H66   S    
C25   H67   S    
C81   O2    S    
C46   H10   S    
N28   Ni3   S    
C17   C19   A    
C20   O7    S    
C5    C62   A    
C49   H18   S    
C34   C87   A    
C71   N14   A    
C91   O3    S    
C55   C89   S    
C95   H74   S    
C95   O7    S    
C7    C64   A    
C91   H61   S    
C73   N16   A    
N21   N31   A    
C50   C86   S    
C51   C53   D    
C93   H69   S    
N2    N10   A    
C75   N18   A    
C10   C32   A    
C8    C65   A    
N11   Ni4   S    
C34   H34   S    
C61   N4    A    
C5    C71   A    
C96   H76   S    
C66   N9    A    
N3    Ni7   S    
C94   O6    S    
C26   H78   S    
C31   C36   S    
C39   C48   S    
C33   C38   S    
C93   O5    S    
N26   Ni8   S    
C37   C46   S    
C46   H15   S    
N22   Ni5   S    
C95   H75   S    
C81   C85   A    
N8    N17   A    
N19   Ni5   S    
C48   H17   S    
C65   N8    A    
C44   H14   S    
