data_mof_unit_11569.cif
_audit_creation_date              2012-12-10T16:49:28-0500
_audit_creation_method            fapswitch 2.2
_symmetry_space_group_name_H-M    P1
_symmetry_Int_Tables_number       1
_space_group_crystal_system       triclinic
_cell_length_a                    19.331374
_cell_length_b                    8.74721
_cell_length_c                    7.440195
_cell_angle_alpha                 102.951293
_cell_angle_beta                  94.47423
_cell_angle_gamma                 92.571533
_cell_volume                      1219.84304919

loop_
_atom_site_label
_atom_site_type_symbol
_atom_type_description
_atom_site_fract_x
_atom_site_fract_y
_atom_site_fract_z
_atom_type_partial_charge
C1    C     C_R   0.494317 0.200045 0.453773 0.813641
C2    C     C_R   0.498960 0.799370 0.546514 0.809222
C3    C     C_2   0.485512 0.032352 0.427151 0.174521
C4    C     C_2   0.492286 0.965554 0.573910 0.174072
C5    C     C_R   0.367522 0.500503 0.501934 0.735937
C6    C     C_R   0.632508 0.500064 0.498161 0.788971
C7    C     C_R   0.260383 0.512102 0.670199 -0.209372
C8    C     C_R   0.739803 0.491711 0.330547 -0.180000
C9    C     C_R   0.188280 0.513346 0.670212 -0.159446
C10   C     C_R   0.811974 0.492724 0.330991 -0.152324
C11   C     C_R   0.146506 0.505463 0.504571 0.063757
C12   C     C_R   0.853781 0.501821 0.496865 0.058553
C13   C     C_R   0.178110 0.496904 0.339413 -0.160877
C14   C     C_R   0.822156 0.509650 0.661863 -0.155243
C15   C     C_R   0.249952 0.495503 0.339391 -0.200842
C16   C     C_R   0.750248 0.508789 0.661423 -0.175738
C17   C     C_R   0.291723 0.502714 0.504537 -0.019103
C18   C     C_R   0.708410 0.499959 0.495959 -0.026498
C19   C     C_R   0.929975 0.503208 0.498716 0.413033
C20   C     C_R   0.070345 0.505335 0.502976 0.407977
Cu1   Cu    Cu3+1 0.507710 0.517380 0.684380 0.985266
Cu2   Cu    Cu3+1 0.492290 0.482620 0.315620 0.972169
H1    H     H_    0.291441 0.517975 0.799498 0.141036
H2    H     H_    0.708730 0.484959 0.201072 0.152367
H3    H     H_    0.165389 0.520155 0.799840 0.148352
H4    H     H_    0.834883 0.486521 0.201487 0.150338
H5    H     H_    0.147450 0.490951 0.209555 0.154618
H6    H     H_    0.852844 0.516600 0.791922 0.155788
H7    H     H_    0.272662 0.488789 0.209479 0.145718
H8    H     H_    0.727540 0.515018 0.791248 0.153408
H9    H     H_    0.442412 0.386888 0.949874 0.218219
H10   H     H_    0.556592 0.616354 0.050583 0.239687
N1    N     N_R   0.030184 0.497223 0.342676 -0.232280
N2    N     N_R   0.970140 0.511451 0.659043 -0.231352
N3    N     N_R   0.961346 0.496201 0.340527 -0.233922
N4    N     N_R   0.038978 0.512469 0.661191 -0.235632
N5    N     N_2   0.480680 0.456420 0.038530 -0.202875
N6    N     N_2   0.519320 0.543580 0.961470 -0.191433
O1    O     O_R   0.505010 0.286130 0.619770 -0.553222
O2    O     O_R   0.494990 0.713870 0.380230 -0.559621
O3    O     O_R   0.491990 0.256780 0.308370 -0.553859
O4    O     O_R   0.508010 0.743220 0.691630 -0.543910
O5    O     O_R   0.406650 0.514660 0.655750 -0.605760
O6    O     O_R   0.593350 0.485340 0.344250 -0.586512
O7    O     O_R   0.393640 0.485310 0.344340 -0.602321
O8    O     O_R   0.606360 0.514690 0.655660 -0.584083
O9    O     O_3   0.472455 0.944142 0.246717 -0.545757
C21   C     C_3   0.399767 0.914052 0.208065 -0.282801
H11   H     H_    0.373501 0.024701 0.208253 0.129149
H12   H     H_    0.376962 0.852508 0.307579 0.139200
H13   H     H_    0.389064 0.835387 0.068397 0.190190
O10   O     O_3   0.494122 0.052358 0.754890 -0.539065
C22   C     C_3   0.425368 0.055123 0.806453 -0.253817
H14   H     H_    0.401030 0.934544 0.790853 0.140038
H15   H     H_    0.392693 0.121706 0.724802 0.110848
H16   H     H_    0.426547 0.115732 0.954303 0.211588

loop_
_geom_bond_atom_site_label_1
_geom_bond_atom_site_label_2
_ccdc_geom_bond_type
C2    C4    S    
C15   C17   A    
N5    N6    D    
C8    H2    S    
H10   N6    S    
Cu1   O5    S    
C11   C13   A    
O9    C21   S    
Cu1   O1    S    
C13   C15   A    
Cu2   O2    S    
C10   H4    S    
C21   H12   S    
C5    O5    A    
C9    H3    S    
C19   N3    A    
Cu1   Cu2   S    
C9    C11   A    
C10   C12   A    
C4    O10   S    
C7    H1    S    
C20   N1    A    
C12   C19   S    
C3    O9    S    
C21   H11   S    
N1    N3    A    
C2    O4    A    
C15   H7    S    
C8    C18   A    
N2    N4    A    
C22   H15   S    
H9    N5    S    
C6    C18   S    
C14   C16   A    
C11   C20   S    
C21   H13   S    
Cu2   O3    S    
C5    C17   S    
C1    O1    A    
C16   H8    S    
C3    C4    D    
C20   N4    A    
C2    O2    A    
Cu2   O7    S    
O10   C22   S    
C16   C18   A    
Cu1   O8    S    
C22   H16   S    
C1    O3    A    
C7    C9    A    
C13   H5    S    
C6    O6    A    
C6    O8    A    
C14   H6    S    
C22   H14   S    
Cu2   N5    S    
C5    O7    A    
C8    C10   A    
Cu2   O6    S    
Cu1   N6    S    
Cu1   O4    S    
C12   C14   A    
C1    C3    S    
C19   N2    A    
C7    C17   A    
