data_mof_unit_22856.cif
_audit_creation_date              2012-12-11T14:30:13-0500
_audit_creation_method            fapswitch 2.2
_symmetry_space_group_name_H-M    P1
_symmetry_Int_Tables_number       1
_space_group_crystal_system       triclinic
_cell_length_a                    12.610884
_cell_length_b                    12.610441
_cell_length_c                    26.879297
_cell_angle_alpha                 90.003757
_cell_angle_beta                  89.998791
_cell_angle_gamma                 119.997789
_cell_volume                      3701.97956935

loop_
_atom_site_label
_atom_site_type_symbol
_atom_type_description
_atom_site_fract_x
_atom_site_fract_y
_atom_site_fract_z
_atom_type_partial_charge
Br1   Br    Br    0.948354 0.254653 0.140419 -0.459424
Br2   Br    Br    0.254613 0.947542 0.859367 -0.459272
Br3   Br    Br    0.051184 0.305914 0.640324 -0.459578
Br4   Br    Br    0.693023 0.745400 0.859397 -0.459337
Br5   Br    Br    0.306458 0.051801 0.359528 -0.459608
Br6   Br    Br    0.745318 0.693858 0.140398 -0.459515
Br7   Br    Br    0.947212 0.254545 0.359316 -0.459253
Br8   Br    Br    0.305988 0.051289 0.140372 -0.459590
Br9   Br    Br    0.745338 0.693561 0.359531 -0.459437
Br10  Br    Br    0.254638 0.947964 0.640529 -0.459384
Br11  Br    Br    0.052266 0.306906 0.859414 -0.459425
Br12  Br    Br    0.693340 0.745371 0.640536 -0.459298
C1    C     C_R   0.556586 0.457812 0.821707 0.564046
C2    C     C_R   0.457803 0.556618 0.178277 0.563982
C3    C     C_R   0.996304 0.307542 0.474082 -0.122155
C4    C     C_R   0.310260 0.001879 0.025692 -0.122203
C5    C     C_R   0.691946 0.689411 0.474244 -0.122147
C6    C     C_R   0.307936 0.997160 0.525805 -0.122219
C7    C     C_R   0.003286 0.311020 0.974157 -0.122168
C8    C     C_R   0.689242 0.692087 0.525812 -0.122148
C9    C     C_R   0.307619 0.996476 0.974125 -0.122163
C10   C     C_R   0.001749 0.310188 0.525651 -0.122203
C11   C     C_R   0.688937 0.692350 0.974144 -0.122164
C12   C     C_R   0.443398 0.901209 0.321716 0.564034
C13   C     C_R   0.098805 0.542194 0.178281 0.564017
C14   C     C_R   0.996803 0.500460 0.973829 0.036629
C15   C     C_R   0.503666 0.003256 0.526165 0.036639
C16   C     C_R   0.499522 0.496414 0.973813 0.036631
C17   C     C_R   0.996229 0.500133 0.526081 0.036623
C18   C     C_R   0.503574 0.003044 0.973802 0.036636
C19   C     C_R   0.499615 0.496345 0.526165 0.036616
C20   C     C_R   0.500314 0.996563 0.473862 0.036639
C21   C     C_R   0.901173 0.443371 0.678270 0.564043
C22   C     C_R   0.003488 0.503775 0.026132 0.036626
C23   C     C_R   0.496263 0.499715 0.473863 0.036620
C24   C     C_R   0.500181 0.996336 0.026105 0.036627
C25   C     C_R   0.002913 0.503526 0.473778 0.036622
C26   C     C_R   0.496199 0.499801 0.026114 0.036624
C27   C     C_R   0.991017 0.690404 0.974218 -0.111044
C28   C     C_R   0.699147 0.008542 0.525813 -0.111052
C29   C     C_R   0.309592 0.300689 0.974196 -0.111001
C30   C     C_R   0.991376 0.690565 0.525796 -0.110997
C31   C     C_R   0.699290 0.008822 0.974193 -0.111016
C32   C     C_R   0.542195 0.098778 0.821707 0.564076
C33   C     C_R   0.309463 0.300824 0.525806 -0.110864
C34   C     C_R   0.690475 0.991209 0.474204 -0.111105
C35   C     C_R   0.008351 0.699061 0.025827 -0.110943
C36   C     C_R   0.300786 0.309509 0.474200 -0.110912
C37   C     C_R   0.690594 0.991471 0.025801 -0.110964
C38   C     C_R   0.008720 0.699269 0.474188 -0.110961
C39   C     C_R   0.300931 0.309374 0.025803 -0.110938
C40   C     C_R   0.963788 0.578878 0.896537 -0.135950
C41   C     C_R   0.614992 0.036065 0.603474 -0.135962
C42   C     C_R   0.421123 0.384956 0.896523 -0.135964
C43   C     C_R   0.556597 0.457807 0.678288 0.564022
C44   C     C_R   0.963827 0.578821 0.603438 -0.136022
C45   C     C_R   0.615059 0.036152 0.896518 -0.135930
C46   C     C_R   0.421110 0.385001 0.603469 -0.136057
C47   C     C_R   0.578859 0.963837 0.396540 -0.135927
C48   C     C_R   0.036019 0.614948 0.103472 -0.136013
C49   C     C_R   0.384982 0.421166 0.396544 -0.136033
C50   C     C_R   0.578850 0.963883 0.103449 -0.136038
C51   C     C_R   0.036078 0.615055 0.396505 -0.135949
C52   C     C_R   0.385044 0.421134 0.103451 -0.136077
C53   C     C_R   0.036698 0.518394 0.129489 0.010214
C54   C     C_R   0.901224 0.443418 0.821711 0.564064
C55   C     C_R   0.481737 0.963335 0.370505 0.010320
C56   C     C_R   0.481592 0.518356 0.129473 0.010200
C57   C     C_R   0.036447 0.518385 0.370445 0.010297
C58   C     C_R   0.481630 0.963224 0.129469 0.010219
C59   C     C_R   0.481583 0.518304 0.370512 0.010270
C60   C     C_R   0.518395 0.036612 0.629511 0.010274
C61   C     C_R   0.963433 0.481846 0.870481 0.010341
C62   C     C_R   0.518230 0.481607 0.629511 0.010241
C63   C     C_R   0.518404 0.036543 0.870465 0.010341
C64   C     C_R   0.963179 0.481602 0.629452 0.010251
C65   C     C_R   0.542194 0.098788 0.678287 0.564062
C66   C     C_R   0.518162 0.481611 0.870472 0.010334
C67   C     C_R   0.985985 0.591802 0.947884 0.014165
C68   C     C_R   0.605708 0.013845 0.552128 0.014207
C69   C     C_R   0.408191 0.394249 0.947866 0.014156
C70   C     C_R   0.985909 0.591711 0.552081 0.014153
C71   C     C_R   0.605747 0.013890 0.947860 0.014181
C72   C     C_R   0.408182 0.394284 0.552123 0.014134
C73   C     C_R   0.591764 0.985979 0.447892 0.014195
C74   C     C_R   0.013848 0.605700 0.052121 0.014179
C75   C     C_R   0.394237 0.408252 0.447893 0.014129
C76   C     C_R   0.457802 0.556613 0.321719 0.563995
C77   C     C_R   0.591747 0.985995 0.052095 0.014162
C78   C     C_R   0.013782 0.605722 0.447845 0.014189
C79   C     C_R   0.394285 0.408231 0.052099 0.014149
C80   C     C_R   0.999422 0.405871 0.895467 0.151617
C81   C     C_R   0.406496 0.000827 0.604506 0.151587
C82   C     C_R   0.594152 0.593580 0.895455 0.151598
C83   C     C_R   0.998645 0.405285 0.604391 0.151567
C84   C     C_R   0.406425 0.000524 0.895440 0.151600
C85   C     C_R   0.594342 0.593511 0.604510 0.151608
C86   C     C_R   0.405596 0.999070 0.395526 0.151576
C87   C     C_R   0.443379 0.901185 0.178277 0.564009
C88   C     C_R   0.001132 0.406570 0.104450 0.151577
C89   C     C_R   0.593450 0.594484 0.395531 0.151573
C90   C     C_R   0.405327 0.998714 0.104421 0.151578
C91   C     C_R   0.000333 0.406369 0.395406 0.151642
C92   C     C_R   0.593393 0.594659 0.104433 0.151568
C93   C     C_R   0.001469 0.405932 0.947591 0.027338
C94   C     C_R   0.404557 0.998799 0.552385 0.027324
C95   C     C_R   0.594055 0.595592 0.947578 0.027339
C96   C     C_R   0.000480 0.405332 0.552266 0.027326
C97   C     C_R   0.404395 0.998388 0.947562 0.027330
C98   C     C_R   0.098757 0.542190 0.321701 0.564029
C99   C     C_R   0.594259 0.595456 0.552388 0.027335
C100  C     C_R   0.405658 0.001024 0.447650 0.027329
C101  C     C_R   0.999217 0.404727 0.052328 0.027314
C102  C     C_R   0.595359 0.594401 0.447654 0.027340
C103  C     C_R   0.405387 0.000580 0.052298 0.027324
C104  C     C_R   0.998216 0.404330 0.447528 0.027330
C105  C     C_R   0.595229 0.594595 0.052311 0.027332
C106  C     C_R   0.997850 0.308259 0.025725 -0.122207
C107  C     C_R   0.310641 0.002584 0.474239 -0.122224
C108  C     C_R   0.691684 0.689709 0.025712 -0.122197
Cr1   Cr    Cr6+3 0.487630 0.241180 0.750000 1.125521
Cr2   Cr    Cr6+3 0.753550 0.512370 0.750000 1.125583
Cr3   Cr    Cr6+3 0.758820 0.246450 0.750000 1.125629
Cr4   Cr    Cr6+3 0.241180 0.487630 0.250000 1.125519
Cr5   Cr    Cr6+3 0.512370 0.753550 0.250000 1.125643
Cr6   Cr    Cr6+3 0.246450 0.758820 0.250000 1.125601
H1    H     H_    0.057865 0.699099 0.122660 0.172296
H2    H     H_    0.699349 0.058351 0.877371 0.172134
H3    H     H_    0.942041 0.641155 0.622639 0.172191
H4    H     H_    0.359026 0.300675 0.877370 0.172093
H5    H     H_    0.015693 0.777769 0.045244 0.131280
H6    H     H_    0.761727 0.983648 0.454801 0.130965
H7    H     H_    0.222233 0.238013 0.045219 0.131269
H8    H     H_    0.016453 0.778186 0.454812 0.131090
H9    H     H_    0.761941 0.984112 0.045219 0.131224
H10   H     H_    0.221985 0.238243 0.454796 0.131154
H11   H     H_    0.777939 0.016052 0.545214 0.131097
H12   H     H_    0.641072 0.941844 0.377365 0.172243
H13   H     H_    0.983282 0.761576 0.954833 0.130954
H14   H     H_    0.238213 0.222003 0.545203 0.131256
H15   H     H_    0.778195 0.016551 0.954809 0.131001
H16   H     H_    0.984025 0.761917 0.545222 0.131148
H17   H     H_    0.238429 0.221779 0.954808 0.131013
H18   H     H_    0.997945 0.232270 0.044306 0.155093
H19   H     H_    0.234640 0.002634 0.455651 0.155089
H20   H     H_    0.767653 0.765823 0.044293 0.155057
H21   H     H_    0.996005 0.231390 0.455464 0.155195
H22   H     H_    0.234142 0.001726 0.044266 0.155089
H23   H     H_    0.300909 0.358819 0.122639 0.172219
H24   H     H_    0.767992 0.765429 0.455658 0.155099
H25   H     H_    0.231865 0.997062 0.544401 0.155114
H26   H     H_    0.003524 0.235126 0.955551 0.155172
H27   H     H_    0.765223 0.768148 0.544411 0.155143
H28   H     H_    0.231473 0.996197 0.955517 0.155173
H29   H     H_    0.001602 0.234063 0.544220 0.155062
H30   H     H_    0.764819 0.768486 0.955539 0.155144
H31   H     H_    0.058332 0.699376 0.377369 0.172183
H32   H     H_    0.641172 0.942075 0.122642 0.172272
H33   H     H_    0.300785 0.358942 0.377369 0.172046
H34   H     H_    0.699209 0.058081 0.622641 0.172310
H35   H     H_    0.941611 0.640981 0.877385 0.172112
H36   H     H_    0.358924 0.300779 0.622633 0.172139
O1    O     O_R   0.460870 0.120930 0.805240 -0.448014
O2    O     O_R   0.120930 0.460870 0.194760 -0.447908
O3    O     O_R   0.539130 0.660060 0.305240 -0.447948
O4    O     O_R   0.339940 0.879070 0.194760 -0.447882
O5    O     O_R   0.498910 0.350470 0.801870 -0.500925
O6    O     O_R   0.851560 0.501090 0.698130 -0.500837
O7    O     O_R   0.649530 0.148440 0.801870 -0.500899
O8    O     O_R   0.498910 0.350470 0.698130 -0.500895
O9    O     O_R   0.851560 0.501090 0.801870 -0.500887
O10   O     O_R   0.649530 0.148440 0.698130 -0.500829
O11   O     O_R   0.350470 0.498910 0.301870 -0.500926
O12   O     O_R   0.660060 0.539130 0.694760 -0.447937
O13   O     O_R   0.501090 0.851560 0.198130 -0.500814
O14   O     O_R   0.148440 0.649530 0.301870 -0.500892
O15   O     O_R   0.350470 0.498910 0.198130 -0.500855
O16   O     O_R   0.501090 0.851560 0.301870 -0.500840
O17   O     O_R   0.148440 0.649530 0.198130 -0.500834
O18   O     O_3   0.666667 0.333333 0.750000 -0.286987
O19   O     O_3   0.333333 0.666667 0.250000 -0.286988
O20   O     O_R   0.879070 0.339940 0.805240 -0.448004
O21   O     O_R   0.460870 0.120930 0.694760 -0.447949
O22   O     O_R   0.660060 0.539130 0.805240 -0.448006
O23   O     O_R   0.879070 0.339940 0.694760 -0.447867
O24   O     O_R   0.120930 0.460870 0.305240 -0.448056
O25   O     O_R   0.539130 0.660060 0.194760 -0.447894
O26   O     O_R   0.339940 0.879070 0.305240 -0.447972

loop_
_geom_bond_atom_site_label_1
_geom_bond_atom_site_label_2
_ccdc_geom_bond_type
C24   C77   A    
C3    H21   S    
C108  H20   S    
C4    C9    A    
C44   C64   A    
C31   C71   A    
Cr5   O25   S    
C5    H24   S    
C30   C70   A    
C47   H12   S    
C45   H2    S    
C47   C73   A    
C25   C104  A    
C22   C101  A    
Cr2   O18   S    
C50   C58   A    
C25   C78   A    
C52   C56   A    
C29   H17   S    
Cr3   O20   S    
C106  H18   S    
C49   H33   S    
C64   C83   A    
C34   H6    S    
C85   C99   A    
C1    O5    A    
C20   C73   A    
C16   C95   A    
Cr1   O1    S    
C50   C77   A    
C5    C8    A    
Br1   C88   S    
C23   C102  A    
C22   C74   A    
C18   C71   A    
C32   O7    A    
C90   C103  A    
C49   C75   A    
C55   C86   A    
C47   C55   A    
C26   C105  A    
C23   C75   A    
Br11  C80   S    
C38   C78   A    
C3    C10   A    
C51   C57   A    
C7    C106  A    
C5    C102  A    
C9    H28   S    
C28   C68   A    
C17   C96   A    
C58   C90   A    
C32   O1    A    
Br6   C92   S    
C62   C85   A    
C40   C67   A    
C41   C60   A    
C43   O8    A    
Cr3   O10   S    
C12   C55   S    
C21   O23   A    
C40   H35   S    
Cr1   O21   S    
C87   O4    A    
C39   C79   A    
C49   C59   A    
Cr2   O22   S    
Cr1   O8    S    
C54   O20   A    
C29   C69   A    
Br7   C91   S    
C11   H30   S    
C89   C102  A    
C43   C62   S    
C42   H4    S    
C14   C93   A    
C14   C22   A    
C63   C84   A    
Cr1   O18   S    
C10   H29   S    
C57   C91   A    
Cr1   O5    S    
C27   H13   S    
C82   C95   A    
Cr2   O6    S    
C8    H27   S    
C18   C97   A    
Cr5   O19   S    
C2    O15   A    
C35   C74   A    
C54   O9    A    
C41   C68   A    
C13   C53   S    
C53   C88   A    
C40   C61   A    
C38   H8    S    
C105  C108  A    
C11   C108  A    
C48   C74   A    
C31   C37   A    
Cr4   O11   S    
Br10  C81   S    
Cr2   O12   S    
C54   C61   S    
C26   C79   A    
C33   H14   S    
C19   C72   A    
C59   C76   S    
C35   H5    S    
C27   C67   A    
Cr3   O23   S    
C32   C63   S    
Cr5   O3    S    
C6    C94   A    
C43   O12   A    
C30   H16   S    
C60   C65   S    
C59   C89   A    
C46   C72   A    
C81   C94   A    
C8    C99   A    
C57   C98   S    
C21   C64   S    
C16   C26   A    
C1    O22   A    
C11   C95   A    
C28   H11   S    
C50   H32   S    
C7    H26   S    
Cr4   O15   S    
C36   C75   A    
Cr6   O17   S    
C45   C71   A    
Br12  C85   S    
Cr3   O7    S    
C30   C38   A    
Br4   C82   S    
C60   C81   A    
C7    C93   A    
C48   C53   A    
C15   C68   A    
C12   O16   A    
C19   C23   A    
C31   H15   S    
C21   O6    A    
C51   H31   S    
C6    H25   S    
C46   H36   S    
C4    C103  A    
Cr6   O14   S    
C58   C87   S    
C46   C62   A    
C27   C35   A    
C92   C105  A    
C33   C36   A    
C1    C66   S    
C98   O24   A    
C41   H34   S    
C19   C99   A    
C20   C100  A    
C15   C20   A    
C36   H10   S    
C48   H1    S    
C88   C101  A    
C56   C92   A    
C61   C80   A    
C37   C77   A    
Cr3   O18   S    
Cr6   O4    S    
C100  C107  A    
C9    C97   A    
C13   O17   A    
C44   C70   A    
C98   O14   A    
C107  H19   S    
C84   C97   A    
C14   C67   A    
C15   C94   A    
C18   C24   A    
C52   H23   S    
C12   O26   A    
C34   C73   A    
C86   C100  A    
Cr6   O26   S    
C91   C104  A    
C16   C69   A    
Cr4   O19   S    
C76   O3    A    
Cr4   O24   S    
C2    O25   A    
C39   H7    S    
C45   C63   A    
C4    H22   S    
C66   C82   A    
C65   O10   A    
C10   C96   A    
C28   C34   A    
C51   C78   A    
Br2   C84   S    
C65   O21   A    
C37   H9    S    
C44   H3    S    
C83   C96   A    
C76   O11   A    
C101  C106  A    
C33   C72   A    
C80   C93   A    
C17   C70   A    
C87   O13   A    
Br5   C86   S    
Br9   C89   S    
Cr2   O9    S    
C17   C25   A    
Cr5   O16   S    
C2    C56   S    
C3    C104  A    
Cr6   O19   S    
Br3   C83   S    
C13   O2    A    
C52   C79   A    
C42   C66   A    
C24   C103  A    
Br8   C90   S    
C6    C107  A    
C29   C39   A    
C42   C69   A    
Cr4   O2    S    
Cr5   O13   S    
