data_mof_unit_43200.cif
_audit_creation_date              2012-12-10T17:07:44-0500
_audit_creation_method            fapswitch 2.2
_symmetry_space_group_name_H-M    P1
_symmetry_Int_Tables_number       1
_space_group_crystal_system       triclinic
_cell_length_a                    10.696677
_cell_length_b                    10.712832
_cell_length_c                    10.042154
_cell_angle_alpha                 91.067804
_cell_angle_beta                  90.672081
_cell_angle_gamma                 90.317212
_cell_volume                      1150.44948461

loop_
_atom_site_label
_atom_site_type_symbol
_atom_type_description
_atom_site_fract_x
_atom_site_fract_y
_atom_site_fract_z
_atom_type_partial_charge
C1    C     C_R   0.497534 0.262721 0.498844 0.916949
C2    C     C_2   0.564716 0.577541 0.077656 -0.121342
C3    C     C_R   0.257917 0.496869 0.499324 0.852123
C4    C     C_R   0.505203 0.737355 0.501000 0.934657
C5    C     C_R   0.742130 0.500434 0.501262 0.850227
C6    C     C_3   0.075618 0.497068 0.645294 -0.433870
C7    C     C_3   0.933489 0.491314 0.649894 -0.149567
C8    C     C_3   0.071797 0.610225 0.430834 -0.427366
C9    C     C_3   0.070114 0.366547 0.426302 0.128645
C10   C     C_3   0.121333 0.490652 0.498487 0.030533
C11   C     C_3   0.581741 0.714734 0.874202 -0.774175
C12   C     C_3   0.878522 0.494239 0.503501 0.031112
C13   C     C_2   0.888449 0.591066 0.747210 0.937988
C14   C     C_2   0.117452 0.354790 0.282293 0.919460
C15   C     C_3   0.118236 0.249809 0.502591 -0.856129
C16   C     C_3   0.853016 0.252530 0.461178 -0.920587
C17   C     C_3   0.928854 0.610188 0.429863 -0.441139
C18   C     C_3   0.922221 0.374374 0.423598 -0.041862
C19   C     C_2   0.524115 0.931567 0.389285 -0.151362
C20   C     C_2   0.522998 0.868946 0.503164 -0.336390
C21   C     C_2   0.529696 0.065992 0.390777 -0.138539
C22   C     C_2   0.490080 0.130769 0.496547 -0.307086
C23   C     C_2   0.545790 0.590677 0.929790 0.228203
H1    H     H_    0.111683 0.585194 0.693260 0.203668
H2    H     H_    0.627945 0.641793 0.129767 0.157937
H3    H     H_    0.115339 0.421286 0.706657 0.186193
H4    H     H_    0.433309 0.448937 0.099511 0.166173
H5    H     H_    0.907262 0.400451 0.693602 0.151588
H6    H     H_    0.106262 0.694808 0.486438 0.189263
H7    H     H_    0.893984 0.698395 0.475481 0.216888
H8    H     H_    0.626419 0.776537 0.951199 0.186102
H9    H     H_    0.649981 0.702292 0.793178 0.281876
H10   H     H_    0.496641 0.763370 0.838954 0.238542
H11   H     H_    0.829371 0.628793 0.933670 0.337667
H12   H     H_    0.890407 0.387955 0.318866 0.197462
H13   H     H_    0.228433 0.265591 0.150035 0.336678
H14   H     H_    0.095225 0.161888 0.447070 0.263793
H15   H     H_    0.221409 0.252505 0.515187 0.232603
H16   H     H_    0.077117 0.242103 0.602777 0.234388
H17   H     H_    0.865503 0.229459 0.567505 0.255818
H18   H     H_    0.751531 0.260423 0.440645 0.243604
H19   H     H_    0.885595 0.173216 0.398228 0.254281
H20   H     H_    0.106936 0.619324 0.327881 0.226635
H21   H     H_    0.894984 0.609230 0.324554 0.201160
H22   H     H_    0.519136 0.884418 0.292594 0.174757
H23   H     H_    0.538048 0.913367 0.600006 0.155163
H24   H     H_    0.563726 0.111796 0.302459 0.171374
H25   H     H_    0.450143 0.088047 0.583459 0.146557
H26   H     H_    0.485612 0.416431 0.895271 0.144050
N1    N     N_2   0.501360 0.501330 0.852150 -0.183848
N2    N     N_2   0.501390 0.501360 0.147810 -0.204092
O1    O     O_R   0.499980 0.319060 0.613040 -0.621514
O2    O     O_R   0.846207 0.554964 0.872039 -0.790360
O3    O     O_2   0.081031 0.426776 0.197159 -0.656592
O4    O     O_R   0.203785 0.262340 0.247097 -0.791906
O5    O     O_R   0.500020 0.319100 0.386900 -0.594697
O6    O     O_R   0.314770 0.499960 0.613070 -0.620166
O7    O     O_R   0.314820 0.500000 0.386930 -0.601665
O8    O     O_R   0.499980 0.680900 0.613100 -0.625468
O9    O     O_R   0.500020 0.680940 0.386960 -0.615037
O10   O     O_R   0.685180 0.500000 0.613070 -0.610697
O11   O     O_R   0.685230 0.500040 0.386930 -0.624091
O12   O     O_2   0.895370 0.701779 0.720566 -0.663300
Zn1   Zn    Zn3+2 0.499970 0.499970 0.650990 0.954805
Zn2   Zn    Zn3+2 0.500030 0.500030 0.349010 0.963923

loop_
_geom_bond_atom_site_label_1
_geom_bond_atom_site_label_2
_ccdc_geom_bond_type
C12   C17   S    
C6    C10   S    
O10   Zn1   S    
C22   H25   S    
C9    C14   S    
C19   H22   S    
C15   H15   S    
C6    C7    S    
O1    Zn1   S    
N1    Zn1   S    
C9    C10   S    
O7    Zn2   S    
C19   C20   D    
C13   O12   D    
C8    H20   S    
C7    C13   S    
C6    H1    S    
C4    O9    A    
C14   O4    S    
C9    C15   S    
C17   H21   S    
C11   H8    S    
C1    C22   S    
H13   O4    S    
C21   C22   D    
C17   H7    S    
C15   H16   S    
O8    Zn1   S    
C6    H3    S    
C16   H17   S    
C8    H6    S    
C3    O6    A    
C4    O8    A    
C11   C23   S    
C14   O3    D    
C1    O5    A    
H4    N2    S    
C5    O11   A    
C11   H9    S    
C2    H2    S    
C13   O2    S    
N2    Zn2   S    
C7    C12   S    
C1    O1    A    
C2    N2    D    
C5    O10   A    
O5    Zn2   S    
C4    C20   S    
C3    O7    A    
C16   H19   S    
C9    C18   S    
C11   H10   S    
H11   O2    S    
C8    C10   S    
H26   N1    S    
C18   H12   S    
C12   C18   S    
C2    C23   S    
C3    C10   S    
C15   H14   S    
C23   N1    D    
O11   Zn2   S    
C21   H24   S    
C19   C21   S    
C16   H18   S    
C16   C18   S    
C20   H23   S    
C7    H5    S    
C8    C17   S    
O6    Zn1   S    
O9    Zn2   S    
C5    C12   S    
