data_mof_unit_55693.cif
_audit_creation_date              2012-12-10T19:42:58-0500
_audit_creation_method            fapswitch 2.2
_symmetry_space_group_name_H-M    P1
_symmetry_Int_Tables_number       1
_space_group_crystal_system       triclinic
_cell_length_a                    10.914669
_cell_length_b                    12.969613
_cell_length_c                    11.682479
_cell_angle_alpha                 100.035746
_cell_angle_beta                  92.687568
_cell_angle_gamma                 92.277153
_cell_volume                      1624.73511977

loop_
_atom_site_label
_atom_site_type_symbol
_atom_type_description
_atom_site_fract_x
_atom_site_fract_y
_atom_site_fract_z
_atom_type_partial_charge
C1    C     C_R   0.505992 0.299513 0.478055 0.888831
C2    C     C_R   0.494044 0.700497 0.521963 0.887327
C3    C     C_R   0.872023 0.502869 0.500782 -0.230224
C4    C     C_R   0.128066 0.497391 0.499191 -0.228457
C5    C     C_R   0.936447 0.446120 0.575916 -0.110268
C6    C     C_R   0.063790 0.554499 0.424375 -0.113108
C7    C     C_R   0.483634 0.813771 0.534529 -0.209656
C8    C     C_R   0.516455 0.186254 0.465562 -0.205861
C9    C     C_R   0.586849 0.018814 0.372020 -0.151656
C10   C     C_R   0.413345 0.981238 0.628142 -0.157195
C11   C     C_R   0.581980 0.126886 0.376636 0.373466
C12   C     C_R   0.418325 0.873184 0.623618 0.381706
C13   C     C_R   0.462363 0.136913 0.549339 -0.208907
C14   C     C_R   0.537647 0.863108 0.450704 -0.213740
C15   C     C_R   0.469015 0.029723 0.544799 0.055395
C16   C     C_R   0.531041 0.970304 0.455276 0.051489
C17   C     C_R   0.419792 0.375399 0.022588 0.395593
C18   C     C_R   0.580403 0.624580 0.977371 0.350940
C19   C     C_R   0.420127 0.393507 0.144691 0.071976
C20   C     C_R   0.579946 0.606459 0.855255 0.037899
C21   C     C_R   0.530016 0.556179 0.157537 0.146907
C22   C     C_R   0.469930 0.443874 0.842460 0.123145
C23   C     C_R   0.262253 0.498679 0.500342 0.921866
C24   C     C_R   0.737782 0.501432 0.499667 0.916664
C25   C     C_R   0.527832 0.546285 0.034398 -0.088451
C26   C     C_R   0.472246 0.453736 0.965581 -0.122620
C27   C     C_R   0.255814 0.736349 0.274548 -0.259686
C28   C     C_R   0.743725 0.268510 0.730753 -0.322115
C29   C     C_R   0.199636 0.693586 0.361797 -0.109123
C30   C     C_R   0.799452 0.309497 0.642010 -0.103652
C31   C     C_R   0.127810 0.599772 0.333471 0.089080
C32   C     C_R   0.873208 0.402457 0.668386 0.140716
C33   C     C_R   0.116861 0.547131 0.217617 -0.160471
C34   C     C_R   0.887027 0.455818 0.783905 -0.291980
C35   C     C_R   0.174217 0.588205 0.129543 0.386921
C36   C     C_R   0.830025 0.415562 0.873607 0.436464
C37   C     C_R   0.242687 0.685084 0.157516 0.348138
C38   C     C_R   0.759760 0.320680 0.847228 0.454890
C39   C     C_R   0.936211 0.561588 0.429388 0.375112
C40   C     C_R   0.063845 0.438452 0.570236 0.374519
Cu1   Cu    Cu3+1 0.509250 0.507730 0.615930 1.050277
Cu2   Cu    Cu3+1 0.490750 0.492270 0.384070 1.062475
H1    H     H_    0.423796 0.377182 0.787229 0.225798
H2    H     H_    0.576023 0.622953 0.212755 0.221304
H3    H     H_    0.622247 0.664038 0.811108 0.166095
H4    H     H_    0.377742 0.335818 0.188700 0.192782
H5    H     H_    0.308640 0.810076 0.298098 0.176436
H6    H     H_    0.688893 0.195697 0.708829 0.181852
H7    H     H_    0.209214 0.734937 0.450721 0.189708
H8    H     H_    0.787669 0.267639 0.553396 0.187612
H9    H     H_    0.062964 0.473725 0.195585 0.209557
H10   H     H_    0.942757 0.528365 0.803837 0.178486
H11   H     H_    0.585422 0.817812 0.381315 0.241291
H12   H     H_    0.414478 0.182205 0.618653 0.240951
H13   H     H_    0.635863 0.972315 0.304424 0.243693
H14   H     H_    0.364473 0.027764 0.695833 0.236179
N1    N     N_R   0.523180 0.519350 0.790130 -0.238295
N2    N     N_R   0.476820 0.480650 0.209870 -0.251781
O1    O     O_R   0.506570 0.354460 0.582000 -0.596670
O2    O     O_R   0.493430 0.645540 0.418000 -0.597277
O3    O     O_R   0.490940 0.341410 0.386200 -0.543486
O4    O     O_R   0.509060 0.658590 0.613800 -0.544293
O5    O     O_R   0.327460 0.506540 0.597900 -0.494179
O6    O     O_R   0.672540 0.493460 0.402100 -0.486851
O7    O     O_R   0.311830 0.493480 0.402100 -0.619621
O8    O     O_R   0.688170 0.506520 0.597900 -0.622019
O9    O     O_3   0.294058 0.728386 0.069909 -0.700715
H15   H     H_    0.330083 0.799254 0.103147 0.374990
O10   O     O_3   0.708742 0.280556 0.937025 -0.638611
H16   H     H_    0.669557 0.210471 0.905524 0.362526
S1    S     S_3+6 0.356631 0.252337 0.948328 0.035705
O11   O     O_2   0.229650 0.265983 0.900301 -0.229409
O12   O     O_2   0.434855 0.208501 0.850763 -0.352993
O13   O     O_3   0.347431 0.166590 0.040666 -0.490822
H17   H     H_    0.315867 0.099731 0.991818 0.401078
S2    S     S_3+6 0.643874 0.747539 0.051737 0.039652
O14   O     O_2   0.565395 0.791927 0.148775 -0.306765
O15   O     O_2   0.770086 0.733788 0.101561 -0.271794
O16   O     O_3   0.654295 0.834010 0.960194 -0.453450
H18   H     H_    0.734857 0.823416 0.925359 0.348796
O17   O     O_3   0.159718 0.531976 0.017586 -0.694022
H19   H     H_    0.207212 0.568036 0.964743 0.388431
O18   O     O_3   0.842547 0.466542 0.987817 -0.636959
H20   H     H_    0.892914 0.532535 0.991722 0.352205
S3    S     S_3+6 0.858369 0.648486 0.350848 0.043157
O19   O     O_2   0.809000 0.585166 0.236806 -0.257268
O20   O     O_2   0.753936 0.695229 0.417621 -0.309775
O21   O     O_3   0.949748 0.749181 0.326495 -0.479224
H21   H     H_    0.962223 0.735868 0.241897 0.383635
S4    S     S_3+6 0.141246 0.350305 0.647318 0.044453
O22   O     O_2   0.245442 0.303815 0.579976 -0.306309
O23   O     O_2   0.190847 0.412269 0.761965 -0.278372
O24   O     O_3   0.049013 0.249576 0.670185 -0.479697
H22   H     H_    0.038432 0.260963 0.755094 0.390624
S5    S     S_3+6 0.335694 0.817204 0.726712 0.030203
O25   O     O_2   0.263936 0.719577 0.668183 -0.325338
O26   O     O_2   0.424457 0.790572 0.817932 -0.227179
O27   O     O_3   0.237671 0.902906 0.791538 -0.513096
H23   H     H_    0.202724 0.868986 0.853236 0.391954
S6    S     S_3+6 0.665376 0.183072 0.274198 0.051428
O28   O     O_2   0.577238 0.210592 0.183001 -0.219123
O29   O     O_2   0.737498 0.280212 0.333572 -0.318066
O30   O     O_3   0.763121 0.097217 0.209175 -0.482686
H24   H     H_    0.799886 0.132012 0.149004 0.400937

loop_
_geom_bond_atom_site_label_1
_geom_bond_atom_site_label_2
_ccdc_geom_bond_type
C8    C13   A    
C27   C29   A    
C1    C8    S    
Cu1   Cu2   S    
S5    O25   D    
S2    O16   S    
Cu2   N2    S    
C22   N1    A    
O17   H19   S    
C35   O17   S    
C19   H4    S    
C29   H7    S    
S3    O19   D    
O24   H22   S    
O18   H20   S    
C17   C26   A    
C35   C37   A    
C9    C16   A    
S2    O15   D    
C10   C15   A    
C1    O1    A    
C2    O2    A    
C36   O18   S    
C15   C16   A    
C2    C7    S    
C17   C19   A    
C7    C14   A    
C4    C40   A    
Cu2   O7    S    
C31   C33   A    
C12   S5    S    
C9    H13   S    
C10   H14   S    
C18   C20   A    
C20   H3    S    
C24   O8    A    
C5    C32   S    
C23   O5    A    
C6    C31   S    
C30   H8    S    
C38   O10   S    
C3    C39   A    
C24   O6    A    
C3    C24   S    
C18   C25   A    
Cu1   O4    S    
S3    O20   D    
C19   N2    A    
C7    C12   A    
S5    O27   S    
O13   H17   S    
O9    H15   S    
S2    O14   D    
Cu1   O1    S    
C4    C6    A    
Cu2   O2    S    
S1    O12   D    
C4    C23   S    
C25   C26   A    
S6    O30   S    
C11   S6    S    
C32   C34   A    
C21   H2    S    
S4    O23   D    
C22   H1    S    
C28   C38   A    
S6    O29   D    
C9    C11   A    
Cu2   O3    S    
C10   C12   A    
C17   S1    S    
C13   C15   A    
C14   C16   A    
C39   S3    S    
Cu2   O6    S    
S4    O24   S    
C13   H12   S    
S3    O21   S    
C27   H5    S    
C21   C25   A    
C28   H6    S    
C18   S2    S    
C3    C5    A    
C1    O3    A    
S1    O13   S    
S5    O26   D    
Cu1   O8    S    
C33   H9    S    
C34   H10   S    
C23   O7    A    
C28   C30   A    
Cu1   N1    S    
C21   N2    A    
C29   C31   A    
C30   C32   A    
S4    O22   D    
C27   C37   A    
C8    C11   A    
C37   O9    S    
C36   C38   A    
S6    O28   D    
C33   C35   A    
C34   C36   A    
O10   H16   S    
O16   H18   S    
S1    O11   D    
C14   H11   S    
O21   H21   S    
O27   H23   S    
C22   C26   A    
C5    C40   A    
O30   H24   S    
Cu1   O5    S    
C6    C39   A    
C40   S4    S    
C20   N1    A    
C2    O4    A    
