data_mof_unit_49341.cif
_audit_creation_date              2013-03-05T16:34:13-0500
_audit_creation_method            fapswitch 2.2
_symmetry_space_group_name_H-M    P1
_symmetry_Int_Tables_number       1
_space_group_crystal_system       triclinic
_cell_length_a                    10.955634
_cell_length_b                    10.794052
_cell_length_c                    9.644356
_cell_angle_alpha                 89.092433
_cell_angle_beta                  91.959592
_cell_angle_gamma                 91.67025
_cell_volume                      1139.22288777

loop_
_atom_site_label
_atom_site_type_symbol
_atom_site_description
_atom_site_fract_x
_atom_site_fract_y
_atom_site_fract_z
_atom_type_partial_charge
O1    O     O_R   0.500000 0.319640 0.618810 -0.573071
O2    O     O_R   0.500010 0.319680 0.381230 -0.560958
C1    C     C_R   0.489426 0.262010 0.500650 0.900822
O3    O     O_R   0.319640 0.499990 0.618790 -0.587868
O4    O     O_R   0.319650 0.500030 0.381210 -0.572622
C2    C     C_R   0.262477 0.498980 0.497505 0.829680
Cu1   Cu    Cu3+1 0.499990 0.499980 0.640670 0.996178
Cu2   Cu    Cu3+1 0.500010 0.500020 0.359330 1.015316
O5    O     O_R   0.499990 0.680320 0.618770 -0.583038
O6    O     O_R   0.500000 0.680360 0.381190 -0.568661
O7    O     O_R   0.680350 0.499970 0.618790 -0.576595
O8    O     O_R   0.680360 0.500010 0.381210 -0.588578
C3    C     C_R   0.489692 0.736867 0.498174 0.886948
C4    C     C_R   0.737716 0.496513 0.502771 0.847480
H1    H     H_    0.182119 0.345909 0.864038 0.202530
C5    C     C_R   0.186283 0.487981 0.017672 -0.218229
H2    H     H_    0.228127 0.557082 0.950596 0.177540
C6    C     C_R   0.156390 0.519042 0.152263 -0.018994
H3    H     H_    0.173390 0.612866 0.187306 0.211406
C7    C     C_R   0.102168 0.429884 0.240044 0.032770
C8    C     C_R   0.073876 0.310993 0.189010 -0.133527
H4    H     H_    0.028327 0.242439 0.253941 0.212023
C9    C     C_R   0.102207 0.280481 0.053881 0.397096
C10   C     C_R   0.159590 0.368776 0.968575 -0.181802
C11   C     C_R   0.929137 0.459357 0.386828 -0.166972
H5    H     H_    0.874870 0.424110 0.301591 0.187306
C12   C     C_R   0.872217 0.490150 0.507804 -0.045145
C13   C     C_R   0.945582 0.510369 0.628850 0.133182
C14   C     C_R   0.071930 0.518396 0.619303 -0.117693
H6    H     H_    0.126334 0.536653 0.712994 0.159259
C15   C     C_R   0.128581 0.497373 0.494102 -0.055743
C16   C     C_R   0.055312 0.465003 0.375746 0.042291
C17   C     C_R   0.914074 0.607926 0.857720 0.235037
C18   C     C_R   0.877673 0.597776 0.995228 0.176226
C19   C     C_R   0.815825 0.490493 0.039400 -0.403480
H7    H     H_    0.770796 0.491542 0.136330 0.216244
C20   C     C_R   0.809119 0.383178 0.959341 0.266821
C21   C     C_R   0.851863 0.390017 0.822955 0.205749
C22   C     C_R   0.897360 0.504862 0.769840 -0.173942
C23   C     C_R   0.465633 0.059015 0.627352 0.024365
C24   C     C_R   0.465609 0.126945 0.501500 -0.200656
C25   C     C_R   0.421675 0.064851 0.380850 0.278100
C26   C     C_R   0.422991 0.934575 0.376987 0.253279
C27   C     C_R   0.468219 0.869832 0.495244 -0.164270
C28   C     C_R   0.461782 0.928791 0.621813 -0.092270
C29   C     C_3   0.350879 0.915575 0.708425 0.082299
C30   C     C_3   0.359620 0.054123 0.723984 0.417519
H8    H     H_    0.367830 0.862439 0.805987 0.156999
C31   C     C_R   0.490169 0.608110 0.071272 0.246508
N1    N     N_R   0.500790 0.500930 0.147930 -0.219348
C32   C     C_R   0.507942 0.393365 0.075388 0.023707
H9    H     H_    0.519187 0.306505 0.129967 0.229969
C33   C     C_R   0.508464 0.393849 0.927911 -0.030230
H10   H     H_    0.521993 0.309450 0.874560 0.222695
N2    N     N_R   0.500790 0.500890 0.852020 -0.219690
C34   C     C_R   0.491494 0.608105 0.923950 0.205018
C35   C     C_3   0.583646 0.712527 0.921834 -0.407763
C36   C     C_3   0.580486 0.713858 0.078115 -0.398211
H11   H     H_    0.671816 0.684616 0.881131 0.223307
H12   H     H_    0.548958 0.798449 0.873097 0.219999
H13   H     H_    0.665501 0.686657 0.133057 0.233928
H14   H     H_    0.543670 0.800692 0.116334 0.252376
N3    N     N_R   0.763651 0.268747 0.020806 0.138802
O9    O     O_R   0.712432 0.181546 0.945563 -0.270516
O10   O     O_R   0.766388 0.254026 0.155042 -0.370860
Br1   Br    Br    0.857571 0.243315 0.710548 -0.321098
Br2   Br    Br    0.329386 0.152749 0.241219 -0.385521
Br3   Br    Br    0.328912 0.848480 0.233348 -0.385331
Br4   Br    Br    0.205286 0.849080 0.608114 -0.300556
Br5   Br    Br    0.218730 0.149962 0.660285 -0.364959
Br6   Br    Br    0.409623 0.091366 0.912482 -0.411939
Br7   Br    Br    0.062165 0.117617 0.988424 -0.166012
N4    N     N_R   0.964594 0.723139 0.806179 0.167205
O11   O     O_R   0.054859 0.779173 0.872954 -0.239770
O12   O     O_R   0.919463 0.773097 0.692688 -0.274837
Br8   Br    Br    0.908575 0.729522 0.125102 -0.357223

loop_
_geom_bond_atom_site_label_1
_geom_bond_atom_site_label_2
_geom_bond_distance
_ccdc_geom_bond_type
C36   H14   1.104638 S    
C23   C30   1.512992 S    
N2    C34   1.366764 A    
N3    O10   1.301258 A    
N4    O11   1.300929 A    
C19   H7    1.072191 S    
Cu1   N2    2.038233 S    
Cu1   Cu2   2.713343 S    
C33   H10   1.069851 S    
Cu1   O7    1.994359 S    
C17   C22   1.413099 A    
C13   C14   1.390515 A    
C19   C20   1.401019 A    
C20   C21   1.411363 A    
C6    H3    1.081711 S    
O4    C2    1.302945 A    
O7    C4    1.303519 A    
C35   H11   1.106607 S    
C34   C35   1.491466 S    
C18   C19   1.392839 A    
C24   C25   1.415080 A    
O5    C3    1.307882 A    
C29   Br4   1.960878 S    
C21   Br1   1.936862 S    
C5    H2    1.081677 S    
C9    C10   1.398579 A    
C4    C12   1.476239 S    
C11   C16   1.389584 A    
C2    C15   1.465755 S    
C5    C10   1.397585 A    
C8    H4    1.083469 S    
N4    O12   1.301202 A    
O3    Cu1   1.979899 S    
C20   N3    1.444410 S    
N1    C32   1.370572 A    
C33   N2    1.361026 A    
C23   C28   1.406859 A    
C29   H8    1.107220 S    
C32   H9    1.076073 S    
O3    C2    1.307845 A    
C26   Br3   1.931922 S    
C35   H12   1.104548 S    
C13   C22   1.475234 S    
C11   H5    1.066442 S    
C28   C29   1.499957 S    
C31   C36   1.489433 S    
O1    C1    1.306997 A    
C26   C27   1.411009 A    
C30   Br5   1.959130 S    
C14   H6    1.082829 S    
C15   C16   1.415274 A    
Cu2   O8    1.979900 S    
C17   C18   1.399571 A    
H1    C10   1.080161 S    
C30   Br6   1.925835 S    
Cu2   O6    1.961303 S    
C23   C24   1.408073 A    
O8    C4    1.311625 A    
C8    C9    1.396580 A    
C25   Br2   1.912654 S    
C25   C26   1.407787 A    
Cu2   N1    2.038995 S    
C27   C28   1.390375 A    
C7    C16   1.480902 S    
C17   N4    1.434956 S    
Cu1   O5    1.954694 S    
C29   C30   1.505313 S    
C1    C24   1.473504 S    
O1    Cu1   1.961303 S    
C9    Br7   1.911205 S    
O2    Cu2   1.954697 S    
O6    C3    1.300857 A    
O4    Cu2   1.994359 S    
C11   C12   1.390949 A    
C31   C34   1.421397 A    
O2    C1    1.307530 A    
C14   C15   1.401026 A    
C35   C36   1.509109 S    
C21   C22   1.417358 A    
C36   H13   1.100780 S    
C6    C7    1.403926 A    
N3    O9    1.300172 A    
C7    C8    1.404143 A    
C5    C6    1.397800 A    
C31   N1    1.368734 A    
C12   C13   1.410742 A    
C32   C33   1.422461 A    
C3    C27   1.460818 S    
C18   Br8   1.924876 S    
