data_mof_unit_51110.cif
_audit_creation_date              2012-12-11T16:33:23-0500
_audit_creation_method            fapswitch 2.2
_symmetry_space_group_name_H-M    P1
_symmetry_Int_Tables_number       1
_space_group_crystal_system       triclinic
_cell_length_a                    6.974527
_cell_length_b                    18.212903
_cell_length_c                    20.175478
_cell_angle_alpha                 68.374082
_cell_angle_beta                  91.300861
_cell_angle_gamma                 91.299249
_cell_volume                      2381.52462929

loop_
_atom_site_label
_atom_site_type_symbol
_atom_type_description
_atom_site_fract_x
_atom_site_fract_y
_atom_site_fract_z
_atom_type_partial_charge
O1    O     O_R   0.488960 0.443750 0.941980 -0.545561
O2    O     O_R   0.823890 0.406510 0.087590 -0.545116
O3    O     O_R   0.999680 0.556250 0.058020 -0.513069
C1    C     C_R   0.655485 0.383614 0.114997 0.677476
O4    O     O_R   0.818360 0.434410 0.944340 -0.538323
O5    O     O_R   0.994110 0.584350 0.913750 -0.523798
C2    C     C_R   0.647796 0.420387 0.923957 0.687615
O6    O     O_R   0.494530 0.415650 0.086250 -0.544271
O7    O     O_3   0.662590 0.549160 0.990130 -0.348452
V1    V     V_3+5 0.935320 0.490880 0.001830 1.526613
O8    O     O_R   0.324180 0.593490 0.912410 -0.542542
C3    C     C_R   0.154935 0.617083 0.885446 0.810728
O9    O     O_R   0.329720 0.565590 0.055660 -0.528019
C4    C     C_R   0.163808 0.579036 0.076711 0.809164
V2    V     V_3+5 0.435990 0.509120 0.998170 1.526841
O10   O     O_3   0.158850 0.450840 0.009870 -0.387217
C5    C     C_3   0.029377 0.704381 0.310291 -0.334570
C6    C     C_3   0.221184 0.683114 0.285226 -0.099881
H1    H     H_    0.290698 0.626343 0.315901 0.202680
H2    H     H_    0.953191 0.668023 0.359569 0.183571
H3    H     H_    0.439629 0.785967 0.283088 0.210287
C7    C     C_1   0.162242 0.624722 0.122389 -0.046105
C8    C     C_1   0.102191 0.874218 0.378233 -0.160057
C9    C     C_3   0.949824 0.728160 0.233081 0.390800
C10   C     C_3   0.140420 0.707849 0.208442 -0.040664
C11   C     C_3   0.021117 0.813617 0.216453 0.405814
C12   C     C_3   0.104110 0.789996 0.292635 -0.067036
C13   C     C_3   0.212790 0.793814 0.190655 -0.124107
C14   C     C_3   0.295850 0.769236 0.267997 -0.045782
C15   C     C_1   0.157365 0.662405 0.161059 0.196683
C16   C     C_1   0.100287 0.836100 0.339827 0.088766
H4    H     H_    0.284032 0.831963 0.140849 0.225732
H5    H     H_    0.313182 0.533399 0.689921 0.160931
C17   C     C_R   0.054578 0.775419 0.879582 0.425331
C18   C     C_R   0.005195 0.849847 0.877582 0.494259
C19   C     C_R   0.994907 0.913225 0.813210 0.460741
C20   C     C_R   0.033494 0.903261 0.749690 0.407829
C21   C     C_R   0.081168 0.827740 0.749235 -0.208710
C22   C     C_R   0.092705 0.762289 0.815822 -0.206630
C23   C     C_R   0.119984 0.816596 0.684563 -0.087584
C24   C     C_R   0.172326 0.741102 0.686396 0.060767
C25   C     C_R   0.184953 0.676194 0.752552 0.055594
C26   C     C_R   0.144545 0.686428 0.817168 -0.079944
C27   C     C_R   0.210937 0.728572 0.622750 -0.162618
C28   C     C_R   0.261597 0.654381 0.624348 -0.096677
C29   C     C_R   0.274222 0.591012 0.688934 -0.088272
C30   C     C_R   0.236052 0.601377 0.752370 -0.174643
H6    H     H_    0.201801 0.775744 0.571004 0.081644
H7    H     H_    0.290652 0.645998 0.575144 0.132444
H8    H     H_    0.246607 0.549923 0.801078 0.101421
C31   C     C_R   0.488030 0.102616 0.252405 -0.144904
C32   C     C_R   0.430740 0.093500 0.189243 -0.032327
C33   C     C_R   0.442743 0.156985 0.124676 -0.069114
C34   C     C_R   0.512602 0.230042 0.122740 -0.142947
C35   C     C_R   0.571592 0.241205 0.186010 0.060947
C36   C     C_R   0.558798 0.176169 0.252241 0.060173
C37   C     C_R   0.645764 0.315198 0.183895 -0.143573
C38   C     C_R   0.707565 0.324048 0.248063 0.061279
C39   C     C_R   0.694416 0.259048 0.314315 -0.021488
C40   C     C_R   0.619770 0.185111 0.316442 -0.129748
C41   C     C_R   0.780027 0.397397 0.247826 -0.243271
C42   C     C_R   0.838826 0.406337 0.310929 -0.197930
C43   C     C_R   0.825820 0.342956 0.375585 0.716364
C44   C     C_R   0.754052 0.270115 0.377566 -0.214333
H9    H     H_    0.477418 0.051192 0.301122 0.115059
H10   H     H_    0.377699 0.036718 0.190410 0.181010
H11   H     H_    0.398705 0.149496 0.075723 0.163205
H12   H     H_    0.521333 0.277291 0.071065 0.109049
H13   H     H_    0.791289 0.448749 0.199073 0.156456
H14   H     H_    0.894021 0.462918 0.309579 0.151902
H15   H     H_    0.744719 0.222856 0.429222 0.130829
O11   O     O_R   0.770540 0.084530 0.414050 -0.540295
O12   O     O_R   0.445710 0.065660 0.555720 -0.523663
O13   O     O_R   0.270420 0.915650 0.586190 -0.541359
C45   C     C_R   0.616103 0.079773 0.576187 0.743792
O14   O     O_R   0.441140 0.093540 0.412470 -0.542742
O15   O     O_R   0.265820 0.943740 0.441930 -0.548477
C46   C     C_R   0.609718 0.116670 0.385310 0.673272
O16   O     O_R   0.775150 0.056440 0.558310 -0.503653
O17   O     O_3   0.602370 0.950960 0.510050 -0.384723
V3    V     V_3+5 0.329450 0.009140 0.498150 1.529466
O18   O     O_R   0.935790 0.934280 0.444060 -0.542023
C47   C     C_R   0.101900 0.920219 0.423690 0.681894
O19   O     O_R   0.940370 0.906390 0.587310 -0.526825
C48   C     C_R   0.109484 0.883786 0.614947 0.820232
V4    V     V_3+5 0.828810 0.990710 0.501460 1.532079
O20   O     O_3   0.105780 0.049100 0.489960 -0.352915
C49   C     C_3   0.692782 0.325263 0.713151 -0.345243
C50   C     C_3   0.515875 0.283808 0.693959 0.435610
H16   H     H_    0.741653 0.386777 0.682838 0.204048
C51   C     C_1   0.627824 0.125406 0.621649 -0.053543
C52   C     C_1   0.635711 0.374923 0.878325 -0.157188
C53   C     C_3   0.811356 0.249363 0.726714 -0.112356
C54   C     C_3   0.632722 0.209018 0.707349 -0.171703
C55   C     C_3   0.746653 0.217235 0.805196 0.715901
C56   C     C_3   0.630166 0.292040 0.791986 -0.168319
C57   C     C_3   0.569825 0.175570 0.786201 -0.294892
C58   C     C_3   0.454291 0.251588 0.772224 0.564686
C59   C     C_1   0.632277 0.163201 0.660156 0.224886
C60   C     C_1   0.631060 0.337369 0.839590 0.150796
H17   H     H_    0.520069 0.114210 0.816582 0.220414
H18   H     H_    0.959677 0.247457 0.708858 0.254000
F1    F     F_    0.948878 0.985619 0.812259 -0.562132
F2    F     F_    0.026183 0.968975 0.689415 -0.637873
F3    F     F_    0.882096 0.352161 0.436884 -0.630633
S1    S     S_3+6 0.358939 0.328686 0.619713 0.061306
O21   O     O_2   0.475448 0.367792 0.553864 -0.291281
O22   O     O_2   0.229285 0.266532 0.609502 -0.312967
O23   O     O_3   0.226903 0.396542 0.635331 -0.503190
H19   H     H_    0.132636 0.414174 0.595329 0.375093
F4    F     F_    0.269905 0.253598 0.795163 -0.602759
F5    F     F_    0.867307 0.182865 0.863266 -0.571581
S2    S     S_3+6 0.891314 0.901645 0.170826 0.065701
O24   O     O_2   0.713000 0.901632 0.211263 -0.341753
O25   O     O_2   0.015071 0.972055 0.165788 -0.338685
O26   O     O_3   0.831720 0.905598 0.088391 -0.413165
H20   H     H_    0.752650 0.953435 0.067581 0.398180
S3    S     S_3+6 0.726251 0.691642 0.212949 0.017793
O27   O     O_2   0.603536 0.759567 0.169849 -0.277782
O28   O     O_2   0.751271 0.639104 0.171339 -0.347327
O29   O     O_3   0.623244 0.638919 0.290665 -0.531369
H21   H     H_    0.695982 0.589174 0.309696 0.334596
F6    F     F_    0.066633 0.717365 0.944916 -0.647432
F7    F     F_    0.969120 0.860717 0.939125 -0.534618

loop_
_geom_bond_atom_site_label_1
_geom_bond_atom_site_label_2
_ccdc_geom_bond_type
C35   C36   A    
C49   C56   S    
C53   C54   S    
C12   C14   S    
C24   C25   A    
C55   C56   S    
C1    O6    A    
C57   C58   S    
C28   C29   A    
C32   C33   A    
C10   C13   S    
C40   C46   S    
C39   C44   A    
C42   C43   A    
C8    C47   S    
C19   F1    S    
C18   F7    S    
C9    C11   S    
C17   C18   A    
C3    C26   S    
C55   F5    S    
O5    C3    A    
C21   C22   A    
C34   H12   S    
S1    O21   D    
O15   C47   A    
V2    O10   S    
C5    H2    S    
O26   H20   S    
C42   H14   S    
C31   C36   A    
C31   H9    S    
C44   H15   S    
C50   C54   S    
S3    O27   D    
O17   V4    S    
C29   C30   A    
O8    V2    S    
C17   C22   A    
C18   C19   A    
C56   C58   S    
C50   S1    S    
O11   C46   A    
O1    V2    S    
O15   V3    S    
C43   F3    S    
O7    V1    S    
C45   C51   S    
S2    O26   S    
C38   C41   A    
C39   C40   A    
C53   C55   S    
O9    C4    A    
H5    C29   S    
O12   C45   A    
C6    C10   S    
O12   V3    S    
C30   H8    S    
C5    C9    S    
C12   C16   S    
C31   C32   A    
C5    C12   S    
C13   H4    S    
C9    C10   S    
O4    C2    A    
C49   C53   S    
V4    O20   S    
C6    H1    S    
C22   C26   A    
C54   C57   S    
C38   C39   A    
O18   V4    S    
H3    C14   S    
C36   C40   A    
S3    O29   S    
C8    C16   T    
C23   C48   S    
C1    C37   S    
O2    C1    A    
C20   C21   A    
C28   H7    S    
C5    C6    S    
C11   C12   S    
C6    C14   S    
O19   C48   A    
O29   H21   S    
V3    O20   S    
O3    C4    A    
C23   C24   A    
C49   H16   S    
O6    V2    S    
C35   C37   A    
C24   C27   A    
C25   C26   A    
O13   V3    S    
O2    V1    S    
C32   H10   S    
C27   C28   A    
C52   C60   T    
S2    O24   D    
C41   H13   S    
C10   C15   S    
C34   C35   A    
C13   C14   S    
C58   F4    S    
C7    C15   T    
O1    C2    A    
C11   C13   S    
O14   C46   A    
O17   V3    S    
C53   H18   S    
O5    V1    S    
C20   F2    S    
O11   V4    S    
O8    C3    A    
C55   C57   S    
C33   C34   A    
C9    S3    S    
O14   V3    S    
C50   C58   S    
C4    C7    S    
O9    V2    S    
O7    V2    S    
C11   S2    S    
O4    V1    S    
O3    V1    S    
V1    O10   S    
O23   H19   S    
C21   C23   A    
C37   C38   A    
S1    O22   D    
C54   C59   S    
C2    C52   S    
C56   C60   S    
C25   C30   A    
O13   C48   A    
C41   C42   A    
C33   H11   S    
S3    O28   D    
C43   C44   A    
C49   C50   S    
C19   C20   A    
O18   C47   A    
C17   F6    S    
O19   V4    S    
C51   C59   T    
C45   O16   A    
O16   V4    S    
C57   H17   S    
C27   H6    S    
S2    O25   D    
S1    O23   S    
