data_mof_unit_50581.cif
_audit_creation_date              2012-12-10T16:58:30-0500
_audit_creation_method            fapswitch 2.2
_symmetry_space_group_name_H-M    P1
_symmetry_Int_Tables_number       1
_space_group_crystal_system       triclinic
_cell_length_a                    7.778824
_cell_length_b                    8.691549
_cell_length_c                    23.327353
_cell_angle_alpha                 93.000915
_cell_angle_beta                  85.252853
_cell_angle_gamma                 94.320023
_cell_volume                      1565.59853655

loop_
_atom_site_label
_atom_site_type_symbol
_atom_type_description
_atom_site_fract_x
_atom_site_fract_y
_atom_site_fract_z
_atom_type_partial_charge
C1    C     C_R   0.545428 0.794436 0.497920 0.908608
C2    C     C_R   0.502644 0.376126 0.292166 0.324837
C3    C     C_R   0.578433 0.603711 0.763540 0.513273
C4    C     C_R   0.503551 0.387225 0.232709 0.449504
C5    C     C_R   0.525743 0.462980 0.789438 -0.067853
C6    C     C_R   0.506506 0.532735 0.209032 0.056247
C7    C     C_2   0.565387 0.957137 0.506513 -0.259067
C8    C     C_2   0.431222 0.042984 0.496102 -0.219836
C9    C     C_R   0.500534 0.498018 0.610253 1.019954
C10   C     C_R   0.499696 0.501135 0.389645 1.006579
C11   C     C_R   0.357389 0.503875 0.122757 0.602396
C12   C     C_R   0.454129 0.205791 0.502704 0.916695
C13   C     C_R   0.679242 0.488012 0.875715 0.668021
C14   C     C_R   0.662059 0.564545 0.116405 0.671391
C15   C     C_R   0.373681 0.433466 0.882922 0.481381
C16   C     C_R   0.666854 0.561874 0.056121 -0.087517
C17   C     C_R   0.370858 0.431699 0.942896 -0.174869
C18   C     C_R   0.516424 0.504861 0.029559 -0.067043
C19   C     C_R   0.521689 0.486847 0.969305 -0.104229
C20   C     C_R   0.360557 0.466720 0.063376 -0.153037
C21   C     C_R   0.677175 0.524364 0.935273 -0.092539
C22   C     C_R   0.816429 0.614999 0.022130 0.474911
C23   C     C_R   0.460067 0.334182 0.756337 -0.099769
C24   C     C_R   0.222149 0.375724 0.976557 0.500985
C25   C     C_R   0.822384 0.596745 0.961753 -0.076829
C26   C     C_R   0.215752 0.392763 0.037063 -0.095534
C27   C     C_3   0.930870 0.846000 0.057086 -0.236441
C28   C     C_3   0.117723 0.143458 0.939535 -0.143520
C29   C     C_2   0.975827 0.669846 0.928556 0.556945
C30   C     C_2   0.066641 0.316203 0.071848 0.548971
C31   C     C_2   0.421672 0.183147 0.783571 0.548153
C32   C     C_2   0.515422 0.825278 0.220327 0.476277
C33   C     C_3   0.191905 0.230156 0.665306 -0.150766
C34   C     C_R   0.511410 0.669694 0.244419 -0.132295
C35   C     C_3   0.693488 0.839323 0.347244 -0.265891
C36   C     C_3   0.502606 0.838173 0.666856 -0.157194
C37   C     C_3   0.352813 0.175428 0.337139 -0.288127
C38   C     C_3   0.516821 0.805546 0.826586 -0.187082
C39   C     C_3   0.345945 0.182990 0.192079 -0.222591
C40   C     C_2   0.719168 0.014194 0.538228 0.436403
C41   C     C_2   0.270133 0.985791 0.468190 0.411058
C42   C     C_3   0.945686 0.298444 0.406837 -0.166006
C43   C     C_3   0.049023 0.697707 0.594298 -0.124929
C44   C     C_R   0.437537 0.351006 0.697733 0.423915
C45   C     C_R   0.514019 0.657919 0.304250 0.345583
C46   C     C_R   0.500753 0.488890 0.671925 -0.365751
C47   C     C_R   0.501863 0.511356 0.327818 -0.310647
C48   C     C_R   0.570658 0.615018 0.704535 0.312812
H1    H     H_    0.048483 0.905656 0.074116 0.190572
H2    H     H_    0.537733 0.928014 0.247814 0.136367
H3    H     H_    0.140259 0.124779 0.641722 0.174101
H4    H     H_    0.153631 0.331325 0.643601 0.156274
H5    H     H_    0.129607 0.230030 0.710004 0.204641
H6    H     H_    0.759230 0.753258 0.369548 0.181288
H7    H     H_    0.696696 0.947983 0.374434 0.191326
H8    H     H_    0.766652 0.864467 0.305358 0.154105
H9    H     H_    0.382702 0.820371 0.696123 0.157896
H10   H     H_    0.470966 0.813789 0.621726 0.126469
H11   H     H_    0.547756 0.961866 0.671301 0.266090
H12   H     H_    0.820568 0.864256 0.089594 0.212214
H13   H     H_    0.244012 0.209347 0.313384 0.122848
H14   H     H_    0.332802 0.212718 0.383180 0.184335
H15   H     H_    0.348580 0.047717 0.334217 0.249757
H16   H     H_    0.471896 0.745749 0.866481 0.138445
H17   H     H_    0.404830 0.819193 0.801014 0.181071
H18   H     H_    0.570336 0.922187 0.840187 0.181662
H19   H     H_    0.238271 0.259946 0.202254 0.143207
H20   H     H_    0.325109 0.085501 0.221045 0.188868
H21   H     H_    0.336710 0.135065 0.147331 0.185114
H22   H     H_    0.842955 0.966269 0.526918 0.091656
H23   H     H_    0.908861 0.900761 0.016512 0.127870
H24   H     H_    0.148247 0.033623 0.482655 0.087441
H25   H     H_    0.954056 0.397266 0.378060 0.168690
H26   H     H_    0.810948 0.252515 0.416103 0.196315
H27   H     H_    0.011644 0.202778 0.383486 0.115838
H28   H     H_    0.180004 0.754336 0.585872 0.151128
H29   H     H_    0.050332 0.594532 0.620478 0.154754
H30   H     H_    0.971435 0.782285 0.620213 0.186934
H31   H     H_    0.227441 0.130745 0.906366 0.147461
H32   H     H_    0.001622 0.080662 0.922676 0.214723
H33   H     H_    0.144480 0.087750 0.979441 0.095330
H34   H     H_    0.103539 0.666351 0.943707 0.072868
H35   H     H_    0.083871 0.273731 0.113632 0.060259
H36   H     H_    0.470482 0.165254 0.824703 0.014065
N1    N     N_R   0.508381 0.537701 0.147944 -0.292102
N2    N     N_R   0.527269 0.456386 0.850671 -0.350816
N3    N     N_2   0.950330 0.457950 0.484560 0.200195
N4    N     N_2   0.049670 0.542050 0.515440 0.198955
O1    O     O_R   0.389250 0.738570 0.503790 -0.594860
O2    O     O_2   0.829867 0.483269 0.842828 -0.447685
O3    O     O_2   0.808400 0.593103 0.143623 -0.475078
O4    O     O_2   0.224455 0.415403 0.856810 -0.479079
O5    O     O_3   0.957740 0.687480 0.047579 -0.587191
O6    O     O_3   0.083762 0.300080 0.950476 -0.546301
O7    O     O_2   0.959678 0.744846 0.886752 -0.537174
O8    O     O_2   0.923454 0.295756 0.053781 -0.544943
O9    O     O_2   0.334052 0.077898 0.761322 -0.596952
O10   O     O_2   0.492449 0.841950 0.169970 -0.591015
O11   O     O_3   0.373585 0.227428 0.663911 -0.588598
O12   O     O_R   0.610750 0.261430 0.496210 -0.606577
O13   O     O_3   0.519133 0.789596 0.340303 -0.583017
O14   O     O_3   0.638479 0.749088 0.679110 -0.592528
O15   O     O_3   0.516872 0.233384 0.314214 -0.602164
O16   O     O_3   0.649955 0.728702 0.794874 -0.528689
O17   O     O_3   0.513271 0.256217 0.196529 -0.570770
O18   O     O_2   0.706254 0.106865 0.579302 -0.550155
O19   O     O_2   0.273774 0.893315 0.426967 -0.523748
O20   O     O_3   0.028672 0.338806 0.457167 -0.548944
O21   O     O_3   0.970309 0.660446 0.542983 -0.537190
O22   O     O_R   0.678390 0.711620 0.493890 -0.610745
O23   O     O_R   0.321610 0.288380 0.506110 -0.615978
O24   O     O_R   0.355400 0.513520 0.588790 -0.692012
O25   O     O_R   0.644600 0.486480 0.411210 -0.669509
O26   O     O_R   0.644550 0.486570 0.578900 -0.550465
O27   O     O_R   0.355450 0.513430 0.421100 -0.568744
O28   O     O_2   0.206150 0.509770 0.155258 -0.539282
Zn1   Zn    Zn3+2 0.306930 0.518000 0.506610 1.046845
Zn2   Zn    Zn3+2 0.693070 0.482000 0.493390 1.058796

loop_
_geom_bond_atom_site_label_1
_geom_bond_atom_site_label_2
_ccdc_geom_bond_type
C3    O16   S    
N3    N4    D    
C13   O2    S    
C39   H20   S    
C36   H11   S    
O22   Zn2   S    
C37   H14   S    
C7    C8    D    
C43   H30   S    
C42   H27   S    
C6    N1    S    
C40   H22   S    
C9    O26   A    
C28   O6    S    
C19   C21   A    
C24   C26   A    
C36   H10   S    
C27   H12   S    
O24   Zn1   S    
C44   O11   S    
C3    C48   A    
C36   O14   S    
C18   C19   A    
C30   H35   S    
C28   H31   S    
C30   O8    D    
C15   O4    S    
N3    O20   S    
C38   H18   S    
O27   Zn1   S    
C22   C25   A    
C13   N2    A    
C38   O16   S    
C7    C40   S    
C33   H3    S    
C39   O17   S    
C9    O24   A    
C35   H8    S    
C9    C46   S    
C35   H6    S    
C33   H5    S    
C37   H15   S    
C44   C46   A    
C40   O18   D    
C38   H16   S    
C45   C47   A    
C25   C29   S    
C46   C48   A    
C11   C20   A    
C42   H26   S    
C17   C24   A    
C35   H7    S    
C8    C41   S    
N3    Zn2   S    
C4    C6    A    
C36   H9    S    
C37   O15   S    
C3    C5    A    
C23   C44   A    
C6    C34   A    
C16   C22   A    
C33   H4    S    
C32   C34   S    
C2    C4    A    
C24   O6    S    
C1    O22   A    
C5    C23   A    
C38   H17   S    
C8    C12   S    
C48   O14   S    
C39   H21   S    
C13   C21   A    
C34   C45   A    
C11   O28   S    
C32   H2    S    
O26   Zn2   S    
C10   O25   A    
C45   O13   S    
C15   N2    A    
C5    N2    S    
O1    Zn1   S    
C26   C30   S    
C41   H24   S    
C22   O5    S    
C14   C16   A    
C27   O5    S    
O12   Zn2   S    
N4    O21   S    
C27   H23   S    
C29   O7    D    
C43   H28   S    
C15   C17   A    
C21   C25   A    
C42   H25   S    
C1    O1    A    
C41   O19   D    
C28   H33   S    
C1    C7    S    
C39   H19   S    
C14   N1    A    
C35   O13   S    
C37   H13   S    
C2    C47   A    
C43   H29   S    
C4    O17   S    
O23   Zn1   S    
C29   H34   S    
C20   C26   A    
C2    O15   S    
C11   N1    A    
C17   C19   A    
C32   O10   D    
C18   C20   A    
C31   O9    D    
C28   H32   S    
C14   O3    S    
C12   O12   A    
C31   H36   S    
O25   Zn2   S    
C16   C18   A    
C10   C47   S    
C43   O21   S    
C33   O11   S    
N4    Zn1   S    
C42   O20   S    
C12   O23   A    
C10   O27   A    
C27   H1    S    
C23   C31   S    
