data_mof_unit_54159.cif
_audit_creation_date              2012-10-26T19:02:59-0400
_audit_creation_method            fapswitch 2.2
_symmetry_space_group_name_H-M    P1
_symmetry_Int_Tables_number       1
_space_group_crystal_system       triclinic
_cell_length_a                    14.959168
_cell_length_b                    11.011683
_cell_length_c                    9.926515
_cell_angle_alpha                 110.819737
_cell_angle_beta                  97.620056
_cell_angle_gamma                 93.100763
_cell_volume                      1505.81526631

loop_
_atom_site_label
_atom_site_type_symbol
_atom_type_description
_atom_site_fract_x
_atom_site_fract_y
_atom_site_fract_z
_atom_type_partial_charge
C1    C     C_R   0.494152 0.254402 0.440721 0.548780
C2    C     C_2   0.499128 0.476951 0.916374 0.128301
C3    C     C_R   0.329369 0.499458 0.501323 0.540925
C4    C     C_R   0.670622 0.500556 0.498658 0.540911
C5    C     C_R   0.819145 0.615131 0.518490 -0.104303
C6    C     C_R   0.180758 0.384794 0.480924 -0.128705
C7    C     C_R   0.766537 0.499309 0.494863 0.029255
C8    C     C_R   0.233419 0.500685 0.504964 0.011492
C9    C     C_R   0.805046 0.382531 0.470468 -0.115521
C10   C     C_R   0.194889 0.617440 0.529207 -0.127685
C11   C     C_R   0.898590 0.379102 0.468426 -0.010542
C12   C     C_R   0.507494 0.745683 0.559131 0.544188
C13   C     C_R   0.101307 0.620819 0.530903 -0.013848
C14   C     C_R   0.952775 0.498634 0.497071 0.047725
C15   C     C_R   0.047113 0.501269 0.502153 0.047772
C16   C     C_R   0.912448 0.616015 0.521087 -0.001518
C17   C     C_R   0.087435 0.383881 0.478117 -0.006154
C18   C     C_R   0.939905 0.261358 0.441847 0.016959
C19   C     C_R   0.059970 0.738538 0.557309 0.014996
C20   C     C_2   0.886948 0.131432 0.401930 0.241477
C21   C     C_2   0.112902 0.868472 0.597160 0.238272
C22   C     C_2   0.436474 0.360586 0.819910 0.256991
C23   C     C_R   0.034302 0.266359 0.449090 -0.076837
C24   C     C_2   0.601082 0.579875 0.164465 0.267854
C25   C     C_R   0.965566 0.733514 0.549975 -0.072311
C26   C     C_2   0.491854 0.114690 0.407337 -0.127443
C27   C     C_2   0.514266 0.885543 0.591719 -0.116610
C28   C     C_2   0.511357 0.069829 0.514736 -0.141079
C29   C     C_2   0.504944 0.930413 0.482951 -0.160802
C30   C     C_2   0.516340 0.498885 0.077167 0.125740
Cu1   Cu    Cu3+1 0.515770 0.521810 0.644910 0.963682
Cu2   Cu    Cu3+1 0.484230 0.478190 0.355090 0.968302
H1    H     H_    0.787336 0.704730 0.537364 0.108205
H2    H     H_    0.473313 0.048005 0.294438 0.113145
H3    H     H_    0.578951 0.637747 0.934072 0.230053
H4    H     H_    0.399558 0.396830 0.075762 0.238308
H5    H     H_    0.814655 0.115960 0.363168 0.101605
H6    H     H_    0.185186 0.884010 0.635996 0.105474
H7    H     H_    0.386791 0.364572 0.732996 0.151053
H8    H     H_    0.601394 0.655013 0.269929 0.134161
H9    H     H_    0.212552 0.295176 0.461976 0.108417
H10   H     H_    0.760747 0.296648 0.456174 0.092702
H11   H     H_    0.239211 0.703348 0.543672 0.095160
H12   H     H_    0.066823 0.177285 0.428950 0.184580
H13   H     H_    0.933032 0.822572 0.570034 0.184932
H14   H     H_    0.491162 0.864125 0.369359 0.148807
H15   H     H_    0.531050 0.136117 0.627460 0.207707
H16   H     H_    0.527313 0.952252 0.705087 0.138310
N1    N     N_2   0.460520 0.445420 0.137370 -0.358425
N2    N     N_2   0.539480 0.554580 0.862630 -0.361147
O1    O     O_R   0.508410 0.332340 0.577400 -0.503207
O2    O     O_2   0.075453 0.962266 0.589765 -0.462162
O3    O     O_2   0.439546 0.256862 0.838279 -0.543736
O4    O     O_2   0.672692 0.563236 0.117512 -0.501063
O5    O     O_R   0.491590 0.667660 0.422600 -0.532479
O6    O     O_R   0.481780 0.295500 0.332650 -0.475386
O7    O     O_R   0.518220 0.704500 0.667350 -0.491034
O8    O     O_R   0.383570 0.518390 0.622380 -0.529879
O9    O     O_R   0.616430 0.481610 0.377620 -0.491441
O10   O     O_R   0.356940 0.481550 0.377630 -0.487887
O11   O     O_R   0.643060 0.518450 0.622370 -0.474983
O12   O     O_2   0.924382 0.037581 0.409176 -0.460055

loop_
_geom_bond_atom_site_label_1
_geom_bond_atom_site_label_2
_ccdc_geom_bond_type
C27   H16   S    
C2    C22   S    
C5    C7    A    
C11   C18   A    
C27   C29   D    
C9    C11   A    
Cu1   O11   S    
Cu2   O5    S    
C26   C28   D    
Cu1   Cu2   S    
C29   H14   S    
C2    C30   S    
C3    O10   A    
Cu1   O7    S    
H3    N2    S    
C2    N2    D    
C28   H15   S    
C10   C13   A    
Cu2   O6    S    
C20   H5    S    
C1    O1    A    
C9    H10   S    
C17   C23   A    
C4    C7    S    
C12   O7    A    
Cu1   O8    S    
C8    C10   A    
C28   C29   S    
C19   C21   S    
C1    O6    A    
C26   H2    S    
C22   O3    D    
C18   C20   S    
C13   C15   A    
C20   O12   D    
C1    C26   S    
C19   C25   A    
C11   C14   A    
C14   C16   A    
Cu2   N1    S    
C24   C30   S    
H4    N1    S    
Cu1   N2    S    
C24   O4    D    
C18   C23   A    
C12   O5    A    
C3    O8    A    
C25   H13   S    
C4    O9    A    
C7    C9    A    
C3    C8    S    
C16   C25   A    
C15   C17   A    
C6    C17   A    
Cu2   O10   S    
C14   C15   A    
C21   H6    S    
C13   C19   A    
C6    C8    A    
C12   C27   S    
Cu2   O9    S    
C24   H8    S    
C10   H11   S    
C22   H7    S    
C4    O11   A    
C30   N1    D    
C21   O2    D    
C23   H12   S    
Cu1   O1    S    
C5    C16   A    
C6    H9    S    
C5    H1    S    
