data_mof_unit_56359.cif
_audit_creation_date              2012-12-10T16:44:44-0500
_audit_creation_method            fapswitch 2.2
_symmetry_space_group_name_H-M    P1
_symmetry_Int_Tables_number       1
_space_group_crystal_system       triclinic
_cell_length_a                    15.034501
_cell_length_b                    8.733937
_cell_length_c                    7.429698
_cell_angle_alpha                 101.902461
_cell_angle_beta                  94.160568
_cell_angle_gamma                 92.502569
_cell_volume                      950.385949414

loop_
_atom_site_label
_atom_site_type_symbol
_atom_type_description
_atom_site_fract_x
_atom_site_fract_y
_atom_site_fract_z
_atom_type_partial_charge
C1    C     C_R   0.495218 0.200775 0.455938 0.926259
C2    C     C_R   0.505188 0.799174 0.544066 0.828090
C3    C     C_R   0.040194 0.243385 0.301487 -0.143756
C4    C     C_R   0.960036 0.757063 0.690794 -0.236750
C5    C     C_2   0.478468 0.036584 0.439906 0.091435
C6    C     C_2   0.522748 0.963206 0.559873 0.101484
C7    C     C_R   0.329230 0.504455 0.503032 0.806586
C8    C     C_R   0.670715 0.494869 0.496760 0.885473
C9    C     C_R   0.818774 0.612806 0.602487 -0.234818
C10   C     C_R   0.181107 0.388259 0.390862 -0.171077
C11   C     C_R   0.766942 0.488059 0.491968 -0.061846
C12   C     C_R   0.232884 0.510021 0.506848 -0.108247
C13   C     C_R   0.806990 0.363137 0.379724 -0.065071
C14   C     C_R   0.192649 0.631503 0.623025 -0.058254
C15   C     C_R   0.901733 0.359428 0.393713 -0.050352
C16   C     C_R   0.098173 0.638071 0.603860 0.085882
C17   C     C_R   0.953009 0.494742 0.496477 0.074339
C18   C     C_R   0.046774 0.504145 0.498637 0.029254
C19   C     C_R   0.910733 0.620784 0.598833 0.103890
C20   C     C_R   0.089161 0.379360 0.394647 0.067259
C21   C     C_R   0.947800 0.227278 0.309334 -0.044945
C22   C     C_R   0.052485 0.771109 0.685789 0.019933
Cu1   Cu    Cu3+1 0.510010 0.517380 0.684380 1.061720
Cu2   Cu    Cu3+1 0.489990 0.482620 0.315620 1.090054
H1    H     H_    0.786552 0.708767 0.684652 0.193962
H2    H     H_    0.213263 0.294635 0.305293 0.176678
H3    H     H_    0.075392 0.144875 0.232875 0.183226
H4    H     H_    0.925392 0.857123 0.757316 0.184787
H5    H     H_    0.430227 0.379173 0.948983 0.254726
H6    H     H_    0.569687 0.620971 0.051047 0.246460
N1    N     N_2   0.474890 0.456420 0.038520 -0.190890
N2    N     N_2   0.525110 0.543580 0.961480 -0.202119
O1    O     O_R   0.506510 0.286130 0.619770 -0.588085
O2    O     O_R   0.493490 0.713870 0.380230 -0.559762
O3    O     O_R   0.489600 0.256770 0.308360 -0.500818
O4    O     O_R   0.510400 0.743230 0.691640 -0.531605
O5    O     O_R   0.378710 0.514640 0.655720 -0.616601
O6    O     O_R   0.621290 0.485360 0.344280 -0.607522
O7    O     O_R   0.361800 0.485290 0.344300 -0.530674
O8    O     O_R   0.638200 0.514710 0.655700 -0.567569
C23   C     C_2   0.751143 0.247787 0.236460 0.344778
H7    H     H_    0.773115 0.214254 0.098569 0.114517
O9    O     O_2   0.682603 0.184728 0.272439 -0.489017
C24   C     C_2   0.248962 0.737813 0.774068 0.511955
H8    H     H_    0.313467 0.786141 0.748783 0.114425
O10   O     O_2   0.224806 0.766987 0.930209 -0.514393
C25   C     C_2   0.905015 0.066055 0.251769 0.357265
H9    H     H_    0.846685 0.032579 0.315683 0.122212
O11   O     O_2   0.936220 0.966964 0.136417 -0.557826
C26   C     C_2   0.094726 0.932067 0.746093 0.416707
H10   H     H_    0.068990 0.013815 0.858206 0.091947
O12   O     O_2   0.154271 0.978235 0.663453 -0.532424
S1    S     S_3+6 0.387102 0.949376 0.278261 0.045344
O13   O     O_2   0.422494 0.852605 0.110103 -0.226232
O14   O     O_2   0.327220 0.847198 0.364104 -0.304048
O15   O     O_3   0.327221 0.089773 0.213030 -0.544650
H11   H     H_    0.269322 0.036254 0.157374 0.389079
S2    S     S_3+6 0.612869 0.051113 0.724785 0.018876
O16   O     O_2   0.668125 0.927606 0.782944 -0.292894
O17   O     O_2   0.672433 0.157626 0.644312 -0.313910
O18   O     O_3   0.569987 0.154043 0.912082 -0.463362
H12   H     H_    0.609237 0.251079 0.950334 0.370918

loop_
_geom_bond_atom_site_label_1
_geom_bond_atom_site_label_2
_ccdc_geom_bond_type
C26   O12   D    
Cu1   Cu2   S    
C4    C22   A    
C23   H7    S    
C6    S2    S    
C14   C24   S    
Cu2   O6    S    
N1    N2    D    
C4    C19   A    
C12   C14   A    
C22   C26   S    
Cu1   N2    S    
C10   H2    S    
S2    O18   S    
C3    H3    S    
C17   C18   A    
C7    O5    A    
Cu2   N1    S    
C9    H1    S    
C3    C20   A    
H5    N1    S    
C16   C18   A    
S1    O13   D    
O15   H11   S    
H6    N2    S    
C11   C13   A    
C9    C11   A    
C2    C6    S    
C10   C12   A    
C8    O6    A    
C8    C11   S    
C1    C5    S    
C13   C23   S    
C17   C19   A    
C24   O10   D    
C26   H10   S    
C18   C20   A    
C13   C15   A    
C5    C6    D    
C14   C16   A    
C7    C12   S    
C3    C21   A    
Cu2   O3    S    
O18   H12   S    
S1    O14   D    
C1    O1    A    
Cu1   O8    S    
C15   C21   A    
Cu2   O7    S    
C2    O4    A    
C24   H8    S    
C1    O3    A    
C25   O11   D    
Cu1   O4    S    
S1    O15   S    
C5    S1    S    
C15   C17   A    
C21   C25   S    
C7    O7    A    
C16   C22   A    
C8    O8    A    
C4    H4    S    
C2    O2    A    
Cu1   O5    S    
S2    O16   D    
S2    O17   D    
C9    C19   A    
Cu2   O2    S    
C23   O9    D    
C25   H9    S    
C10   C20   A    
Cu1   O1    S    
