data_mof_unit_39906.cif
_audit_creation_date              2012-12-10T18:21:16-0500
_audit_creation_method            fapswitch 2.2
_symmetry_space_group_name_H-M    P1
_symmetry_Int_Tables_number       1
_space_group_crystal_system       triclinic
_cell_length_a                    9.54717
_cell_length_b                    10.726707
_cell_length_c                    17.166882
_cell_angle_alpha                 92.972311
_cell_angle_beta                  84.495549
_cell_angle_gamma                 88.220033
_cell_volume                      1746.44547417

loop_
_atom_site_label
_atom_site_type_symbol
_atom_type_description
_atom_site_fract_x
_atom_site_fract_y
_atom_site_fract_z
_atom_type_partial_charge
C1    C     C_R   0.498566 0.740007 0.499599 0.940118
C2    C     C_R   0.501387 0.259949 0.500162 0.942090
C3    C     C_3   0.435342 0.957175 0.438626 0.377013
C4    C     C_3   0.564240 0.042525 0.560573 0.372954
C5    C     C_3   0.568979 0.032866 0.433722 0.358655
C6    C     C_3   0.430323 0.967072 0.565445 0.353665
C7    C     C_3   0.502475 0.123108 0.500163 -0.330445
C8    C     C_3   0.497124 0.876763 0.499129 -0.333296
C9    C     C_3   0.366073 0.047992 0.505051 -0.301961
C10   C     C_3   0.633428 0.951923 0.494027 -0.302441
C11   C     C_3   0.953633 0.387483 0.497645 -0.161503
C12   C     C_3   0.046335 0.612365 0.502417 -0.184364
C13   C     C_3   0.041883 0.445856 0.560132 0.120868
C14   C     C_3   0.958302 0.553962 0.439925 0.156799
C15   C     C_3   0.062002 0.441916 0.438056 0.439659
C16   C     C_3   0.938009 0.557785 0.562070 0.382033
C17   C     C_R   0.480213 0.496886 0.650416 0.867133
C18   C     C_R   0.519740 0.502487 0.349521 0.871580
C19   C     C_R   0.471894 0.475698 0.735469 -0.128791
C20   C     C_R   0.527256 0.521487 0.264185 -0.144482
C21   C     C_R   0.586009 0.410771 0.762533 -0.029937
C22   C     C_R   0.409405 0.580037 0.236502 -0.051509
C23   C     C_R   0.591834 0.394142 0.841609 -0.143699
C24   C     C_R   0.403081 0.595119 0.157362 -0.099790
C25   C     C_R   0.480790 0.437466 0.895610 -0.035624
C26   C     C_R   0.516937 0.557117 0.103857 -0.029962
C27   C     C_R   0.356394 0.488005 0.869568 0.315976
C28   C     C_R   0.643584 0.512204 0.130252 0.336103
C29   C     C_R   0.356465 0.515803 0.789923 0.111748
C30   C     C_R   0.644793 0.485296 0.210033 0.110156
C31   C     C_2   0.505981 0.442766 0.978550 -0.127300
C32   C     C_2   0.493191 0.551912 0.020792 -0.020990
Cu1   Cu    Cu3+1 0.356850 0.500010 0.499980 1.100727
Cu2   Cu    Cu3+1 0.643150 0.499990 0.500020 1.105001
H1    H     H_    0.674357 0.375535 0.722419 0.229142
H2    H     H_    0.319056 0.612211 0.276176 0.231431
H3    H     H_    0.912101 0.292037 0.495048 0.239906
H4    H     H_    0.087855 0.707823 0.505001 0.234500
H5    H     H_    0.453733 0.635640 0.995911 0.192382
H6    H     H_    0.545898 0.359198 0.003434 0.190774
H7    H     H_    0.306765 0.632713 0.137523 0.216852
H8    H     H_    0.686063 0.351689 0.860983 0.187066
H9    H     H_    0.256338 0.087154 0.509916 0.245871
H10   H     H_    0.743185 0.912787 0.489010 0.243442
N1    N     N_3   0.141720 0.500030 0.499940 -0.260203
N2    N     N_3   0.858280 0.499970 0.500060 -0.262393
O1    O     O_R   0.379130 0.683150 0.499960 -0.550005
O2    O     O_R   0.620870 0.316850 0.500040 -0.548014
O3    O     O_R   0.620910 0.683140 0.500000 -0.552610
O4    O     O_R   0.379090 0.316860 0.500000 -0.548455
O5    O     O_R   0.365090 0.500030 0.613580 -0.565338
O6    O     O_R   0.634910 0.499970 0.386420 -0.563465
O7    O     O_R   0.606870 0.500020 0.613610 -0.533525
O8    O     O_R   0.393130 0.499980 0.386390 -0.540230
S1    S     S_3+6 0.137950 0.347406 0.353835 0.077428
O9    O     O_2   0.152583 0.425655 0.283693 -0.284059
O10   O     O_2   0.278507 0.289914 0.366156 -0.220404
O11   O     O_3   0.033258 0.229056 0.336170 -0.461055
H11   H     H_    0.071186 0.191209 0.284272 0.395301
S2    S     S_3+6 0.861397 0.653340 0.645668 0.096082
O12   O     O_2   0.961235 0.752256 0.665856 -0.208967
O13   O     O_2   0.727874 0.718896 0.628853 -0.187532
O14   O     O_3   0.826074 0.567205 0.723542 -0.518023
H12   H     H_    0.918272 0.535287 0.737039 0.368622
I1    I     I_    0.809541 0.367872 0.242068 0.019272
I2    I     I_    0.197885 0.639784 0.758395 -0.001143
S3    S     S_3+6 0.199766 0.509169 0.935077 0.076816
O15   O     O_2   0.178129 0.645107 0.960527 -0.209054
O16   O     O_2   0.075385 0.467912 0.894172 -0.250445
O17   O     O_3   0.208058 0.425971 0.015038 -0.461193
H13   H     H_    0.208650 0.337495 0.995336 0.368020
S4    S     S_3+6 0.800470 0.496873 0.064626 0.091811
O18   O     O_2   0.924346 0.538183 0.105935 -0.149828
O19   O     O_2   0.824932 0.362179 0.036390 -0.282619
O20   O     O_3   0.788524 0.586276 0.987528 -0.463419
H14   H     H_    0.800987 0.528091 0.940508 0.386339
S5    S     S_3+6 0.663631 0.079049 0.347033 0.086939
O21   O     O_2   0.567029 0.150823 0.300042 -0.227365
O22   O     O_2   0.777687 0.160708 0.371512 -0.256153
O23   O     O_3   0.734789 0.953029 0.293684 -0.460392
H15   H     H_    0.796007 0.987167 0.250605 0.387793
S6    S     S_3+6 0.333937 0.923007 0.652188 0.094899
O24   O     O_2   0.214523 0.846761 0.628573 -0.251952
O25   O     O_2   0.428599 0.847012 0.698003 -0.226621
O26   O     O_3   0.269995 0.050624 0.706504 -0.458720
H16   H     H_    0.212036 0.018018 0.751414 0.392519
S7    S     S_3+6 0.351198 0.901205 0.356181 0.059890
O27   O     O_2   0.459104 0.833720 0.298391 -0.277311
O28   O     O_2   0.237944 0.813957 0.381972 -0.309457
O29   O     O_3   0.279594 0.022386 0.314014 -0.437599
H17   H     H_    0.238871 0.984837 0.267710 0.377320
S8    S     S_3+6 0.650954 0.096368 0.642616 0.058409
O30   O     O_2   0.758950 0.188678 0.617270 -0.317855
O31   O     O_2   0.543720 0.157181 0.703580 -0.275894
O32   O     O_3   0.730789 0.974939 0.680401 -0.403884
H18   H     H_    0.777905 0.011980 0.724592 0.393537
I3    I     I_    0.101562 0.327036 0.648638 -0.164714
I4    I     I_    0.901179 0.672062 0.350547 -0.088649

loop_
_geom_bond_atom_site_label_1
_geom_bond_atom_site_label_2
_ccdc_geom_bond_type
C25   C31   S    
S7    O27   D    
C26   C32   S    
C6    S6    S    
C27   C29   A    
C1    C8    S    
Cu1   N1    S    
O32   H18   S    
S1    O9    D    
C17   O5    A    
C6    C9    S    
C18   O6    A    
C14   N2    S    
C20   C30   A    
S5    O21   D    
C23   H8    S    
S2    O14   S    
C19   C21   A    
C24   C26   A    
C4    C7    S    
O23   H15   S    
C31   H6    S    
S2    O13   D    
C16   S2    S    
C32   H5    S    
C11   H3    S    
C2    O4    A    
C2    C7    S    
C11   C15   S    
C12   C16   S    
O17   H13   S    
Cu2   N2    S    
C13   I3    S    
C24   H7    S    
C28   S4    S    
S4    O20   S    
C14   I4    S    
S5    O22   D    
C9    H9    S    
C10   H10   S    
S3    O15   D    
C4    C6    S    
C3    C8    S    
C16   N2    S    
C5    C7    S    
S4    O18   D    
C6    C8    S    
C2    O2    A    
O11   H11   S    
O26   H16   S    
C3    S7    S    
S8    O32   S    
O14   H12   S    
S2    O12   D    
S3    O16   D    
C15   S1    S    
O20   H14   S    
C3    C9    S    
C31   C32   D    
S8    O31   D    
Cu1   Cu2   S    
S4    O19   D    
C12   C14   S    
S6    O25   D    
S1    O10   D    
C25   C27   A    
Cu1   O1    S    
C22   C24   A    
S1    O11   S    
Cu2   O2    S    
C15   N1    S    
C5    S5    S    
C19   C29   A    
C17   O7    A    
S5    O23   S    
Cu1   O8    S    
C7    C9    S    
Cu2   O3    S    
C26   C28   A    
C1    O1    A    
C20   C22   A    
C12   N1    S    
C3    C5    S    
C13   C16   S    
C21   H1    S    
Cu1   O5    S    
S6    O26   S    
C22   H2    S    
Cu2   O6    S    
S3    O17   S    
C21   C23   A    
Cu1   O4    S    
C5    C10   S    
C13   N1    S    
C11   C13   S    
O29   H17   S    
C1    O3    A    
C28   C30   A    
S8    O30   D    
C17   C19   S    
C18   C20   S    
C23   C25   A    
C12   H4    S    
C30   I1    S    
C27   S3    S    
C18   O8    A    
C29   I2    S    
Cu2   O7    S    
C8    C10   S    
S6    O24   D    
S7    O29   S    
S7    O28   D    
C14   C15   S    
C11   N2    S    
C4    C10   S    
C4    S8    S    
