data_mof_unit_65137.cif
_audit_creation_date              2012-12-10T17:01:36-0500
_audit_creation_method            fapswitch 2.2
_symmetry_space_group_name_H-M    P1
_symmetry_Int_Tables_number       1
_space_group_crystal_system       triclinic
_cell_length_a                    20.03977
_cell_length_b                    22.562773
_cell_length_c                    15.082439
_cell_angle_alpha                 89.717712
_cell_angle_beta                  90.176726
_cell_angle_gamma                 89.973283
_cell_volume                      6819.45074658

loop_
_atom_site_label
_atom_site_type_symbol
_atom_type_description
_atom_site_fract_x
_atom_site_fract_y
_atom_site_fract_z
_atom_type_partial_charge
C1    C     C_R   0.372528 0.885954 0.485873 0.499872
C2    C     C_R   0.281648 0.742002 0.515432 0.043105
C3    C     C_R   0.766652 0.745878 0.539832 0.042553
C4    C     C_R   0.781646 0.242002 0.515455 0.043263
C5    C     C_R   0.332549 0.215784 0.512406 -0.120046
C6    C     C_R   0.332653 0.783947 0.512865 -0.122457
C7    C     C_R   0.810544 0.698278 0.548548 -0.122691
C8    C     C_R   0.832652 0.283948 0.512898 -0.122941
C9    C     C_R   0.254426 0.142291 0.457419 -0.127804
C10   C     C_R   0.254515 0.857820 0.457743 -0.129449
C11   C     C_R   0.793728 0.673747 0.393506 -0.128534
C12   C     C_R   0.372508 0.113956 0.485739 0.502556
C13   C     C_R   0.754537 0.357796 0.457646 -0.129029
C14   C     C_R   0.202737 0.183524 0.462006 -0.135437
C15   C     C_R   0.202863 0.816577 0.462165 -0.135568
C16   C     C_R   0.750903 0.722059 0.383658 -0.136194
C17   C     C_R   0.702885 0.316554 0.462056 -0.135934
C18   C     C_R   0.520100 0.006838 0.163871 0.065505
C19   C     C_R   0.020087 0.506860 0.163874 0.065697
C20   C     C_R   0.478521 0.998133 0.835150 0.037862
C21   C     C_R   0.978509 0.498141 0.835152 0.037405
C22   C     C_R   0.427597 0.955632 0.965991 -0.124032
C23   C     C_R   0.872532 0.385950 0.485866 0.499808
C24   C     C_R   0.927596 0.455634 0.965995 -0.124272
C25   C     C_R   0.430670 0.961158 0.874220 -0.121074
C26   C     C_R   0.930672 0.461152 0.874224 -0.121670
C27   C     C_R   0.523786 0.029439 0.887666 -0.118248
C28   C     C_R   0.023749 0.529476 0.887669 -0.118138
C29   C     C_R   0.627438 0.113644 0.514652 0.500535
C30   C     C_R   0.627270 0.886123 0.514964 0.494594
C31   C     C_R   0.127439 0.613644 0.514652 0.500479
C32   C     C_R   0.127408 0.386220 0.514752 0.495521
C33   C     C_R   0.522722 0.022358 0.979691 0.013334
C34   C     C_R   0.873018 0.614381 0.484914 0.502020
C35   C     C_R   0.022685 0.522400 0.979696 0.013294
C36   C     C_R   0.473839 0.985613 0.019086 0.030978
C37   C     C_R   0.973822 0.485633 0.019091 0.030786
C38   C     C_R   0.472381 0.978822 0.110816 -0.172607
C39   C     C_R   0.972374 0.478835 0.110820 -0.172994
C40   C     C_R   0.569969 0.042596 0.125149 0.239614
C41   C     C_R   0.069929 0.542649 0.125154 0.239769
C42   C     C_R   0.570510 0.050430 0.032662 -0.129834
C43   C     C_R   0.070457 0.550493 0.032668 -0.129662
C44   C     C_R   0.514596 0.001004 0.260071 0.538296
C45   C     C_R   0.737296 0.758480 0.456340 0.046456
C46   C     C_R   0.014594 0.501011 0.260072 0.538664
C47   C     C_R   0.484808 0.999726 0.739373 0.496661
C48   C     C_R   0.984804 0.499727 0.739374 0.496760
C49   C     C_R   0.319218 0.158090 0.483712 0.027350
C50   C     C_R   0.319295 0.841829 0.484146 0.025780
C51   C     C_R   0.824280 0.662180 0.475636 0.024751
C52   C     C_R   0.819305 0.341820 0.484125 0.025597
C53   C     C_R   0.677800 0.840363 0.521961 0.037762
C54   C     C_R   0.679281 0.158320 0.519212 0.039286
C55   C     C_R   0.179132 0.341379 0.519536 0.039152
C56   C     C_R   0.715925 0.258659 0.491203 0.046866
C57   C     C_R   0.179284 0.658318 0.519207 0.039351
C58   C     C_R   0.751132 0.780722 0.613507 -0.134307
C59   C     C_R   0.795418 0.183523 0.541062 -0.133284
C60   C     C_R   0.295304 0.315961 0.540971 -0.132412
C61   C     C_R   0.295432 0.683512 0.540976 -0.132976
C62   C     C_R   0.705990 0.827256 0.604794 -0.124641
C63   C     C_R   0.744514 0.141608 0.541526 -0.123277
C64   C     C_R   0.244390 0.357885 0.541705 -0.121903
C65   C     C_R   0.244529 0.641596 0.541446 -0.123553
C66   C     C_R   0.693914 0.806631 0.447586 -0.119871
C67   C     C_R   0.215765 0.241219 0.491208 0.047217
C68   C     C_R   0.664716 0.216786 0.495094 -0.115974
C69   C     C_R   0.164537 0.283092 0.495354 -0.119475
C70   C     C_R   0.164709 0.716794 0.495150 -0.115530
C71   C     C_R   0.215916 0.758669 0.491251 0.046668
C72   C     C_R   0.281515 0.257693 0.515244 0.043832
H1    H     H_    0.382786 0.228138 0.531898 0.121838
H2    H     H_    0.061402 0.557105 0.856625 0.110826
H3    H     H_    0.243471 0.097657 0.435632 0.130314
H4    H     H_    0.243547 0.902598 0.435926 0.130285
H5    H     H_    0.804305 0.646343 0.336478 0.135159
H6    H     H_    0.743576 0.402564 0.435777 0.132943
H7    H     H_    0.345488 0.329268 0.558952 0.108424
H8    H     H_    0.345596 0.670045 0.559050 0.109222
H9    H     H_    0.772907 0.771330 0.677922 0.109924
H10   H     H_    0.845574 0.170064 0.559194 0.108470
H11   H     H_    0.728418 0.730868 0.319498 0.110480
H12   H     H_    0.382883 0.771472 0.532449 0.122890
H13   H     H_    0.652948 0.329835 0.442603 0.109502
H14   H     H_    0.152776 0.170385 0.442713 0.108282
H15   H     H_    0.152918 0.829867 0.442769 0.110489
H16   H     H_    0.692925 0.853085 0.662584 0.116334
H17   H     H_    0.755856 0.096132 0.559438 0.116055
H18   H     H_    0.255760 0.403231 0.559610 0.114249
H19   H     H_    0.255879 0.596112 0.559304 0.113322
H20   H     H_    0.670705 0.816519 0.384140 0.105147
H21   H     H_    0.614212 0.228918 0.476284 0.106241
H22   H     H_    0.114015 0.271137 0.476619 0.102928
H23   H     H_    0.833654 0.689013 0.612260 0.124131
H24   H     H_    0.114197 0.728934 0.476392 0.109133
H25   H     H_    0.434398 0.951188 0.141166 0.122870
H26   H     H_    0.934407 0.451183 0.141169 0.122915
H27   H     H_    0.390095 0.927077 0.995264 0.111090
H28   H     H_    0.890107 0.427065 0.995270 0.110996
H29   H     H_    0.646878 0.094209 0.141108 0.318060
H30   H     H_    0.146805 0.594299 0.141118 0.318165
H31   H     H_    0.882875 0.271480 0.532533 0.120704
H32   H     H_    0.608121 0.078315 0.002159 0.094260
H33   H     H_    0.108051 0.578398 0.002166 0.094332
H34   H     H_    0.395852 0.936507 0.833518 0.121076
H35   H     H_    0.895869 0.436484 0.833523 0.120733
H36   H     H_    0.561453 0.057052 0.856621 0.110517
O1    O     O_3   0.500000 0.000000 0.500000 -0.445563
O2    O     O_R   0.135640 0.430410 0.463140 -0.542070
O3    O     O_R   0.456890 0.000000 0.295720 -0.557707
O4    O     O_R   0.956890 0.500000 0.295720 -0.560886
O5    O     O_R   0.488070 0.049450 0.698020 -0.539718
O6    O     O_R   0.488070 0.950550 0.698020 -0.543053
O7    O     O_R   0.988070 0.549450 0.698020 -0.542935
O8    O     O_R   0.988070 0.450550 0.698020 -0.540155
O9    O     O_R   0.370630 0.069610 0.433010 -0.543984
O10   O     O_R   0.370630 0.930390 0.433010 -0.547801
O11   O     O_R   0.870630 0.569610 0.433010 -0.545257
O12   O     O_3   0.000000 0.500000 0.500000 -0.445425
O13   O     O_R   0.870630 0.430390 0.433010 -0.545873
O14   O     O_R   0.574320 0.880940 0.560740 -0.541150
O15   O     O_R   0.574320 0.119060 0.560740 -0.545011
O16   O     O_R   0.074320 0.380940 0.560740 -0.541520
O17   O     O_R   0.074320 0.619060 0.560740 -0.542930
O18   O     O_R   0.566990 0.000000 0.308240 -0.483365
O19   O     O_R   0.066990 0.500000 0.308240 -0.480699
O20   O     O_3   0.615941 0.070854 0.178731 -0.675502
O21   O     O_3   0.115886 0.570923 0.178738 -0.675449
O22   O     O_R   0.419410 0.880950 0.543120 -0.544909
O23   O     O_R   0.419410 0.119050 0.543120 -0.543130
O24   O     O_R   0.919410 0.380950 0.543120 -0.546393
O25   O     O_R   0.919410 0.619050 0.543120 -0.543558
O26   O     O_R   0.635640 0.069590 0.463140 -0.525537
O27   O     O_R   0.635640 0.930410 0.463140 -0.542960
O28   O     O_R   0.135640 0.569590 0.463140 -0.527309
Zn1   Zn    Zn3+2 0.583120 0.000000 0.434770 0.972054
Zn2   Zn    Zn3+2 0.083120 0.500000 0.434770 0.973272
Zn3   Zn    Zn3+2 0.425830 0.000000 0.416880 0.933790
Zn4   Zn    Zn3+2 0.925830 0.500000 0.416880 0.932417
Zn5   Zn    Zn3+2 0.495530 0.070660 0.574170 0.936168
Zn6   Zn    Zn3+2 0.495530 0.929340 0.574170 0.930216
Zn7   Zn    Zn3+2 0.995530 0.570660 0.574170 0.935066
Zn8   Zn    Zn3+2 0.995530 0.429340 0.574170 0.931375

loop_
_geom_bond_atom_site_label_1
_geom_bond_atom_site_label_2
_ccdc_geom_bond_type
C58   C62   A    
C47   O6    A    
C21   C26   A    
O18   Zn1   S    
O24   Zn8   S    
C12   O23   A    
C46   O4    A    
O4    Zn4   S    
O12   Zn8   S    
C59   H10   S    
C64   H18   S    
C4    C8    A    
C28   H2    S    
C33   C36   A    
O26   Zn1   S    
C12   C49   S    
C19   C46   S    
O3    Zn3   S    
C60   H7    S    
C2    C6    A    
C27   C33   A    
C44   O18   A    
C34   C51   S    
C32   O2    A    
C17   H13   S    
C33   C42   A    
O6    Zn6   S    
O13   Zn4   S    
C35   C37   A    
C24   C26   A    
C5    C72   A    
C3    C7    A    
C10   C15   A    
C47   O5    A    
C54   C68   A    
C20   C25   A    
C60   C72   A    
C61   H8    S    
C40   O20   S    
H29   O20   S    
O1    Zn1   S    
C67   C72   A    
C43   H33   S    
C18   C40   A    
C11   H5    S    
O8    Zn8   S    
C10   H4    S    
C32   O16   A    
C30   O14   A    
C28   C35   A    
C22   C25   A    
C14   C67   A    
H30   O21   S    
C70   C71   A    
O12   Zn4   S    
O19   Zn2   S    
C57   C70   A    
C35   C43   A    
C1    C50   S    
C8    C52   A    
C32   C55   S    
O23   Zn5   S    
C2    C61   A    
C48   O8    A    
C21   C48   S    
C40   C42   A    
C29   O26   A    
O27   Zn1   S    
C4    C56   A    
C41   C43   A    
C63   H17   S    
O1    Zn3   S    
O9    Zn3   S    
O12   Zn7   S    
C38   H25   S    
C25   H34   S    
C30   C53   S    
O7    Zn7   S    
O25   Zn7   S    
C6    H12   S    
C46   O19   A    
O2    Zn2   S    
C9    C49   A    
C14   H14   S    
C23   O13   A    
C1    O22   A    
C58   H9    S    
C39   H26   S    
C66   H20   S    
C34   O25   A    
C56   C68   A    
C62   H16   S    
C3    C45   A    
C16   H11   S    
C67   C69   A    
C16   C45   A    
C70   H24   S    
C9    C14   A    
C3    C58   A    
C18   C44   S    
C13   C52   A    
C11   C16   A    
C55   C64   A    
O15   Zn5   S    
C24   C37   A    
C19   C41   A    
C6    C50   A    
C53   C66   A    
C17   C56   A    
C55   C69   A    
C19   C39   A    
C48   O7    A    
O28   Zn2   S    
C21   C28   A    
C69   H22   S    
O12   Zn2   S    
O11   Zn4   S    
O10   Zn3   S    
C10   C50   A    
C15   C71   A    
C31   O17   A    
C15   H15   S    
C34   O11   A    
C65   H19   S    
C13   H6    S    
C22   H27   S    
C24   H28   S    
C57   C65   A    
C31   O28   A    
C42   H32   S    
C26   H35   S    
C7    H23   S    
C29   C54   S    
C20   C27   A    
C22   C36   A    
C59   C63   A    
C68   H21   S    
C13   C17   A    
C60   C64   A    
C31   C57   S    
C36   C38   A    
C18   C38   A    
C7    C51   A    
C37   C39   A    
C41   O21   S    
C23   C52   S    
C27   H36   S    
O17   Zn7   S    
C29   O15   A    
C4    C59   A    
O5    Zn5   S    
C23   O24   A    
C1    O10   A    
C5    H1    S    
O22   Zn6   S    
C8    H31   S    
C5    C49   A    
C20   C47   S    
C11   C51   A    
C12   O9    A    
C44   O3    A    
C61   C65   A    
C53   C62   A    
C30   O27   A    
C54   C63   A    
C45   C66   A    
O14   Zn6   S    
O16   Zn8   S    
O1    Zn5   S    
C9    H3    S    
C2    C71   A    
O1    Zn6   S    
