data_mof_unit_5558.cif
_audit_creation_date              2013-03-05T15:50:08-0500
_audit_creation_method            fapswitch 2.2
_symmetry_space_group_name_H-M    P1
_symmetry_Int_Tables_number       1
_space_group_crystal_system       triclinic
_cell_length_a                    18.311857
_cell_length_b                    25.987728
_cell_length_c                    18.316161
_cell_angle_alpha                 89.63512
_cell_angle_beta                  90.243788
_cell_angle_gamma                 89.991754
_cell_volume                      8716.10410514

loop_
_atom_site_label
_atom_site_type_symbol
_atom_site_description
_atom_site_fract_x
_atom_site_fract_y
_atom_site_fract_z
_atom_type_partial_charge
Zn1   Zn    Zn3+2 0.249990 0.293780 0.913250 0.939542
Zn2   Zn    Zn3+2 0.249990 0.706220 0.086750 0.953038
Zn3   Zn    Zn3+2 0.249990 0.706220 0.913250 0.962569
Zn4   Zn    Zn3+2 0.249990 0.293780 0.086750 0.978401
Zn5   Zn    Zn3+2 0.749990 0.793780 0.413250 0.939542
Zn6   Zn    Zn3+2 0.749990 0.206220 0.586750 0.953048
Zn7   Zn    Zn3+2 0.749990 0.206220 0.413250 0.962561
Zn8   Zn    Zn3+2 0.749990 0.793780 0.586750 0.978407
Zn9   Zn    Zn3+2 0.336760 0.206240 0.000000 0.993692
Zn10  Zn    Zn3+2 0.336760 0.793760 0.000000 0.988645
Zn11  Zn    Zn3+2 0.836760 0.706240 0.500000 0.993668
Zn12  Zn    Zn3+2 0.836760 0.293760 0.500000 0.988641
Zn13  Zn    Zn3+2 0.163250 0.206230 0.000000 0.995124
Zn14  Zn    Zn3+2 0.163250 0.793770 0.000000 0.997104
Zn15  Zn    Zn3+2 0.663250 0.706230 0.500000 0.995127
Zn16  Zn    Zn3+2 0.663250 0.293770 0.500000 0.996994
O1    O     O_3   0.249990 0.250010 0.000000 -0.484732
O2    O     O_3   0.249990 0.749990 0.000000 -0.482658
O3    O     O_3   0.749990 0.750010 0.500000 -0.484743
O4    O     O_3   0.749990 0.249990 0.500000 -0.482630
O5    O     O_R   0.335430 0.280650 0.146160 -0.634036
O6    O     O_R   0.335430 0.719350 0.853840 -0.632238
O7    O     O_R   0.335430 0.719350 0.146160 -0.644328
O8    O     O_R   0.335430 0.280650 0.853840 -0.651886
O9    O     O_R   0.835430 0.780650 0.646160 -0.633999
O10   O     O_R   0.835430 0.219350 0.353840 -0.632252
O11   O     O_R   0.835430 0.219350 0.646160 -0.644338
O12   O     O_R   0.835430 0.780650 0.353840 -0.651888
O13   O     O_R   0.164550 0.280640 0.853840 -0.636668
O14   O     O_R   0.164550 0.719360 0.146160 -0.654282
O15   O     O_R   0.164550 0.719360 0.853840 -0.638501
O16   O     O_R   0.164550 0.280640 0.146160 -0.643338
O17   O     O_R   0.664550 0.780640 0.353840 -0.636661
O18   O     O_R   0.664550 0.219360 0.646160 -0.654266
O19   O     O_R   0.664550 0.219360 0.353840 -0.638497
O20   O     O_R   0.664550 0.780640 0.646160 -0.643329
O21   O     O_R   0.396160 0.219380 0.914560 -0.641868
O22   O     O_R   0.396160 0.780620 0.085440 -0.623447
O23   O     O_R   0.396160 0.780620 0.914560 -0.656298
O24   O     O_R   0.396160 0.219380 0.085440 -0.620515
O25   O     O_R   0.896160 0.719380 0.414560 -0.641834
O26   O     O_R   0.896160 0.280620 0.585440 -0.623452
O27   O     O_R   0.896160 0.280620 0.414560 -0.656329
O28   O     O_R   0.896160 0.719380 0.585440 -0.620549
O29   O     O_R   0.103840 0.219370 0.085450 -0.615795
O30   O     O_R   0.103840 0.780630 0.914550 -0.647169
O31   O     O_R   0.103840 0.780630 0.085450 -0.610269
O32   O     O_R   0.103840 0.219370 0.914550 -0.647768
O33   O     O_R   0.603840 0.719370 0.585450 -0.615712
O34   O     O_R   0.603840 0.280630 0.414550 -0.647239
O35   O     O_R   0.603840 0.280630 0.585450 -0.610381
O36   O     O_R   0.603840 0.719370 0.414550 -0.647749
O37   O     O_R   0.310730 0.133160 0.000000 -0.619981
O38   O     O_R   0.310730 0.866840 0.000000 -0.622388
O39   O     O_R   0.810730 0.633160 0.500000 -0.620035
O40   O     O_R   0.810730 0.366840 0.500000 -0.622387
O41   O     O_R   0.249970 0.366860 0.060720 -0.631756
O42   O     O_R   0.249970 0.633140 0.939280 -0.633923
O43   O     O_R   0.249970 0.633140 0.060720 -0.668650
O44   O     O_R   0.249970 0.366860 0.939280 -0.666866
O45   O     O_R   0.749970 0.866860 0.560720 -0.631756
O46   O     O_R   0.749970 0.133140 0.439280 -0.633919
O47   O     O_R   0.749970 0.133140 0.560720 -0.668651
O48   O     O_R   0.749970 0.866860 0.439280 -0.666864
O49   O     O_R   0.189290 0.133150 0.000000 -0.612635
O50   O     O_R   0.189290 0.866850 0.000000 -0.610737
O51   O     O_R   0.689290 0.633150 0.500000 -0.612626
O52   O     O_R   0.689290 0.366850 0.500000 -0.610765
C1    C     C_R   0.389916 0.249931 0.139568 0.804646
C2    C     C_R   0.390433 0.749963 0.860641 0.784838
C3    C     C_R   0.389619 0.750132 0.140169 0.807528
C4    C     C_R   0.390007 0.250136 0.860307 0.769588
C5    C     C_R   0.889920 0.749935 0.639563 0.804542
C6    C     C_R   0.890432 0.249964 0.360640 0.784813
C7    C     C_R   0.889619 0.250132 0.640168 0.807526
C8    C     C_R   0.890007 0.750138 0.360307 0.769589
C9    C     C_R   0.109850 0.250524 0.860889 0.783055
C10   C     C_R   0.110083 0.749849 0.139781 0.823448
C11   C     C_R   0.110389 0.750104 0.860240 0.775623
C12   C     C_R   0.110039 0.250072 0.139496 0.816204
C13   C     C_R   0.609851 0.750523 0.360888 0.783064
C14   C     C_R   0.610068 0.249839 0.639767 0.823446
C15   C     C_R   0.610393 0.250108 0.360236 0.775632
C16   C     C_R   0.610037 0.750073 0.639494 0.816259
C17   C     C_R   0.249966 0.109265 0.001439 0.880369
C18   C     C_R   0.249936 0.890728 0.001653 0.880258
C19   C     C_R   0.749968 0.609265 0.501449 0.880317
C20   C     C_R   0.749939 0.390727 0.501657 0.880228
C21   C     C_R   0.255483 0.390995 0.999680 0.747942
C22   C     C_R   0.251769 0.608508 0.000875 0.768265
C23   C     C_R   0.755484 0.890996 0.499680 0.747915
C24   C     C_R   0.751763 0.108508 0.500875 0.768285
C25   C     C_3   0.196238 0.468139 0.042574 -0.406239
C26   C     C_3   0.244261 0.530002 0.924544 -0.399722
C27   C     C_3   0.195560 0.526814 0.048355 -0.454039
C28   C     C_3   0.251204 0.471153 0.921141 -0.429254
C29   C     C_3   0.696232 0.968139 0.542570 -0.406224
C30   C     C_3   0.744258 0.030003 0.424544 -0.399733
C31   C     C_3   0.695551 0.026814 0.548351 -0.454052
C32   C     C_3   0.751205 0.971155 0.421142 -0.429257
H1    H     H_    0.188520 0.449272 0.096294 0.181928
H2    H     H_    0.276768 0.548894 0.881377 0.194967
H3    H     H_    0.191797 0.537294 0.105757 0.160701
H4    H     H_    0.292887 0.460001 0.881193 0.172589
H5    H     H_    0.688508 0.949270 0.596288 0.181923
H6    H     H_    0.776762 0.048896 0.381376 0.194964
H7    H     H_    0.691782 0.037294 0.605753 0.160696
H8    H     H_    0.792889 0.960004 0.381194 0.172602
H9    H     H_    0.145493 0.456456 0.013102 0.164789
H10   H     H_    0.187402 0.540404 0.908148 0.180938
H11   H     H_    0.142779 0.541360 0.025783 0.166581
H12   H     H_    0.199529 0.455544 0.897763 0.194273
H13   H     H_    0.645490 0.956456 0.513093 0.164787
H14   H     H_    0.687398 0.040402 0.408147 0.180934
H15   H     H_    0.642771 0.041359 0.525776 0.166585
H16   H     H_    0.699532 0.955543 0.397761 0.194269
H17   H     H_    0.262487 0.905550 0.867175 0.106111
H18   H     H_    0.262291 0.095552 0.866975 0.106024
H19   H     H_    0.763319 0.405553 0.367277 0.106269
H20   H     H_    0.763111 0.595553 0.367080 0.106179
C33   C     C_3   0.343355 0.467932 0.031286 -0.032445
C34   C     C_3   0.340161 0.532201 0.033905 -0.012824
C35   C     C_3   0.843351 0.967938 0.531292 -0.032439
C36   C     C_3   0.840153 0.032208 0.533911 -0.012836
C37   C     C_3   0.264103 0.448514 0.999219 0.123448
C38   C     C_3   0.259682 0.550518 0.003810 0.121328
C39   C     C_3   0.764101 0.948516 0.499220 0.123450
C40   C     C_3   0.759676 0.050520 0.503810 0.121340
H21   H     H_    0.905584 0.357992 0.938881 0.129524
H22   H     H_    0.871765 0.713524 0.028346 0.139355
H23   H     H_    0.904896 0.644614 0.941638 0.128630
H24   H     H_    0.870707 0.281102 0.026464 0.140894
H25   H     H_    0.405676 0.858108 0.438796 0.129499
H26   H     H_    0.371559 0.214201 0.528208 0.139513
H27   H     H_    0.404726 0.144884 0.441847 0.128761
H28   H     H_    0.370729 0.781257 0.526484 0.140868
C41   C     C_R   0.128736 0.191589 0.731522 -0.149040
C42   C     C_R   0.147741 0.768863 0.289923 -0.116285
C43   C     C_R   0.131628 0.804997 0.725691 -0.147932
C44   C     C_R   0.148619 0.233855 0.289870 -0.113873
C45   C     C_R   0.628677 0.691512 0.231580 -0.149006
C46   C     C_R   0.647756 0.268744 0.789931 -0.116324
C47   C     C_R   0.631682 0.304918 0.225626 -0.147918
C48   C     C_R   0.648609 0.733790 0.789853 -0.113880
C49   C     C_R   0.139137 0.163755 0.667719 -0.169022
C50   C     C_R   0.167254 0.775997 0.362621 -0.167608
C51   C     C_R   0.142483 0.831648 0.660386 -0.163868
C52   C     C_R   0.169792 0.231800 0.362801 -0.153173
C53   C     C_R   0.639050 0.663640 0.167805 -0.168929
C54   C     C_R   0.667290 0.275803 0.862640 -0.167694
C55   C     C_R   0.642554 0.331535 0.160296 -0.163858
C56   C     C_R   0.669781 0.731695 0.862783 -0.153108
C57   C     C_R   0.587261 0.665977 0.112309 -0.153269
C58   C     C_R   0.614320 0.274693 0.916358 -0.156987
C59   C     C_R   0.590720 0.328878 0.104850 -0.168054
C60   C     C_R   0.618470 0.738789 0.917030 -0.166322
C61   C     C_R   0.087340 0.166084 0.612232 -0.153287
C62   C     C_R   0.114279 0.774893 0.416334 -0.156968
C63   C     C_R   0.090660 0.828987 0.604930 -0.168089
C64   C     C_R   0.118473 0.238878 0.417043 -0.166323
C65   C     C_R   0.524234 0.695424 0.121107 -0.149389
C66   C     C_R   0.541417 0.267057 0.897612 -0.146364
C67   C     C_R   0.527464 0.299874 0.114588 -0.172206
C68   C     C_R   0.545470 0.746504 0.898583 -0.167567
C69   C     C_R   0.024278 0.195488 0.621061 -0.149420
C70   C     C_R   0.041387 0.767188 0.397595 -0.146366
C71   C     C_R   0.027433 0.799944 0.614632 -0.172206
C72   C     C_R   0.045466 0.246547 0.398589 -0.167523
C73   C     C_R   0.511257 0.722568 0.186088 0.076570
C74   C     C_R   0.520139 0.257993 0.824165 0.056364
C75   C     C_R   0.513806 0.274160 0.181601 0.058664
C76   C     C_R   0.521760 0.747874 0.824614 0.066743
C77   C     C_R   0.011280 0.222602 0.686064 0.076581
C78   C     C_R   0.020131 0.758065 0.324161 0.056352
C79   C     C_R   0.013788 0.774200 0.681624 0.058679
C80   C     C_R   0.021759 0.247898 0.324618 0.066738
C81   C     C_R   0.064940 0.221632 0.741368 0.074175
C82   C     C_R   0.074321 0.758525 0.269537 0.079123
C83   C     C_R   0.067164 0.776029 0.737393 0.071813
C84   C     C_R   0.075039 0.244066 0.269501 0.070652
C85   C     C_R   0.564914 0.721595 0.241396 0.074128
C86   C     C_R   0.574323 0.258455 0.769536 0.079179
C87   C     C_R   0.567190 0.275989 0.237362 0.071818
C88   C     C_R   0.575036 0.744036 0.769494 0.070665
C89   C     C_R   0.445702 0.750182 0.196890 -0.164104
C90   C     C_R   0.446171 0.249698 0.804204 -0.170429
C91   C     C_R   0.446588 0.249265 0.195356 -0.160942
C92   C     C_R   0.446808 0.751916 0.804431 -0.162995
C93   C     C_R   0.945701 0.250183 0.696889 -0.164100
C94   C     C_R   0.946176 0.749712 0.304205 -0.170356
C95   C     C_R   0.946593 0.749264 0.695349 -0.160856
C96   C     C_R   0.946806 0.251915 0.304430 -0.163038
C97   C     C_R   0.433811 0.777773 0.262002 0.062033
C98   C     C_R   0.426012 0.240295 0.730759 0.080808
C99   C     C_R   0.433830 0.223353 0.262159 0.065156
C100  C     C_R   0.425940 0.758492 0.730289 0.076343
C101  C     C_R   0.933789 0.277745 0.762020 0.062029
C102  C     C_R   0.926046 0.740219 0.230777 0.080820
C103  C     C_R   0.933868 0.723293 0.762111 0.065123
C104  C     C_R   0.925935 0.258460 0.230284 0.076338
C105  C     C_R   0.988825 0.278599 0.816165 0.075459
C106  C     C_R   0.980347 0.740287 0.176220 0.067766
C107  C     C_R   0.988878 0.722655 0.816276 0.076975
C108  C     C_R   0.980059 0.258148 0.175545 0.068566
C109  C     C_R   0.488852 0.778631 0.316143 0.075464
C110  C     C_R   0.480293 0.240413 0.676181 0.067715
C111  C     C_R   0.488839 0.222722 0.316324 0.076983
C112  C     C_R   0.480063 0.758182 0.675549 0.068547
C113  C     C_R   0.053755 0.250437 0.805209 -0.150755
C114  C     C_R   0.054038 0.749722 0.195966 -0.169839
C115  C     C_R   0.054400 0.749933 0.804015 -0.148048
C116  C     C_R   0.053985 0.249950 0.195530 -0.168515
C117  C     C_R   0.553757 0.750436 0.305209 -0.150738
C118  C     C_R   0.554017 0.249728 0.695948 -0.169894
C119  C     C_R   0.554401 0.249938 0.304015 -0.148085
C120  C     C_R   0.553984 0.749951 0.695528 -0.168461
C121  C     C_R   0.368390 0.805286 0.273944 -0.133223
C122  C     C_R   0.352766 0.229167 0.710595 -0.142266
C123  C     C_R   0.367693 0.196898 0.275550 -0.128724
C124  C     C_R   0.352285 0.767856 0.709500 -0.140873
C125  C     C_R   0.868351 0.305238 0.773974 -0.133244
C126  C     C_R   0.852821 0.729023 0.210618 -0.142427
C127  C     C_R   0.867766 0.696783 0.775458 -0.128820
C128  C     C_R   0.852274 0.267791 0.209486 -0.140913
C129  C     C_R   0.358711 0.834218 0.336972 -0.140483
C130  C     C_R   0.333566 0.220611 0.638082 -0.153981
C131  C     C_R   0.357619 0.168719 0.339682 -0.142191
C132  C     C_R   0.332790 0.774903 0.636575 -0.152614
C133  C     C_R   0.858646 0.334136 0.837029 -0.140424
C134  C     C_R   0.833686 0.720249 0.138139 -0.154011
C135  C     C_R   0.857733 0.668538 0.839539 -0.141975
C136  C     C_R   0.832773 0.274789 0.136555 -0.152674
C137  C     C_R   0.913227 0.335530 0.889931 -0.167331
C138  C     C_R   0.886876 0.720644 0.084518 -0.149140
C139  C     C_R   0.912563 0.666927 0.892160 -0.168514
C140  C     C_R   0.885944 0.274783 0.082960 -0.150951
C141  C     C_R   0.413299 0.835622 0.389866 -0.167297
C142  C     C_R   0.386721 0.221121 0.584422 -0.149285
C143  C     C_R   0.412436 0.167129 0.392315 -0.168608
C144  C     C_R   0.385961 0.774900 0.582976 -0.150895
C145  C     C_R   0.977616 0.307873 0.880125 -0.148681
C146  C     C_R   0.959569 0.729522 0.103116 -0.145877
C147  C     C_R   0.977252 0.694117 0.881364 -0.146479
C148  C     C_R   0.958875 0.267489 0.101963 -0.144735
C149  C     C_R   0.477669 0.807938 0.380078 -0.148665
C150  C     C_R   0.459447 0.229848 0.603027 -0.146013
C151  C     C_R   0.477168 0.194257 0.381466 -0.146562
C152  C     C_R   0.458886 0.767562 0.601973 -0.144729
H29   H     H_    0.170905 0.189048 0.772970 0.109054
H30   H     H_    0.191155 0.771766 0.250454 0.165358
H31   H     H_    0.173553 0.808157 0.767243 0.107089
H32   H     H_    0.190801 0.226987 0.250111 0.163636
H33   H     H_    0.670842 0.688968 0.273032 0.109066
H34   H     H_    0.691168 0.271675 0.750463 0.165412
H35   H     H_    0.673614 0.308077 0.267170 0.107108
H36   H     H_    0.690784 0.726923 0.750086 0.163680
H37   H     H_    0.187861 0.140686 0.661079 0.125390
H38   H     H_    0.223694 0.782680 0.377358 0.141388
H39   H     H_    0.191307 0.854517 0.652833 0.125737
H40   H     H_    0.226280 0.224925 0.377314 0.141812
H41   H     H_    0.687743 0.640535 0.161191 0.125375
H42   H     H_    0.723740 0.282440 0.877380 0.141415
H43   H     H_    0.691399 0.354377 0.152716 0.125791
H44   H     H_    0.726263 0.724778 0.877288 0.141845
H45   H     H_    0.596171 0.644846 0.062466 0.135602
H46   H     H_    0.629807 0.280320 0.972728 0.146621
H47   H     H_    0.599112 0.349927 0.054412 0.140076
H48   H     H_    0.634977 0.737356 0.973853 0.147202
H49   H     H_    0.096270 0.144982 0.562369 0.135599
H50   H     H_    0.129752 0.780575 0.472692 0.146589
H51   H     H_    0.099035 0.850066 0.554514 0.140059
H52   H     H_    0.134979 0.237469 0.473866 0.147182
H53   H     H_    0.485475 0.697264 0.077010 0.101747
H54   H     H_    0.502458 0.269043 0.941523 0.146396
H55   H     H_    0.488231 0.299590 0.070286 0.118024
H56   H     H_    0.508938 0.750330 0.944015 0.163984
H57   H     H_    0.985510 0.197320 0.576972 0.101769
H58   H     H_    0.002416 0.769165 0.441496 0.146311
H59   H     H_    0.988210 0.799652 0.570321 0.118008
H60   H     H_    0.008932 0.250359 0.444022 0.164000
H61   H     H_    0.324351 0.804701 0.234699 0.160385
H62   H     H_    0.309390 0.226343 0.750208 0.138808
H63   H     H_    0.323580 0.197353 0.236356 0.159518
H64   H     H_    0.308849 0.771032 0.748881 0.138570
H65   H     H_    0.824321 0.304668 0.734716 0.160373
H66   H     H_    0.809421 0.726288 0.250213 0.138828
H67   H     H_    0.823653 0.697238 0.736261 0.159505
H68   H     H_    0.808835 0.270975 0.248860 0.138606
H69   H     H_    0.808584 0.355535 0.844822 0.142467
H70   H     H_    0.777420 0.712617 0.123576 0.141386
H71   H     H_    0.807315 0.647672 0.848235 0.144031
H72   H     H_    0.776264 0.281043 0.121607 0.144408
H73   H     H_    0.308663 0.855637 0.344751 0.142361
H74   H     H_    0.277277 0.213069 0.623518 0.141492
H75   H     H_    0.307174 0.147893 0.348412 0.143944
H76   H     H_    0.276286 0.781193 0.621634 0.144388
H77   H     H_    0.018494 0.309928 0.922857 0.108973
H78   H     H_    0.998813 0.727304 0.059395 0.132794
H79   H     H_    0.018221 0.691963 0.924028 0.109754
H80   H     H_    0.997939 0.270007 0.058105 0.135696
H81   H     H_    0.518552 0.809996 0.422805 0.108962
H82   H     H_    0.498644 0.227691 0.559254 0.133178
H83   H     H_    0.518130 0.192114 0.424137 0.109794
H84   H     H_    0.497955 0.770077 0.558116 0.135625
H85   H     H_    0.272572 0.048516 0.753751 0.126048
H86   H     H_    0.272738 0.953500 0.753857 0.126459
H87   H     H_    0.774095 0.548520 0.253944 0.126144
H88   H     H_    0.774267 0.453505 0.254049 0.126549
C153  C     C_R   0.233920 0.053473 0.141742 0.257835
C154  C     C_R   0.232454 0.945533 0.141726 0.258195
C155  C     C_R   0.733255 0.553470 0.641666 0.257943
C156  C     C_R   0.731844 0.445528 0.641649 0.258327
C157  C     C_R   0.226413 0.025688 0.206283 -0.202463
C158  C     C_R   0.225607 0.972836 0.206267 -0.201311
C159  C     C_R   0.725227 0.525685 0.706134 -0.202660
C160  C     C_R   0.724451 0.472833 0.706117 -0.201361
C161  C     C_R   0.241122 0.972181 0.073028 -0.014980
C162  C     C_R   0.241573 0.027307 0.073010 -0.014480
C163  C     C_R   0.740815 0.472179 0.572994 -0.015024
C164  C     C_R   0.741248 0.527305 0.572977 -0.014488
C165  C     C_R   0.249433 0.946269 0.004960 -0.134749
C166  C     C_R   0.249638 0.053722 0.004860 -0.134703
C167  C     C_R   0.749468 0.446269 0.504973 -0.134817
C168  C     C_R   0.749665 0.553721 0.504876 -0.134754
C169  C     C_R   0.256340 0.973254 0.938132 0.065831
C170  C     C_R   0.256326 0.027272 0.938073 0.065421
C171  C     C_R   0.756772 0.473255 0.438197 0.065866
C172  C     C_R   0.756756 0.527272 0.438139 0.065471
C173  C     C_R   0.262498 0.947108 0.870452 -0.148950
C174  C     C_R   0.262371 0.053966 0.870334 -0.150179
C175  C     C_R   0.763322 0.447111 0.370561 -0.149001
C176  C     C_R   0.763190 0.553967 0.370445 -0.150208
C177  C     C_R   0.268323 0.974117 0.804838 -0.135753
C178  C     C_R   0.268232 0.027488 0.804777 -0.137584
C179  C     C_R   0.769545 0.474120 0.304995 -0.135817
C180  C     C_R   0.769451 0.527491 0.304934 -0.137623
H89   H     H_    0.220733 0.045375 0.257935 0.173414
H90   H     H_    0.219215 0.952768 0.257899 0.171479
H91   H     H_    0.719226 0.545371 0.757745 0.173458
H92   H     H_    0.717765 0.452766 0.757708 0.171587
Br1   Br    Br    0.232004 0.126528 0.159477 -0.602537
Br2   Br    Br    0.227477 0.872414 0.159340 -0.600836
Br3   Br    Br    0.731721 0.626524 0.659465 -0.602638
Br4   Br    Br    0.727361 0.372402 0.659330 -0.600761
C181  C     C_R   0.353015 0.443109 0.110551 0.119245
C182  C     C_R   0.409609 0.407332 0.127742 -0.152282
C183  C     C_R   0.421770 0.390112 0.199316 -0.115288
C184  C     C_R   0.375321 0.404240 0.255279 -0.090507
C185  C     C_R   0.317476 0.437031 0.240413 -0.126329
C186  C     C_R   0.307039 0.456453 0.169974 -0.098300
H93   H     H_    0.446594 0.392729 0.087315 0.140532
H94   H     H_    0.468089 0.366223 0.212113 0.150076
H95   H     H_    0.384796 0.390310 0.310329 0.133244
H96   H     H_    0.281825 0.448986 0.284152 0.130809
H97   H     H_    0.265366 0.484937 0.165002 0.119555
C187  C     C_R   0.395000 0.560307 0.979384 0.073952
C188  C     C_R   0.429792 0.606911 0.999244 -0.159153
C189  C     C_R   0.479796 0.631172 0.953025 -0.169238
C190  C     C_R   0.494000 0.612230 0.883961 -0.092147
C191  C     C_R   0.457598 0.568765 0.860333 -0.123683
C192  C     C_R   0.408782 0.543618 0.906597 -0.121282
H98   H     H_    0.418628 0.625307 0.050583 0.143770
H99   H     H_    0.508121 0.664813 0.970719 0.118554
H100  H     H_    0.532713 0.631483 0.848619 0.147800
H101  H     H_    0.467604 0.554040 0.806125 0.142127
H102  H     H_    0.384191 0.510032 0.884059 0.143471
C193  C     C_R   0.362188 0.551748 0.115129 0.050297
C194  C     C_R   0.316977 0.579865 0.164176 -0.099360
C195  C     C_R   0.344124 0.603421 0.227182 -0.110275
C196  C     C_R   0.416548 0.597282 0.247390 -0.112834
C197  C     C_R   0.460334 0.564649 0.207303 -0.119341
C198  C     C_R   0.432990 0.541170 0.144451 -0.151283
H103  H     H_    0.259687 0.583974 0.158851 0.149695
H104  H     H_    0.308134 0.625977 0.261150 0.138835
H105  H     H_    0.437513 0.615481 0.296168 0.140674
H106  H     H_    0.515264 0.556234 0.225980 0.139920
H107  H     H_    0.466985 0.511780 0.124153 0.127654
C199  C     C_R   0.411819 0.447579 0.983787 0.041897
C200  C     C_R   0.407384 0.408431 0.929910 -0.219479
C201  C     C_R   0.468493 0.388167 0.894855 -0.131279
C202  C     C_R   0.537849 0.405713 0.911566 -0.115913
C203  C     C_R   0.545731 0.445310 0.961049 -0.156860
C204  C     C_R   0.484520 0.466277 0.995107 -0.129577
H108  H     H_    0.358303 0.393626 0.909349 0.177701
H109  H     H_    0.461530 0.359137 0.853365 0.149055
H110  H     H_    0.585065 0.390029 0.884158 0.145980
H111  H     H_    0.599394 0.461257 0.971366 0.125093
H112  H     H_    0.496311 0.500729 0.023286 0.132826
C205  C     C_R   0.853011 0.943120 0.610559 0.119255
C206  C     C_R   0.807023 0.956459 0.669976 -0.098285
C207  C     C_R   0.817460 0.937045 0.740419 -0.126315
C208  C     C_R   0.875320 0.904270 0.755297 -0.090492
C209  C     C_R   0.921784 0.890150 0.699342 -0.115295
C210  C     C_R   0.909622 0.907360 0.627762 -0.152352
H113  H     H_    0.765343 0.984937 0.664998 0.119548
H114  H     H_    0.781800 0.948996 0.784152 0.130809
H115  H     H_    0.884797 0.890348 0.810350 0.133268
H116  H     H_    0.968117 0.866277 0.712152 0.150131
H117  H     H_    0.946621 0.892768 0.587342 0.140525
C211  C     C_R   0.894994 0.060318 0.479393 0.073947
C212  C     C_R   0.908771 0.043632 0.406604 -0.121287
C213  C     C_R   0.957574 0.068784 0.360333 -0.123599
C214  C     C_R   0.993968 0.112254 0.383955 -0.092097
C215  C     C_R   0.979772 0.131192 0.453022 -0.169223
C216  C     C_R   0.929785 0.106923 0.499252 -0.159121
H118  H     H_    0.884185 0.010043 0.384067 0.143493
H119  H     H_    0.967575 0.054062 0.306123 0.142166
H120  H     H_    0.032668 0.131513 0.348606 0.147797
H121  H     H_    0.008090 0.164838 0.470705 0.118521
H122  H     H_    0.918631 0.125317 0.550596 0.143776
C217  C     C_R   0.862174 0.051757 0.615138 0.050314
C218  C     C_R   0.932975 0.041185 0.644464 -0.151290
C219  C     C_R   0.960311 0.064666 0.707318 -0.119363
C220  C     C_R   0.916515 0.097293 0.747405 -0.112856
C221  C     C_R   0.844092 0.103425 0.727193 -0.110264
C222  C     C_R   0.816954 0.079867 0.664184 -0.099308
H123  H     H_    0.966977 0.011799 0.624169 0.127648
H124  H     H_    0.015241 0.056256 0.725999 0.139937
H125  H     H_    0.937474 0.115493 0.796185 0.140677
H126  H     H_    0.808095 0.125976 0.761159 0.138818
H127  H     H_    0.759664 0.083973 0.658855 0.149674
C223  C     C_R   0.911818 0.947590 0.483791 0.041937
C224  C     C_R   0.984516 0.966296 0.495107 -0.129632
C225  C     C_R   0.045724 0.945359 0.461008 -0.156895
C226  C     C_R   0.037840 0.905785 0.411488 -0.115694
C227  C     C_R   0.968488 0.888224 0.394797 -0.131295
C228  C     C_R   0.907384 0.908453 0.429900 -0.219557
H128  H     H_    0.996305 0.000737 0.523310 0.132829
H129  H     H_    0.099382 0.961314 0.471317 0.125104
H130  H     H_    0.085052 0.890130 0.384042 0.146078
H131  H     H_    0.961521 0.859209 0.353287 0.149091
H132  H     H_    0.858305 0.893631 0.409362 0.177702

loop_
_geom_bond_atom_site_label_1
_geom_bond_atom_site_label_2
_geom_bond_distance
_ccdc_geom_bond_type
C48   C88   1.421065 A    
C188  C189  1.397349 A    
C32   C39   1.559956 S    
C129  C141  1.389742 A    
C226  C227  1.383186 A    
C172  C176  1.422255 A    
C21   C37   1.503096 S    
C177  C178  1.386995 A    
C62   C70   1.391612 A    
O26   C7    1.279786 A    
C203  C204  1.397324 A    
C23   C39   1.503127 S    
C75   C87   1.411777 A    
C159  H91   1.083723 S    
C109  C149  1.416582 A    
O30   C11   1.282299 A    
C30   H14   1.115164 S    
C52   C64   1.383554 A    
C53   C57   1.388248 A    
Zn12  O26   1.930637 S    
O20   C16   1.281714 A    
C29   C31   1.529230 S    
C56   C60   1.383582 A    
C32   H16   1.114534 S    
C169  C173  1.422322 A    
C193  C198  1.427243 A    
C55   C59   1.389159 A    
C43   C83   1.416502 A    
C29   H5    1.106159 S    
C110  C118  1.417483 A    
C47   C55   1.393364 A    
C205  C210  1.425068 A    
H26   C142  1.081419 S    
C52   H40   1.081466 S    
O11   C7    1.279327 A    
C53   H41   1.082596 S    
C194  C195  1.399242 A    
O34   C15   1.282285 A    
C63   H51   1.082161 S    
C225  H129  1.082859 S    
C163  C167  1.429365 A    
C64   H52   1.082939 S    
C49   H37   1.082580 S    
C36   C217  1.624408 S    
C25   H1    1.106161 S    
C153  C157  1.388620 A    
Zn2   O43   1.961055 S    
H23   C139  1.082436 S    
Zn5   O48   1.961056 S    
C57   C65   1.395191 A    
Zn6   O47   1.961055 S    
C125  H65   1.078213 S    
Zn15  O3    1.953943 S    
C216  H122  1.077929 S    
Zn7   O46   1.955166 S    
C211  C216  1.417382 A    
O16   C12   1.281717 A    
C49   C61   1.388250 A    
C41   H29   1.082283 S    
Zn16  O4    1.953677 S    
C155  C164  1.441897 A    
C108  C116  1.416562 A    
Zn1   O13   1.933641 S    
C22   C38   1.514557 S    
C156  C163  1.441744 A    
C141  C149  1.393682 A    
C124  H64   1.079512 S    
C26   C28   1.536276 S    
H24   C140  1.082105 S    
C139  C147  1.393589 A    
Zn4   O16   1.938679 S    
C65   H53   1.073778 S    
C35   C205  1.594075 S    
C46   C86   1.420000 A    
H28   C144  1.082161 S    
C202  C203  1.382767 A    
C157  H89   1.083796 S    
C71   H59   1.081557 S    
C31   H7    1.090230 S    
C72   H60   1.074990 S    
C154  C158  1.388729 A    
C93   C101  1.413090 A    
C151  H83   1.082143 S    
C35   C223  1.619694 S    
C152  H84   1.079630 S    
C111  C151  1.416852 A    
C136  H72   1.081275 S    
C31   C40   1.557527 S    
C209  C210  1.399480 A    
C30   H6    1.104386 S    
Zn10  O22   1.930637 S    
C132  H76   1.081291 S    
C34   C187  1.593301 S    
C133  H69   1.082597 S    
C126  H66   1.080219 S    
O25   C8    1.275931 A    
Zn13  O29   1.941886 S    
C200  H108  1.047232 S    
C191  H101  1.082673 S    
Zn10  O2    1.954241 S    
C184  C185  1.384456 A    
C44   C84   1.421060 A    
C63   C71   1.393584 A    
C134  C138  1.386137 A    
O29   C12   1.280062 A    
C167  C171  1.412844 A    
Zn15  O33   1.941886 S    
C18   C165  1.445088 S    
C88   C120  1.414401 A    
C179  C180  1.386975 A    
C26   H2    1.104389 S    
C197  H106  1.082897 S    
C190  C191  1.382588 A    
O37   C17   1.274612 A    
O48   C23   1.278836 A    
C199  C200  1.423912 A    
C33   C181  1.594083 S    
C122  C130  1.391708 A    
C201  C202  1.383191 A    
C171  C175  1.422211 A    
C192  H102  1.066848 S    
C185  C186  1.394770 A    
C155  C159  1.388511 A    
Zn16  O35   1.938432 S    
C134  H70   1.081875 S    
C99   C123  1.414277 A    
C196  C197  1.383467 A    
C35   C36   1.672242 S    
C97   C121  1.413591 A    
C187  C192  1.428055 A    
C130  H74   1.081866 S    
Zn7   O10   1.938636 S    
O33   C16   1.280057 A    
C218  C219  1.397287 A    
C132  C144  1.385611 A    
C101  C125  1.413609 A    
O40   C20   1.275079 A    
C106  C146  1.419999 A    
C136  C140  1.385574 A    
H85   C178  1.082846 S    
C82   C114  1.416289 A    
C181  C186  1.423444 A    
C84   C116  1.414414 A    
C204  H112  1.058134 S    
C183  H94   1.075221 S    
C202  H110  1.082531 S    
C13   C117  1.444406 S    
Zn6   O11   1.933596 S    
Zn5   O17   1.933641 S    
C102  C106  1.412693 A    
C226  H130  1.082522 S    
C190  H100  1.082501 S    
C1    C91   1.453321 S    
C45   C85   1.417817 A    
C2    C92   1.461724 S    
C12   C116  1.454609 S    
C65   C73   1.408446 A    
C96   C104  1.418452 A    
Zn15  O51   1.958063 S    
C223  C228  1.423911 A    
C25   C27   1.529221 S    
C47   H35   1.082213 S    
C74   C86   1.412129 A    
C107  C115  1.411762 A    
C169  C170  1.403801 A    
H25   C141  1.082533 S    
C3    C89   1.457735 S    
C105  C113  1.411822 A    
C191  C192  1.394191 A    
C27   H3    1.090234 S    
C32   H8    1.099719 S    
Zn8   O3    1.959992 S    
C97   C109  1.411204 A    
C198  H107  1.055717 S    
C8    C94   1.457076 S    
C215  C216  1.397365 A    
C61   C69   1.395171 A    
O38   C18   1.275125 A    
C59   C67   1.393567 A    
C195  H104  1.083071 S    
O5    C1    1.284282 A    
O32   C9    1.274538 A    
C100  C112  1.412859 A    
C112  C152  1.420306 A    
C33   C37   1.643916 S    
C208  H115  1.082446 S    
C153  C162  1.441957 A    
C35   C39   1.643951 S    
C60   H48   1.082945 S    
C104  C108  1.412849 A    
C61   H49   1.081305 S    
Zn11  O28   1.934214 S    
H18   C174  1.082090 S    
C20   C167  1.445082 S    
C138  C146  1.392286 A    
H17   C173  1.082054 S    
C225  C226  1.382752 A    
C223  C224  1.431984 A    
C6    C96   1.461709 S    
C50   H38   1.081416 S    
C148  H80   1.079601 S    
C71   C79   1.416990 A    
C213  C214  1.382571 A    
C149  H81   1.082275 S    
C72   C80   1.421185 A    
C217  C222  1.428592 A    
C90   C98   1.416189 A    
C212  H118  1.066843 S    
C211  C212  1.428055 A    
C42   H30   1.079136 S    
O50   C18   1.272567 A    
C50   C62   1.384743 A    
C154  C161  1.441766 A    
C122  H62   1.080258 S    
Zn1   O1    1.948214 S    
C46   H34   1.079140 S    
Zn13  O1    1.953943 S    
Zn2   O14   1.941040 S    
C214  H120  1.082501 S    
C48   C56   1.390078 A    
C160  H92   1.083799 S    
C27   C38   1.557519 S    
C166  C170  1.412755 A    
C186  H97   1.066286 S    
C42   C50   1.390748 A    
O9    C5    1.284294 A    
O39   C19   1.274586 A    
O36   C13   1.274536 A    
C68   C76   1.421164 A    
C80   C84   1.410884 A    
O13   C9    1.277714 A    
C126  C134  1.391772 A    
Zn1   O8    1.940995 S    
C147  H79   1.082154 S    
Zn2   O7    1.933596 S    
C173  C177  1.392370 A    
Zn3   O6    1.938636 S    
C135  C139  1.389251 A    
O18   C14   1.278310 A    
O31   C10   1.277537 A    
C185  H96   1.082616 S    
O6    C2    1.289711 A    
Zn4   O41   1.955165 S    
C121  C129  1.393615 A    
C209  H116  1.075222 S    
C219  C220  1.383465 A    
C44   H32   1.079454 S    
C200  C201  1.397154 A    
Zn14  O30   1.934467 S    
C67   H55   1.081553 S    
C64   C72   1.391557 A    
C11   C115  1.450097 S    
C48   H36   1.079464 S    
Zn11  O3    1.953975 S    
O41   C21   1.282815 A    
C164  C168  1.428867 A    
C41   C49   1.392034 A    
C110  C150  1.420143 A    
Zn16  O34   1.934467 S    
C210  H117  1.076433 S    
C158  H90   1.083851 S    
C31   H15   1.114655 S    
C156  Br4   1.927569 S    
C227  C228  1.397137 A    
C197  C198  1.397283 A    
C124  C132  1.392097 A    
C143  C151  1.393563 A    
Zn8   O20   1.938679 S    
C199  C204  1.431982 A    
H87   C180  1.082744 S    
C214  C215  1.385942 A    
C127  C135  1.393225 A    
C170  C174  1.422357 A    
C67   C75   1.416994 A    
C78   C82   1.412138 A    
C135  H71   1.082630 S    
C196  H105  1.082500 S    
C55   H43   1.082512 S    
C36   C40   1.640657 S    
C56   H44   1.081509 S    
C30   C40   1.574255 S    
C109  C117  1.411817 A    
C159  C160  1.373578 A    
C103  C107  1.410856 A    
Zn8   O9    1.931069 S    
C108  C148  1.420273 A    
C58   C66   1.391595 A    
C19   C168  1.444434 S    
C212  C213  1.394182 A    
H20   C176  1.082079 S    
C70   C78   1.420014 A    
C162  C166  1.428927 A    
O7    C3    1.279330 A    
C182  H93   1.076445 S    
C183  C184  1.386009 A    
C154  Br2   1.927581 S    
O19   C15   1.279734 A    
C36   C211  1.593327 S    
C145  H77   1.082272 S    
C26   H10   1.115164 S    
Zn9   O24   1.934214 S    
Zn6   O18   1.941040 S    
Zn10  O23   1.941635 S    
C47   C87   1.416493 A    
Zn12  O40   1.958022 S    
C57   H45   1.081316 S    
C66   C74   1.420091 A    
C168  C172  1.412632 A    
C131  C143  1.389234 A    
C74   C90   1.418320 A    
C111  C119  1.411733 A    
C33   C199  1.619693 S    
Zn15  O36   1.930889 S    
Zn9   O1    1.953975 S    
O15   C11   1.279727 A    
O42   C22   1.293881 A    
C4    C90   1.457050 S    
C33   C34   1.672237 S    
C224  H128  1.058105 S    
C78   C94   1.418297 A    
Zn4   O1    1.959992 S    
C30   C32   1.536274 S    
C220  C221  1.384296 A    
Zn1   O44   1.961056 S    
Zn9   O37   1.958155 S    
C215  H121  1.068024 S    
O12   C8    1.280301 A    
H86   C177  1.082829 S    
C206  H113  1.066276 S    
Zn11  O39   1.958155 S    
C94   C102  1.416190 A    
C68   H56   1.075008 S    
C69   H57   1.073779 S    
C208  C209  1.386007 A    
C15   C119  1.450083 S    
C206  C207  1.394767 A    
Zn5   O3    1.948214 S    
Zn6   O4    1.948212 S    
C228  H132  1.047220 S    
C34   C193  1.624389 S    
C62   H50   1.080343 S    
C45   H33   1.082285 S    
C46   C54   1.390763 A    
C171  C172  1.403791 A    
C157  C158  1.373595 A    
C129  H73   1.082600 S    
H22   C138  1.081371 S    
C155  Br3   1.928558 S    
O28   C5    1.279557 A    
C25   C37   1.564758 S    
C17   C166  1.444420 S    
C163  C164  1.432634 A    
Zn3   O42   1.955166 S    
C161  C165  1.429438 A    
C99   C111  1.410845 A    
C150  H82   1.080095 S    
Zn7   O4    1.959994 S    
O21   C4    1.275887 A    
C125  C133  1.393609 A    
C217  C218  1.427248 A    
C144  C152  1.391343 A    
C221  H126  1.083073 S    
C153  Br1   1.928501 S    
C123  C131  1.393207 A    
C175  C179  1.392224 A    
C219  H124  1.082899 S    
C123  H63   1.078420 S    
C130  C142  1.386213 A    
Zn2   O2    1.948212 S    
C66   H54   1.078845 S    
Zn14  O2    1.953677 S    
C193  C194  1.428585 A    
C29   C39   1.564759 S    
C51   C63   1.389163 A    
C44   C52   1.390065 A    
C45   C53   1.392051 A    
C207  C208  1.384449 A    
C98   C122  1.419984 A    
Zn13  O49   1.958063 S    
O44   C21   1.278822 A    
C28   H12   1.114535 S    
C43   C51   1.393364 A    
Zn12  O4    1.954241 S    
C51   H39   1.082518 S    
C203  H111  1.082859 S    
C102  C126  1.419955 A    
C95   C103  1.413192 A    
Zn12  O27   1.941635 S    
C128  C136  1.392046 A    
C79   C95   1.413480 A    
C194  H103  1.058517 S    
C80   C96   1.423594 A    
C107  C147  1.416868 A    
C69   C77   1.408440 A    
C83   C115  1.412637 A    
C105  C145  1.416568 A    
Zn3   O2    1.959994 S    
C81   C113  1.408106 A    
C14   C118  1.456478 S    
O46   C24   1.293875 A    
O47   C24   1.273402 A    
C201  H109  1.081394 S    
C101  C105  1.411211 A    
Zn16  O52   1.958196 S    
H88   C179  1.082718 S    
C9    C113  1.444423 S    
Zn8   O45   1.955165 S    
O27   C6    1.276804 A    
C112  C120  1.416570 A    
C133  C137  1.389739 A    
C142  C150  1.392244 A    
C189  C190  1.385950 A    
C106  C114  1.417360 A    
C24   C40   1.514522 S    
C100  C124  1.420458 A    
C184  H95   1.082446 S    
C227  H131  1.081392 S    
C26   C38   1.574248 S    
O8    C4    1.280330 A    
C207  H114  1.082616 S    
C98   C110  1.412710 A    
C213  H119  1.082672 S    
O24   C1    1.279575 A    
C104  C128  1.420464 A    
C224  C225  1.397312 A    
C79   C83   1.411779 A    
C156  C160  1.388586 A    
H21   C137  1.082525 S    
O43   C22   1.273412 A    
C34   C38   1.640666 S    
Zn3   O15   1.931112 S    
Zn5   O12   1.940995 S    
C76   C88   1.410881 A    
C121  H61   1.078184 S    
C221  C222  1.399243 A    
C77   C81   1.408348 A    
C73   C85   1.408350 A    
C87   C119  1.412637 A    
Zn9   O21   1.938182 S    
Zn14  O50   1.958196 S    
C41   C81   1.417802 A    
C189  H99   1.068037 S    
C222  H127  1.058518 S    
O35   C14   1.277473 A    
C92   C100  1.418447 A    
C5    C95   1.453309 S    
C220  H125  1.082500 S    
C127  H67   1.078444 S    
C137  C145  1.393674 A    
C128  H68   1.079491 S    
C54   H42   1.081417 S    
C218  H123  1.055707 S    
C174  C178  1.392281 A    
O52   C20   1.272610 A    
C29   H13   1.115768 S    
C42   C82   1.419956 A    
C195  C196  1.384297 A    
C188  H98   1.077915 S    
C146  H78   1.080033 S    
C10   C114  1.456459 S    
O22   C3    1.279793 A    
C91   C99   1.413206 A    
Zn7   O19   1.931112 S    
C43   H31   1.082217 S    
C176  C180  1.392125 A    
C89   C97   1.413106 A    
C58   H46   1.080403 S    
Zn13  O32   1.930889 S    
C85   C117  1.408120 A    
O49   C17   1.272739 A    
Zn14  O31   1.938432 S    
O51   C19   1.272770 A    
C75   C91   1.413479 A    
C140  C148  1.391317 A    
C28   H4    1.099724 S    
C73   C89   1.413783 A    
C27   H11   1.114658 S    
Zn4   O5    1.931069 S    
C182  C183  1.399468 A    
C205  C206  1.423445 A    
C76   C92   1.423597 A    
C165  C169  1.412947 A    
C77   C93   1.413774 A    
C187  C188  1.417355 A    
O10   C6    1.289701 A    
O23   C2    1.276799 A    
H27   C143  1.082412 S    
C28   C37   1.559947 S    
Zn11  O25   1.938182 S    
C131  H75   1.082625 S    
C161  C162  1.432617 A    
Zn10  O38   1.958022 S    
C7    C93   1.457717 S    
O14   C10   1.278224 A    
O45   C23   1.282816 A    
C103  C127  1.414286 A    
C60   C68   1.391602 A    
C54   C58   1.384746 A    
H19   C175  1.082043 S    
C25   H9    1.115766 S    
C86   C118  1.416351 A    
C181  C182  1.425085 A    
O17   C13   1.277705 A    
C70   H58   1.078840 S    
C59   H47   1.082163 S    
C16   C120  1.454598 S    
