data_mof_unit_47635.cif
_audit_creation_date              2012-10-26T19:22:30-0400
_audit_creation_method            fapswitch 2.2
_symmetry_space_group_name_H-M    P1
_symmetry_Int_Tables_number       1
_space_group_crystal_system       triclinic
_cell_length_a                    11.671738
_cell_length_b                    13.040158
_cell_length_c                    13.886355
_cell_angle_alpha                 88.889012
_cell_angle_beta                  91.802978
_cell_angle_gamma                 100.026677
_cell_volume                      2080.00298297

loop_
_atom_site_label
_atom_site_type_symbol
_atom_type_description
_atom_site_fract_x
_atom_site_fract_y
_atom_site_fract_z
_atom_type_partial_charge
C1    C     C_R   0.478475 0.298739 0.505879 0.541441
C2    C     C_R   0.848888 0.463639 0.544180 0.042420
C3    C     C_R   0.029659 0.532073 0.464061 0.006345
C4    C     C_R   0.970565 0.469159 0.536607 0.006918
C5    C     C_R   0.519374 0.501564 0.681914 0.544819
C6    C     C_R   0.480632 0.498460 0.318068 0.557006
C7    C     C_1   0.467687 0.495559 0.215688 -0.048517
C8    C     C_1   0.532362 0.504602 0.784237 -0.051174
C9    C     C_2   0.450489 0.489276 0.025357 0.009904
C10   C     C_2   0.549707 0.511159 0.974504 0.009677
C11   C     C_1   0.541727 0.507620 0.870510 -0.058803
C12   C     C_R   0.522665 0.701060 0.503466 0.540359
C13   C     C_1   0.458395 0.492673 0.129382 -0.057945
C14   C     C_R   0.538936 0.815067 0.512176 -0.003131
C15   C     C_R   0.464446 0.184318 0.515072 -0.004065
C16   C     C_R   0.347153 0.011126 0.522902 -0.113995
C17   C     C_R   0.658189 0.987545 0.520755 -0.114339
C18   C     C_R   0.354398 0.119214 0.530380 -0.009588
C19   C     C_R   0.650791 0.878839 0.525727 -0.012551
C20   C     C_R   0.564904 0.139302 0.510799 -0.146648
C21   C     C_R   0.438852 0.860605 0.509766 -0.146190
C22   C     C_3   0.668602 0.540050 0.025238 -0.240566
C23   C     C_R   0.557324 0.031749 0.514871 0.026101
C24   C     C_3   0.771594 0.562256 0.957046 -0.297740
C25   C     C_3   0.886765 0.591410 0.013325 -0.462068
C26   C     C_3   0.331675 0.460387 0.974464 -0.241374
C27   C     C_3   0.228457 0.438387 0.042391 -0.296584
C28   C     C_3   0.113491 0.409297 0.985781 -0.462138
C29   C     C_3   0.759074 0.830752 0.548321 -0.233913
C30   C     C_3   0.863537 0.902208 0.594573 -0.328076
C31   C     C_3   0.957165 0.839469 0.627827 -0.456341
C32   C     C_3   0.248370 0.164308 0.559220 -0.235885
C33   C     C_3   0.148647 0.087263 0.603306 -0.324530
C34   C     C_R   0.447426 0.967769 0.514974 0.026002
C35   C     C_3   0.057466 0.144161 0.644115 -0.466971
C36   C     C_R   0.034514 0.413798 0.599718 -0.183950
C37   C     C_R   0.965993 0.589083 0.402146 -0.183369
C38   C     C_R   0.155066 0.420967 0.589110 0.039384
C39   C     C_R   0.845377 0.581747 0.412767 0.037220
C40   C     C_R   0.151155 0.536476 0.455801 0.043863
Cu1   Cu    Cu3+1 0.615220 0.507680 0.492970 0.917771
Cu2   Cu    Cu3+1 0.384780 0.492320 0.507030 0.920595
H1    H     H_    0.353213 0.812448 0.505015 0.121928
H2    H     H_    0.901245 0.526729 0.062899 0.151365
H3    H     H_    0.959419 0.606905 0.962391 0.140693
H4    H     H_    0.775048 0.491976 0.913879 0.165655
H5    H     H_    0.760491 0.627734 0.907115 0.167029
H6    H     H_    0.668283 0.610509 0.069053 0.144673
H7    H     H_    0.682130 0.475042 0.074965 0.148718
H8    H     H_    0.099250 0.474007 0.936150 0.149922
H9    H     H_    0.113690 0.338007 0.943310 0.148927
H10   H     H_    0.040612 0.393821 0.036492 0.142693
H11   H     H_    0.239297 0.372931 0.092422 0.170108
H12   H     H_    0.649906 0.188013 0.505633 0.122361
H13   H     H_    0.224948 0.508737 0.085440 0.166010
H14   H     H_    0.318335 0.525329 0.924588 0.147961
H15   H     H_    0.332038 0.389845 0.930772 0.143789
H16   H     H_    0.920746 0.775650 0.678142 0.155455
H17   H     H_    0.992792 0.805602 0.564841 0.154268
H18   H     H_    0.029032 0.890500 0.666559 0.140251
H19   H     H_    0.901619 0.962223 0.541421 0.156803
H20   H     H_    0.834784 0.940648 0.658066 0.162907
H21   H     H_    0.734703 0.766721 0.601798 0.178558
H22   H     H_    0.787137 0.798483 0.481185 0.160597
H23   H     H_    0.264260 0.959302 0.526664 0.098267
H24   H     H_    0.097959 0.201945 0.698314 0.140352
H25   H     H_    0.015210 0.184190 0.585175 0.153612
H26   H     H_    0.989906 0.087773 0.680544 0.142338
H27   H     H_    0.105855 0.033212 0.547000 0.157453
H28   H     H_    0.183688 0.042252 0.662722 0.164200
H29   H     H_    0.278389 0.222414 0.616082 0.161655
H30   H     H_    0.213503 0.203180 0.495558 0.171978
H31   H     H_    0.797141 0.625936 0.364649 0.121344
H32   H     H_    0.203659 0.379270 0.639053 0.116470
H33   H     H_    0.741758 0.038663 0.524276 0.099214
H34   H     H_    0.802382 0.414636 0.599150 0.112926
H35   H     H_    0.197605 0.585002 0.400503 0.114161
H36   H     H_    0.991859 0.365816 0.657177 0.080726
H37   H     H_    0.008924 0.638804 0.345901 0.081486
H38   H     H_    0.886696 0.662713 0.055800 0.150214
N1    N     N_R   0.788370 0.519230 0.482390 -0.228423
N2    N     N_R   0.211630 0.480770 0.517610 -0.227679
O1    O     O_R   0.581500 0.354430 0.495010 -0.502088
O2    O     O_R   0.418500 0.645570 0.504990 -0.503758
O3    O     O_R   0.386890 0.341450 0.506880 -0.516353
O4    O     O_R   0.613110 0.658550 0.493120 -0.520548
O5    O     O_R   0.611060 0.507430 0.631070 -0.504906
O6    O     O_R   0.388940 0.492570 0.368930 -0.496021
O7    O     O_R   0.416450 0.494450 0.642940 -0.501992
O8    O     O_R   0.583550 0.505550 0.357060 -0.494674

loop_
_geom_bond_atom_site_label_1
_geom_bond_atom_site_label_2
_ccdc_geom_bond_type
C15   C18   A    
C22   H6    S    
C4    C36   A    
C25   H38   S    
Cu1   Cu2   S    
Cu2   N2    S    
C29   H21   S    
C32   H30   S    
C10   C22   S    
Cu1   O4    S    
C37   H37   S    
C26   C27   S    
C17   C23   A    
C31   H16   S    
C30   C31   S    
C28   H9    S    
C27   H13   S    
Cu1   O1    S    
C6    O6    A    
C12   O2    A    
C31   H17   S    
C9    C13   S    
C17   C19   A    
C21   H1    S    
C28   H8    S    
C1    C15   S    
C9    C10   D    
C33   H27   S    
C16   C34   A    
Cu1   O8    S    
C29   H22   S    
C38   N2    A    
C25   H2    S    
C9    C26   S    
C32   H29   S    
C1    O3    A    
C15   C20   A    
Cu1   O5    S    
C40   N2    A    
Cu2   O2    S    
C24   C25   S    
C39   N1    A    
C20   H12   S    
C21   C34   A    
C35   H24   S    
C6    O8    A    
C31   H18   S    
C2    C4    A    
C29   C30   S    
C20   C23   A    
C35   H25   S    
C23   C34   A    
Cu1   N1    S    
Cu2   O3    S    
C33   H28   S    
C22   H7    S    
C12   C14   S    
C3    C40   A    
C30   H20   S    
C22   C24   S    
Cu2   O6    S    
C3    C4    A    
C19   C29   S    
C25   H3    S    
C2    H34   S    
C14   C21   A    
C38   H32   S    
C24   H5    S    
C14   C19   A    
C26   H14   S    
C5    C8    S    
C27   H11   S    
C6    C7    S    
C1    O1    A    
C12   O4    A    
Cu2   O7    S    
C24   H4    S    
C32   C33   S    
C36   C38   A    
C37   C39   A    
C36   H36   S    
C28   H10   S    
C35   H26   S    
C8    C11   T    
C33   C35   S    
C39   H31   S    
C26   H15   S    
C10   C11   S    
C5    O5    A    
C7    C13   T    
C18   C32   S    
C3    C37   A    
C16   C18   A    
C30   H19   S    
C27   C28   S    
C17   H33   S    
C40   H35   S    
C2    N1    A    
C16   H23   S    
C5    O7    A    
