data_mof_unit_43258.cif
_audit_creation_date              2012-12-10T17:22:51-0500
_audit_creation_method            fapswitch 2.2
_symmetry_space_group_name_H-M    P1
_symmetry_Int_Tables_number       1
_space_group_crystal_system       triclinic
_cell_length_a                    10.125269
_cell_length_b                    10.496375
_cell_length_c                    10.814882
_cell_angle_alpha                 89.813855
_cell_angle_beta                  96.986471
_cell_angle_gamma                 81.449793
_cell_volume                      1127.91038378

loop_
_atom_site_label
_atom_site_type_symbol
_atom_type_description
_atom_site_fract_x
_atom_site_fract_y
_atom_site_fract_z
_atom_type_partial_charge
C1    C     C_R   0.441495 0.508864 0.266903 0.872710
C2    C     C_3   0.498421 0.122558 0.500621 0.031821
C3    C     C_3   0.622879 0.942510 0.479108 -0.134861
C4    C     C_3   0.377121 0.057490 0.520891 -0.134861
C5    C     C_2   0.403654 0.522451 0.133150 -0.187583
C6    C     C_2   0.596346 0.477547 0.866849 -0.187582
C7    C     C_2   0.500443 0.477864 0.063455 -0.207917
C8    C     C_2   0.499559 0.522137 0.936546 -0.207921
C9    C     C_2   0.071837 0.490097 0.489207 -0.133782
C10   C     C_2   0.928163 0.509903 0.510793 -0.133782
C11   C     C_R   0.729578 0.404706 0.918840 0.129010
C12   C     C_R   0.558505 0.491135 0.733097 0.872711
C13   C     C_R   0.777280 0.284912 0.870196 -0.121369
C14   C     C_R   0.901609 0.216197 0.919836 -0.153098
C15   C     C_R   0.979315 0.266335 0.018310 -0.129873
C16   C     C_R   0.933136 0.385560 0.066954 -0.141898
C17   C     C_R   0.809578 0.455235 0.016726 -0.155773
C18   C     C_R   0.270419 0.595284 0.081157 0.129009
C19   C     C_R   0.190427 0.544751 0.983267 -0.155771
C20   C     C_R   0.066866 0.614418 0.933037 -0.141899
C21   C     C_R   0.020675 0.733639 0.981683 -0.129875
C22   C     C_R   0.098373 0.783782 0.080160 -0.153099
C23   C     C_R   0.499466 0.257516 0.500405 0.852322
C24   C     C_R   0.222705 0.715075 0.129802 -0.121371
C25   C     C_R   0.500533 0.742484 0.499595 0.852322
C26   C     C_3   0.527916 0.039218 0.388901 -0.179853
C27   C     C_3   0.472084 0.960781 0.611099 -0.179854
C28   C     C_3   0.406746 0.971444 0.409144 -0.184181
C29   C     C_3   0.593254 0.028556 0.590855 -0.184182
C30   C     C_3   0.501579 0.877442 0.499379 0.031821
H1    H     H_    0.723060 0.891658 0.462062 0.141449
H2    H     H_    0.588386 0.413159 0.105285 0.190214
H3    H     H_    0.717579 0.244105 0.794882 0.114086
H4    H     H_    0.937431 0.123743 0.882300 0.125666
H5    H     H_    0.075353 0.212885 0.056830 0.122456
H6    H     H_    0.993585 0.424551 0.142973 0.140414
H7    H     H_    0.775858 0.548213 0.054500 0.146838
H8    H     H_    0.224155 0.451775 0.945493 0.146839
H9    H     H_    0.006424 0.575424 0.857015 0.140414
H10   H     H_    0.924634 0.787084 0.943162 0.122456
H11   H     H_    0.062541 0.876233 0.117698 0.125666
H12   H     H_    0.276940 0.108342 0.537937 0.141450
H13   H     H_    0.282399 0.755884 0.205120 0.114091
H14   H     H_    0.893937 0.577874 0.579775 0.158787
H15   H     H_    0.106063 0.422126 0.420225 0.158788
H16   H     H_    0.877973 0.384278 0.383660 0.162071
H17   H     H_    0.122027 0.615722 0.616340 0.162071
H18   H     H_    0.330817 0.943970 0.335205 0.122332
H19   H     H_    0.669183 0.056029 0.664795 0.122332
H20   H     H_    0.550382 0.076023 0.298576 0.130241
H21   H     H_    0.449618 0.923976 0.701424 0.130241
H22   H     H_    0.411619 0.586846 0.894716 0.190212
N1    N     N_2   0.157310 0.552180 0.551120 -0.193396
N2    N     N_2   0.842690 0.447820 0.448880 -0.193395
O1    O     O_R   0.568940 0.489500 0.307530 -0.608478
O2    O     O_R   0.431060 0.510500 0.692470 -0.608477
O3    O     O_R   0.348880 0.522990 0.340350 -0.606904
O4    O     O_R   0.651120 0.477010 0.659650 -0.606903
O5    O     O_R   0.610000 0.297210 0.483560 -0.614187
O6    O     O_R   0.390000 0.702790 0.516440 -0.614189
O7    O     O_R   0.389940 0.330700 0.516390 -0.620093
O8    O     O_R   0.610060 0.669300 0.483610 -0.620093
Zn1   Zn    Zn3+2 0.646930 0.477640 0.478080 0.932829
Zn2   Zn    Zn3+2 0.353070 0.522360 0.521920 0.932828

loop_
_geom_bond_atom_site_label_1
_geom_bond_atom_site_label_2
_ccdc_geom_bond_type
C14   H4    S    
O7    Zn2   S    
C2    C4    S    
O2    Zn2   S    
C9    H15   S    
O8    Zn1   S    
C7    H2    S    
C25   O6    A    
C1    O3    A    
C27   C29   S    
C9    C10   S    
C8    H22   S    
O5    Zn1   S    
C19   C20   A    
H17   N1    S    
O6    Zn2   S    
C12   O4    A    
H16   N2    S    
C28   C30   S    
C23   O5    A    
C7    C8    S    
C2    C26   S    
C29   H19   S    
C21   C22   A    
C16   H6    S    
C27   C30   S    
C3    H1    S    
C11   C13   A    
C6    C11   S    
C12   O2    A    
C21   H10   S    
C4    H12   S    
C24   H13   S    
C2    C29   S    
C18   C24   A    
C6    C8    D    
C3    C30   S    
C15   H5    S    
C4    C28   S    
C27   H21   S    
C1    O1    A    
C22   C24   A    
C25   O8    A    
C26   H20   S    
C6    C12   S    
C10   N2    D    
N1    Zn2   S    
C1    C5    S    
C22   H11   S    
C9    N1    D    
N2    Zn1   S    
C10   H14   S    
C15   C16   A    
C2    C23   S    
C4    C27   S    
C20   C21   A    
O3    Zn2   S    
C5    C7    D    
C18   C19   A    
C23   O7    A    
C25   C30   S    
C3    C29   S    
C20   H9    S    
C19   H8    S    
C11   C17   A    
C17   H7    S    
C5    C18   S    
C13   C14   A    
C14   C15   A    
C26   C28   S    
C3    C26   S    
C28   H18   S    
O4    Zn1   S    
C13   H3    S    
C16   C17   A    
O1    Zn1   S    
