data_mof_unit_27719.cif
_audit_creation_date              2012-12-11T20:34:22-0500
_audit_creation_method            fapswitch 2.2
_symmetry_space_group_name_H-M    P1
_symmetry_Int_Tables_number       1
_space_group_crystal_system       triclinic
_cell_length_a                    24.785713
_cell_length_b                    28.276687
_cell_length_c                    8.99491
_cell_angle_alpha                 90.124758
_cell_angle_beta                  96.673326
_cell_angle_gamma                 89.966791
_cell_volume                      6261.42655434

loop_
_atom_site_label
_atom_site_type_symbol
_atom_type_description
_atom_site_fract_x
_atom_site_fract_y
_atom_site_fract_z
_atom_type_partial_charge
Ba1   Ba    Ba6+2 0.999910 0.466800 0.844920 1.619719
Ba2   Ba    Ba6+2 0.999910 0.533200 0.344920 1.611826
Ba3   Ba    Ba6+2 0.499910 0.966800 0.844920 1.619303
Ba4   Ba    Ba6+2 0.499910 0.033200 0.344920 1.603507
C1    C     C_3   0.039112 0.237868 0.633736 0.289755
C2    C     C_2   0.850711 0.677859 0.843419 -0.052010
C3    C     C_3   0.361629 0.946424 0.499186 -0.214644
C4    C     C_3   0.722845 0.559822 0.824525 -0.365887
C5    C     C_3   0.729544 0.417148 0.474793 -0.439654
C6    C     C_3   0.223947 0.061620 0.827718 -0.366713
C7    C     C_3   0.228926 0.917712 0.475355 -0.442240
C8    C     C_3   0.933666 0.220505 0.221454 -0.273016
C9    C     C_3   0.932468 0.782289 0.704895 -0.266323
C10   C     C_3   0.434167 0.720268 0.221721 -0.272679
C11   C     C_3   0.428019 0.281039 0.681857 -0.276196
C12   C     C_3   0.831164 0.286118 0.454778 -0.365027
C13   C     C_2   0.353231 0.819343 0.344186 -0.028340
C14   C     C_3   0.826696 0.709943 0.953574 -0.355150
C15   C     C_3   0.330714 0.786660 0.455218 -0.365322
C16   C     C_3   0.328565 0.211059 0.955598 -0.353454
C17   C     C_3   0.194475 0.640376 0.231742 -0.313168
C18   C     C_3   0.196099 0.360976 0.729422 -0.309661
C19   C     C_3   0.694543 0.140477 0.231872 -0.301563
C20   C     C_3   0.696645 0.861222 0.728807 -0.311727
C21   C     C_3   0.971315 0.404725 0.334133 -0.323777
C22   C     C_3   0.969269 0.595757 0.835074 -0.334561
C23   C     C_3   0.471231 0.904873 0.334384 -0.323533
C24   C     C_2   0.351242 0.178182 0.845070 -0.045745
C25   C     C_3   0.469383 0.095074 0.835188 -0.312838
C26   C     C_3   0.000218 0.195697 0.606529 -0.444929
C27   C     C_3   0.960753 0.802314 0.115347 -0.346080
C28   C     C_3   0.500112 0.695590 0.607796 -0.446249
C29   C     C_3   0.497951 0.298016 0.051866 -0.272039
C30   C     C_3   0.965436 0.213228 0.971074 -0.304950
C31   C     C_3   0.993576 0.804544 0.517674 -0.352007
C32   C     C_3   0.466291 0.712970 0.971823 -0.305632
C33   C     C_3   0.470846 0.286894 0.446600 -0.299110
C34   C     C_3   0.180072 0.475926 0.362766 -0.249081
C35   C     C_2   0.826375 0.325064 0.195990 -0.002272
C36   C     C_3   0.178256 0.524760 0.862058 -0.246975
C37   C     C_3   0.679774 0.976189 0.362878 -0.248367
C38   C     C_3   0.678435 0.024563 0.862793 -0.246744
C39   C     C_3   0.158963 0.439989 0.116739 -0.269032
C40   C     C_3   0.158553 0.560394 0.616291 -0.271075
C41   C     C_3   0.659072 0.939976 0.117097 -0.269755
C42   C     C_3   0.657985 0.060556 0.617970 -0.267084
C43   C     C_2   0.831314 0.678287 0.686775 -0.035588
C44   C     C_2   0.326884 0.824658 0.195187 -0.001904
C45   C     C_2   0.329495 0.177033 0.690176 -0.016317
C46   C     C_2   0.843963 0.361298 0.103491 -0.102664
C47   C     C_2   0.851540 0.644133 0.590722 -0.122953
C48   C     C_2   0.344381 0.860991 0.102859 -0.103913
C49   C     C_3   0.008583 0.770867 0.084271 0.290860
C50   C     C_2   0.348799 0.142315 0.594339 -0.095726
C51   C     C_1   0.885416 0.392517 0.155021 0.096838
C52   C     C_1   0.887054 0.608719 0.647198 0.123124
C53   C     C_1   0.385446 0.892507 0.154977 0.096004
C54   C     C_1   0.386676 0.108442 0.648878 0.115449
C55   C     C_R   0.211278 0.721514 0.031371 0.432681
C56   C     C_R   0.213336 0.279636 0.527923 0.441526
C57   C     C_R   0.709322 0.222830 0.034783 0.427634
C58   C     C_R   0.714858 0.780665 0.525840 0.440168
C59   C     C_R   0.784950 0.289790 0.131567 0.478092
C60   C     C_3   0.539024 0.737823 0.633173 0.289228
C61   C     C_R   0.790988 0.714194 0.622127 0.477034
C62   C     C_R   0.286039 0.788953 0.130250 0.480971
C63   C     C_R   0.288923 0.212882 0.626054 0.484528
C64   C     C_R   0.158920 0.643975 0.084043 -0.056049
C65   C     C_R   0.160861 0.357169 0.581187 -0.030361
C66   C     C_R   0.658610 0.144275 0.084852 -0.025148
C67   C     C_R   0.661475 0.857520 0.580465 -0.031873
C68   C     C_R   0.119179 0.608752 0.036328 0.147733
C69   C     C_R   0.120766 0.392070 0.534037 0.175709
C70   C     C_R   0.619347 0.108736 0.036511 0.187019
C71   C     C_3   0.539405 0.258381 0.091766 0.277455
C72   C     C_R   0.620993 0.892159 0.533877 0.174800
C73   C     C_R   0.104174 0.650764 0.791007 0.054302
C74   C     C_R   0.104612 0.349351 0.290113 0.008393
C75   C     C_R   0.602309 0.151983 0.794061 0.008528
C76   C     C_R   0.604914 0.849521 0.289801 0.009529
C77   C     C_3   0.008408 0.275972 0.157017 0.672564
C78   C     C_3   0.006540 0.723967 0.649570 0.639736
C79   C     C_3   0.508649 0.776067 0.157303 0.671200
C80   C     C_3   0.504846 0.224280 0.642160 0.656444
C81   C     C_R   0.144101 0.684735 0.836831 0.382956
C82   C     C_3   0.904635 0.342689 0.386036 -0.003239
C83   C     C_R   0.144116 0.315059 0.335893 0.372370
C84   C     C_R   0.640619 0.187102 0.841672 0.358953
C85   C     C_R   0.644880 0.815554 0.334914 0.373437
C86   C     C_R   0.170395 0.683911 0.979192 -0.082097
C87   C     C_R   0.171870 0.316842 0.476610 -0.089551
C88   C     C_R   0.668239 0.185413 0.982499 -0.113231
C89   C     C_R   0.672934 0.817544 0.475251 -0.088625
C90   C     C_R   0.095568 0.610979 0.893763 -0.310634
C91   C     C_R   0.097291 0.389836 0.391572 -0.321635
C92   C     C_R   0.595473 0.111234 0.894509 -0.344962
C93   C     C_3   0.888422 0.641333 0.900531 -0.023750
C94   C     C_R   0.597356 0.889863 0.391577 -0.319635
C95   C     C_3   0.955787 0.248424 0.095454 0.337067
C96   C     C_3   0.964957 0.762463 0.584000 0.341012
C97   C     C_3   0.456251 0.748205 0.095720 0.337039
C98   C     C_3   0.454947 0.252479 0.565644 0.329184
C99   C     C_3   0.190470 0.478952 0.205035 0.314957
C100  C     C_3   0.189723 0.521616 0.705400 0.313079
C101  C     C_3   0.690432 0.979020 0.205388 0.313791
C102  C     C_3   0.689545 0.021746 0.705876 0.310733
C103  C     C_3   0.253169 0.470284 0.195698 0.299865
C104  C     C_3   0.404540 0.842863 0.386373 -0.003534
C105  C     C_3   0.252596 0.530316 0.698529 0.299410
C106  C     C_3   0.753176 0.970408 0.196676 0.300590
C107  C     C_3   0.752315 0.030724 0.698236 0.299355
C108  C     C_3   0.809319 0.520602 0.974461 0.354832
C109  C     C_3   0.812167 0.477593 0.488110 0.334622
C110  C     C_3   0.310304 0.021449 0.976058 0.356183
C111  C     C_3   0.311886 0.977752 0.488506 0.333805
C112  C     C_3   0.746829 0.517704 0.918338 0.314062
C113  C     C_3   0.765803 0.453531 0.568668 0.249357
C114  C     C_3   0.247662 0.019292 0.921060 0.315081
C115  C     C_3   0.390181 0.142515 0.901382 -0.017369
C116  C     C_3   0.265351 0.953967 0.569197 0.251821
C117  C     C_3   0.011545 0.285602 0.589439 0.750392
C118  C     C_3   0.990718 0.719205 0.048597 0.747298
C119  C     C_3   0.511313 0.785472 0.588527 0.751351
C120  C     C_3   0.513635 0.208175 0.081637 0.685823
C121  C     C_2   0.918753 0.380278 0.287095 -0.158358
C122  C     C_2   0.915688 0.617917 0.787363 -0.179605
C123  C     C_2   0.418644 0.880456 0.287481 -0.158709
C124  C     C_2   0.416511 0.118540 0.787126 -0.174174
C125  C     C_3   0.289282 0.513943 0.235925 -0.375965
C126  C     C_2   0.853186 0.319320 0.344298 -0.027043
C127  C     C_3   0.288139 0.485941 0.731732 -0.371146
C128  C     C_3   0.789137 0.014197 0.236258 -0.376301
C129  C     C_3   0.788216 0.986588 0.732071 -0.371804
C130  C     C_3   0.842487 0.528906 0.849804 -0.278498
C131  C     C_3   0.791628 0.484345 0.326672 -0.341478
C132  C     C_3   0.342853 0.029035 0.850020 -0.277371
C133  C     C_3   0.291364 0.984703 0.327116 -0.340745
C134  C     C_3   0.819488 0.563018 0.080262 -0.280899
C135  C     C_3   0.862088 0.446484 0.498927 -0.213444
C136  C     C_3   0.321770 0.064010 0.081414 -0.277704
H1    H     H_    0.259455 0.461890 0.079061 0.072226
H2    H     H_    0.969175 0.718261 0.934248 -0.085356
H3    H     H_    0.394229 0.704364 0.181581 0.157000
H4    H     H_    0.461923 0.690728 0.258194 0.080581
H5    H     H_    0.414452 0.257053 0.767506 0.102539
H6    H     H_    0.456389 0.307949 0.736157 0.083604
H7    H     H_    0.392134 0.300384 0.627218 0.155663
H8    H     H_    0.793743 0.267398 0.408255 0.123283
H9    H     H_    0.862239 0.259263 0.494037 0.117781
H10   H     H_    0.820035 0.306540 0.551893 0.137032
H11   H     H_    0.791221 0.730428 0.902680 0.125533
H12   H     H_    0.812360 0.688513 0.044443 0.132845
H13   H     H_    0.497486 0.783614 0.467628 -0.080947
H14   H     H_    0.858015 0.735226 0.002800 0.123980
H15   H     H_    0.292876 0.768474 0.409158 0.124474
H16   H     H_    0.361342 0.759444 0.494589 0.118478
H17   H     H_    0.319972 0.807394 0.552121 0.136681
H18   H     H_    0.292074 0.230685 0.907174 0.122406
H19   H     H_    0.315956 0.190335 0.050292 0.135302
H20   H     H_    0.360088 0.237038 0.999053 0.134240
H21   H     H_    0.191935 0.673660 0.296245 0.142257
H22   H     H_    0.184203 0.611211 0.303012 0.146892
H23   H     H_    0.237095 0.633904 0.211180 0.115656
H24   H     H_    0.508958 0.198248 0.961886 -0.069090
H25   H     H_    0.193923 0.327598 0.793207 0.147122
H26   H     H_    0.238660 0.368091 0.709706 0.112493
H27   H     H_    0.185147 0.389867 0.801226 0.142493
H28   H     H_    0.691006 0.173154 0.298691 0.139167
H29   H     H_    0.685391 0.110361 0.301047 0.142416
H30   H     H_    0.737300 0.135407 0.210405 0.110029
H31   H     H_    0.694636 0.827702 0.791952 0.145946
H32   H     H_    0.739193 0.868508 0.709329 0.112922
H33   H     H_    0.685435 0.889929 0.801021 0.142983
H34   H     H_    0.193393 0.729654 0.756432 0.307033
H35   H     H_    0.072402 0.232912 0.561495 0.090327
H36   H     H_    0.192540 0.270343 0.251572 0.307316
H37   H     H_    0.686670 0.235217 0.763211 0.310455
H38   H     H_    0.693343 0.770857 0.250397 0.307572
H39   H     H_    0.989522 0.422859 0.248503 0.159855
H40   H     H_    0.967645 0.432899 0.416578 0.139835
H41   H     H_    0.999950 0.377287 0.379746 0.076507
H42   H     H_    0.965428 0.567010 0.915929 0.137856
H43   H     H_    0.988323 0.578458 0.749031 0.158193
H44   H     H_    0.996441 0.624308 0.880324 0.104495
H45   H     H_    0.489471 0.922873 0.248548 0.159581
H46   H     H_    0.025432 0.786389 0.986241 0.080457
H47   H     H_    0.467549 0.933108 0.416673 0.140409
H48   H     H_    0.499870 0.877438 0.380048 0.077772
H49   H     H_    0.464859 0.066413 0.915787 0.136462
H50   H     H_    0.488641 0.077949 0.749153 0.159953
H51   H     H_    0.497114 0.122829 0.882120 0.063042
H52   H     H_    0.958243 0.204746 0.628025 0.126392
H53   H     H_    0.999223 0.183585 0.489451 0.108096
H54   H     H_    0.014761 0.165513 0.679254 0.137826
H55   H     H_    0.943290 0.790471 0.216716 0.174322
H56   H     H_    0.974670 0.839459 0.132496 0.124409
H57   H     H_    0.572048 0.732710 0.560151 0.091465
H58   H     H_    0.927964 0.801248 0.020518 0.056316
H59   H     H_    0.458096 0.704827 0.628449 0.126325
H60   H     H_    0.499222 0.682849 0.491399 0.107523
H61   H     H_    0.514560 0.665753 0.682133 0.138513
H62   H     H_    0.485396 0.315061 0.153361 0.133745
H63   H     H_    0.516109 0.325858 0.986336 0.108600
H64   H     H_    0.460861 0.284426 0.985662 0.070446
H65   H     H_    0.062607 0.225721 0.178752 0.337830
H66   H     H_    0.067789 0.764416 0.720478 0.334678
H67   H     H_    0.563211 0.726117 0.180126 0.337525
H68   H     H_    0.569361 0.259748 0.008604 0.097415
H69   H     H_    0.558950 0.274292 0.677151 0.340735
H70   H     H_    0.930162 0.300177 0.960913 0.335052
H71   H     H_    0.947548 0.726585 0.399786 0.358300
H72   H     H_    0.430403 0.799740 0.960553 0.335222
H73   H     H_    0.434034 0.200285 0.428574 0.341932
H74   H     H_    0.999543 0.188755 0.006243 0.088952
H75   H     H_    0.928295 0.191945 0.937647 0.117165
H76   H     H_    0.974102 0.233042 0.871865 0.202917
H77   H     H_    0.016299 0.826311 0.606993 0.081731
H78   H     H_    0.023024 0.792026 0.443911 0.205572
H79   H     H_    0.825372 0.363941 0.988315 0.110059
H80   H     H_    0.963377 0.827927 0.453256 0.130506
H81   H     H_    0.500550 0.688705 0.007487 0.089034
H82   H     H_    0.429331 0.691472 0.938232 0.116735
H83   H     H_    0.474924 0.732791 0.872605 0.203048
H84   H     H_    0.502133 0.312575 0.493835 0.093543
H85   H     H_    0.486440 0.266360 0.356896 0.199598
H86   H     H_    0.434727 0.306851 0.395600 0.116896
H87   H     H_    0.206527 0.501921 0.422943 0.082116
H88   H     H_    0.137025 0.483846 0.372765 0.101295
H89   H     H_    0.191383 0.440613 0.409173 0.080553
H90   H     H_    0.837685 0.644833 0.471743 0.118444
H91   H     H_    0.204334 0.498616 0.922177 0.083046
H92   H     H_    0.189394 0.560075 0.909183 0.084225
H93   H     H_    0.135061 0.516955 0.870101 0.099151
H94   H     H_    0.705639 0.002685 0.422583 0.082502
H95   H     H_    0.636576 0.983689 0.372101 0.099405
H96   H     H_    0.691496 0.941071 0.410118 0.081845
H97   H     H_    0.704710 0.998410 0.922260 0.083060
H98   H     H_    0.689527 0.059846 0.910267 0.083231
H99   H     H_    0.635300 0.016637 0.871282 0.099073
H100  H     H_    0.114639 0.446534 0.105355 0.126583
H101  H     H_    0.326150 0.863406 0.987296 0.110959
H102  H     H_    0.173827 0.435205 0.007776 0.109508
H103  H     H_    0.168459 0.405772 0.172919 0.071524
H104  H     H_    0.114205 0.553932 0.604452 0.127976
H105  H     H_    0.168126 0.594693 0.672332 0.066380
H106  H     H_    0.173645 0.564751 0.507547 0.110254
H107  H     H_    0.614723 0.946412 0.105747 0.125659
H108  H     H_    0.673892 0.935219 0.008057 0.109699
H109  H     H_    0.668739 0.905803 0.173334 0.071307
H110  H     H_    0.613725 0.053667 0.605296 0.130907
H111  H     H_    0.666914 0.094702 0.675770 0.075856
H112  H     H_    0.259284 0.540570 0.583610 0.072887
H113  H     H_    0.333415 0.142082 0.476249 0.113282
H114  H     H_    0.673172 0.065597 0.509556 0.109981
H115  H     H_    0.073341 0.580760 0.847110 0.030111
H116  H     H_    0.075200 0.420105 0.344909 0.034077
H117  H     H_    0.573834 0.080823 0.846941 0.040830
H118  H     H_    0.575032 0.920037 0.345182 0.033453
H119  H     H_    0.994783 0.304563 0.228818 -0.051201
H120  H     H_    0.982645 0.695257 0.695288 -0.017314
H121  H     H_    0.494778 0.804701 0.228556 -0.050147
H122  H     H_    0.487988 0.196078 0.709340 -0.041028
H123  H     H_    0.056231 0.326897 0.725396 0.365413
H124  H     H_    0.759593 0.961788 0.080254 0.072557
H125  H     H_    0.049253 0.683695 0.161185 0.335778
H126  H     H_    0.556570 0.826984 0.722407 0.364521
H127  H     H_    0.544411 0.179040 0.266995 0.366732
H128  H     H_    0.288119 0.524964 0.353551 0.091675
H129  H     H_    0.332042 0.505397 0.220731 0.124404
H130  H     H_    0.276322 0.544115 0.161502 0.114829
H131  H     H_    0.284714 0.471969 0.844946 0.093372
H132  H     H_    0.276264 0.457715 0.648444 0.109977
H133  H     H_    0.331375 0.494900 0.724471 0.124278
H134  H     H_    0.787608 0.025566 0.353400 0.091711
H135  H     H_    0.758778 0.040791 0.583029 0.072499
H136  H     H_    0.831989 0.005630 0.222212 0.124314
H137  H     H_    0.776303 0.044135 0.160709 0.114157
H138  H     H_    0.785423 0.973054 0.846159 0.092975
H139  H     H_    0.776186 0.958001 0.650206 0.111043
H140  H     H_    0.831297 0.995672 0.723005 0.123946
H141  H     H_    0.283836 0.440284 0.383624 0.303493
H142  H     H_    0.283004 0.557096 0.891955 0.303174
H143  H     H_    0.783842 0.940841 0.385316 0.303881
H144  H     H_    0.782806 0.058032 0.890853 0.303326
H145  H     H_    0.840639 0.497474 0.780681 0.190589
H146  H     H_    0.739531 0.486176 0.846057 0.114635
H147  H     H_    0.826751 0.560446 0.788388 0.032770
H148  H     H_    0.885485 0.534301 0.892638 0.046510
H149  H     H_    0.754395 0.506526 0.315312 0.145466
H150  H     H_    0.824817 0.502958 0.282756 0.151517
H151  H     H_    0.784172 0.450173 0.266696 0.095143
H152  H     H_    0.340122 0.997497 0.781339 0.191069
H153  H     H_    0.327194 0.060598 0.788966 0.028664
H154  H     H_    0.386021 0.033933 0.891039 0.047188
H155  H     H_    0.254375 0.007184 0.316179 0.147038
H156  H     H_    0.324661 0.003156 0.283240 0.153361
H157  H     H_    0.737718 0.482186 0.594480 0.099219
H158  H     H_    0.283593 0.950626 0.266788 0.095152
H159  H     H_    0.862510 0.561691 0.126204 0.145424
H160  H     H_    0.812304 0.596813 0.019535 0.039581
H161  H     H_    0.792275 0.564577 0.169216 0.142792
H162  H     H_    0.889345 0.459719 0.420171 0.032760
H163  H     H_    0.884000 0.446650 0.612367 0.176942
H164  H     H_    0.848788 0.410334 0.468237 0.003958
H165  H     H_    0.365194 0.063210 0.124254 0.144128
H166  H     H_    0.314043 0.097729 0.020633 0.036571
H167  H     H_    0.295433 0.065780 0.172401 0.141918
H168  H     H_    0.239844 0.987840 0.848407 0.112070
H169  H     H_    0.388947 0.959532 0.420402 0.033593
H170  H     H_    0.383585 0.946575 0.612561 0.176845
H171  H     H_    0.348167 0.910297 0.468552 0.004406
H172  H     H_    0.729782 0.593787 0.885471 0.129917
H173  H     H_    0.739257 0.561876 0.715203 0.088573
H174  H     H_    0.678244 0.554993 0.799409 0.141752
H175  H     H_    0.754527 0.389231 0.429002 0.111556
H176  H     H_    0.701779 0.399876 0.546582 0.161308
H177  H     H_    0.703720 0.434672 0.381730 0.112286
H178  H     H_    0.231578 0.095563 0.888337 0.129037
H179  H     H_    0.237445 0.982777 0.595039 0.099759
H180  H     H_    0.239851 0.063375 0.717632 0.087322
H181  H     H_    0.179234 0.057267 0.804007 0.141766
H182  H     H_    0.253779 0.889685 0.429634 0.111357
H183  H     H_    0.201053 0.900574 0.547113 0.160060
H184  H     H_    0.203219 0.935320 0.382237 0.110478
H185  H     H_    0.713503 0.478132 0.059662 0.313412
H186  H     H_    0.800306 0.400412 0.683723 0.335732
H187  H     H_    0.213122 0.980082 0.060876 0.312047
H188  H     H_    0.299884 0.900902 0.684395 0.335103
H189  H     H_    0.090303 0.214158 0.796681 0.311316
H190  H     H_    0.998176 0.284013 0.468230 -0.081131
H191  H     H_    0.084297 0.767069 0.169587 0.328644
H192  H     H_    0.590692 0.714434 0.795532 0.311469
H193  H     H_    0.603965 0.252757 0.236874 0.329342
H194  H     H_    0.929308 0.243507 0.319061 0.080528
H195  H     H_    0.893354 0.205198 0.181975 0.157156
H196  H     H_    0.960995 0.190541 0.256543 0.080443
H197  H     H_    0.911124 0.753642 0.757722 0.096668
H198  H     H_    0.959434 0.801617 0.790863 0.054318
H199  H     H_    0.901350 0.807710 0.654750 0.156866
H200  H     H_    0.429009 0.743406 0.318475 0.081580
N1    N     N_R   0.262340 0.709346 0.089608 -0.251720
N2    N     N_R   0.740730 0.701095 0.558529 -0.247573
N3    N     N_R   0.235376 0.801518 0.068227 -0.249635
N4    N     N_R   0.239092 0.199919 0.558841 -0.251376
N5    N     N_R   0.198749 0.768454 0.019933 -0.225401
N6    N     N_R   0.202036 0.232615 0.511109 -0.222345
N7    N     N_R   0.696332 0.269737 0.030898 -0.230441
N8    N     N_R   0.703440 0.733635 0.511544 -0.222925
N9    N     N_R   0.263570 0.292248 0.592059 -0.254603
N10   N     N_R   0.761178 0.210492 0.084677 -0.247349
N11   N     N_R   0.765510 0.793489 0.586607 -0.248397
N12   N     N_R   0.797937 0.243131 0.132645 -0.226833
N13   N     N_R   0.802555 0.761057 0.634625 -0.235145
N14   N     N_R   0.298665 0.742228 0.138494 -0.228894
N15   N     N_R   0.300267 0.259692 0.640957 -0.239600
N16   N     N_R   0.733376 0.302567 0.078281 -0.246745
O1    O     O_2   0.893910 0.433590 0.874460 -0.455527
O2    O     O_3   0.035947 0.705669 0.536663 -0.573264
O3    O     O_3   0.534725 0.794962 0.038829 -0.552368
O4    O     O_3   0.535217 0.204977 0.533077 -0.590068
O5    O     O_3   0.061740 0.523180 0.062830 -0.504191
O6    O     O_3   0.061740 0.476820 0.562830 -0.504757
O7    O     O_3   0.561740 0.023180 0.062830 -0.505412
O8    O     O_3   0.561740 0.976820 0.562830 -0.504824
O9    O     O_3   0.938210 0.476710 0.126870 -0.515254
O10   O     O_3   0.938210 0.523290 0.626870 -0.518265
O11   O     O_3   0.438210 0.976710 0.126870 -0.514224
O12   O     O_2   0.893910 0.566410 0.374460 -0.470264
O13   O     O_3   0.438210 0.023290 0.626870 -0.517916
O14   O     O_3   0.981570 0.392580 0.636990 -0.444298
O15   O     O_3   0.981570 0.607420 0.136990 -0.447819
O16   O     O_3   0.481570 0.892580 0.636990 -0.444032
O17   O     O_3   0.481570 0.107420 0.136990 -0.437065
O18   O     O_2   0.889669 0.355812 0.700925 -0.491427
O19   O     O_2   0.889991 0.640440 0.218323 -0.466274
O20   O     O_2   0.389746 0.855891 0.701480 -0.491548
O21   O     O_2   0.393517 0.145701 0.219799 -0.476770
O22   O     O_3   0.823755 0.476935 0.046906 -0.644150
O23   O     O_2   0.393910 0.933590 0.874460 -0.456490
O24   O     O_3   0.823006 0.523893 0.546125 -0.663489
O25   O     O_3   0.324129 0.977521 0.047702 -0.643354
O26   O     O_3   0.323016 0.023957 0.546693 -0.664228
O27   O     O_3   0.966210 0.294806 0.667647 -0.617684
O28   O     O_3   0.955163 0.703900 0.149386 -0.622961
O29   O     O_3   0.466312 0.794874 0.667880 -0.617176
O30   O     O_3   0.462023 0.206782 0.135116 -0.634693
O31   O     O_2   0.105800 0.433150 0.815270 -0.480274
O32   O     O_2   0.105800 0.566850 0.315270 -0.479378
O33   O     O_2   0.605800 0.933150 0.815270 -0.480199
O34   O     O_2   0.393910 0.066410 0.374460 -0.475800
O35   O     O_2   0.605800 0.066850 0.315270 -0.470381
O36   O     O_3   0.018000 0.392500 0.052760 -0.499593
O37   O     O_3   0.018000 0.607500 0.552760 -0.494858
O38   O     O_3   0.518000 0.892500 0.052760 -0.499637
O39   O     O_3   0.518000 0.107500 0.552760 -0.496224
O40   O     O_2   0.107677 0.354311 0.977599 -0.454344
O41   O     O_2   0.107847 0.645068 0.479038 -0.453900
O42   O     O_2   0.607668 0.854425 0.977125 -0.453018
O43   O     O_2   0.608726 0.144845 0.484372 -0.453789
O44   O     O_3   0.050447 0.321364 0.615799 -0.763751
O45   O     O_3   0.176677 0.475524 0.650916 -0.673271
O46   O     O_3   0.036695 0.689913 0.054106 -0.759510
O47   O     O_3   0.550265 0.821274 0.612935 -0.764235
O48   O     O_3   0.549815 0.176427 0.160056 -0.743440
O49   O     O_3   0.272894 0.430341 0.278598 -0.735917
O50   O     O_3   0.272606 0.568777 0.788630 -0.735348
O51   O     O_3   0.772937 0.930658 0.280503 -0.734456
O52   O     O_3   0.772135 0.069459 0.787364 -0.734395
O53   O     O_3   0.716731 0.512535 0.040434 -0.728453
O54   O     O_3   0.786599 0.432376 0.704922 -0.750341
O55   O     O_3   0.217843 0.014450 0.043791 -0.729260
O56   O     O_3   0.177063 0.525031 0.151160 -0.671546
O57   O     O_3   0.285926 0.932782 0.705593 -0.750123
O58   O     O_3   0.062139 0.239275 0.783910 -0.701781
O59   O     O_3   0.048732 0.772386 0.207694 -0.726198
O60   O     O_3   0.562531 0.739556 0.782887 -0.701539
O61   O     O_3   0.567311 0.267176 0.234388 -0.720846
O62   O     O_3   0.156058 0.717425 0.731155 -0.716816
O63   O     O_3   0.154436 0.281212 0.231603 -0.695153
O64   O     O_3   0.649998 0.221540 0.738651 -0.698271
O65   O     O_3   0.655275 0.781807 0.230364 -0.695918
O66   O     O_3   0.044580 0.246623 0.246663 -0.775042
O67   O     O_3   0.676602 0.975687 0.650968 -0.673145
O68   O     O_3   0.042629 0.743019 0.765909 -0.784862
O69   O     O_3   0.544953 0.747000 0.247586 -0.776108
O70   O     O_3   0.538401 0.253549 0.739282 -0.793628
O71   O     O_3   0.915454 0.280716 0.038672 -0.738971
O72   O     O_3   0.927047 0.742223 0.473780 -0.722583
O73   O     O_3   0.415735 0.780239 0.038282 -0.739650
O74   O     O_3   0.415942 0.220812 0.497329 -0.732044
O75   O     O_3   0.677031 0.025022 0.151094 -0.676375
O76   O     O_3   0.034500 0.294922 0.038636 -0.552569
P1    P     P_3+3 0.888690 0.449140 0.046940 0.973773
P2    P     P_3+3 0.067007 0.651808 0.595065 1.036891
P3    P     P_3+3 0.567257 0.848417 0.094578 1.033479
P4    P     P_3+3 0.566617 0.151936 0.596721 1.008595
P5    P     P_3+3 0.928228 0.648333 0.096769 0.971588
P6    P     P_3+3 0.933862 0.346849 0.595873 0.951964
P7    P     P_3+3 0.431319 0.151018 0.095464 0.952000
P8    P     P_3+3 0.433845 0.846879 0.596158 0.952650
P9    P     P_3+3 0.888690 0.550860 0.546940 0.949609
P10   P     P_3+3 0.388690 0.949140 0.046940 0.974558
P11   P     P_3+3 0.388690 0.050860 0.546940 0.945549
P12   P     P_3+3 0.111080 0.448680 0.642780 0.956475
P13   P     P_3+3 0.111080 0.551320 0.142780 0.953498
P14   P     P_3+3 0.611080 0.948680 0.642780 0.956228
P15   P     P_3+3 0.611080 0.051320 0.142780 0.965411
P16   P     P_3+3 0.067129 0.348321 0.094695 1.032289

loop_
_geom_bond_atom_site_label_1
_geom_bond_atom_site_label_2
_ccdc_geom_bond_type
C101  C106  S    
C17   H23   S    
C83   C87   D    
C15   H15   S    
Ba2   O15   S    
C13   C44   A    
C103  C125  S    
C78   O2    S    
C37   C101  S    
Ba4   O11   S    
C127  H133  S    
C30   H75   S    
C119  H13   S    
O24   P9    S    
Ba1   O10   S    
Ba4   O17   S    
O76   P16   S    
Ba1   O14   S    
C72   C94   D    
C128  H136  S    
C113  H157  S    
C27   H55   S    
Ba4   O34   S    
O19   P5    D    
C28   H61   S    
C20   H31   S    
C42   H110  S    
C135  H162  S    
Ba2   O37   S    
C92   H117  S    
C66   C70   A    
C64   C86   S    
C12   H9    S    
C52   C122  A    
C36   H92   S    
C136  H167  S    
N9    N15   A    
C18   C65   S    
O21   P7    D    
C5    H176  S    
C68   C90   D    
C102  O67   S    
C62   N14   A    
C16   H18   S    
Ba4   O39   S    
C80   H122  S    
C14   H12   S    
H123  O44   S    
O15   P5    S    
O33   P14   D    
H193  O61   S    
C10   H4    S    
C77   H119  S    
C78   H120  S    
C70   P15   S    
C103  O49   S    
C2    C93   A    
C108  C134  S    
H142  O50   S    
C101  O75   S    
C113  O54   S    
C82   P6    S    
C93   C122  A    
Ba2   O6    S    
C16   C24   S    
H189  O58   S    
C29   H63   S    
H185  O53   S    
O5    P13   S    
O42   P3    D    
Ba2   P13   S    
C10   H200  S    
C81   C86   D    
C21   H39   S    
C30   C95   S    
C61   N2    A    
C23   H47   S    
O43   P4    D    
Ba4   O8    S    
C111  O26   S    
C132  H154  S    
C40   H105  S    
C22   H42   S    
C33   H86   S    
C117  O27   S    
C25   H49   S    
C69   C91   D    
C134  H160  S    
C8    H195  S    
C9    H197  S    
H34   O62   S    
O67   P14   S    
H143  O51   S    
Ba1   P1    S    
C116  O57   S    
C108  C130  S    
C36   H93   S    
C77   O66   S    
C67   C89   S    
C129  H139  S    
Ba1   O6    S    
C134  H161  S    
O6    P12   S    
C75   C92   S    
C48   H101  S    
O75   P15   S    
C51   P1    S    
O4    P4    S    
C7    H183  S    
O3    P3    S    
O1    P1    D    
C4    C112  S    
C18   H26   S    
O9    P1    S    
C44   C48   A    
C16   H20   S    
C58   C89   S    
C110  C132  S    
C32   C97   S    
C99   C103  S    
Ba3   O7    S    
O32   P13   D    
C27   H58   S    
Ba3   O33   S    
C74   C83   A    
C136  H166  S    
C54   C124  A    
C80   C98   S    
C68   P13   S    
C60   O60   S    
C38   H98   S    
C21   H40   S    
C114  O55   S    
C53   P10   S    
O36   P16   S    
C28   H59   S    
C49   C118  S    
C22   C122  S    
C59   N12   A    
C26   H53   S    
C120  O48   S    
Ba3   P10   S    
C46   H79   S    
C23   H45   S    
Ba1   P12   S    
C8    C95   S    
N1    N14   A    
C41   H109  S    
H65   O66   S    
C29   C71   S    
C127  H132  S    
C111  C133  S    
C109  C135  S    
C110  C136  S    
N7    N16   A    
C98   O74   S    
C9    H199  S    
Ba2   O5    S    
C135  H163  S    
C73   P2    S    
C14   H14   S    
H126  O47   S    
H71   O72   S    
C73   C81   A    
C19   C66   S    
C7    C116  S    
C31   H77   S    
C41   H108  S    
C131  H150  S    
C41   C101  S    
C34   H89   S    
C102  C107  S    
C39   H102  S    
C118  O28   S    
C2    C43   A    
O45   P12   S    
C71   C120  S    
C70   C92   D    
C28   C60   S    
C39   H100  S    
C75   P4    S    
C82   C126  A    
C37   H95   S    
C3    H170  S    
C33   C98   S    
C57   N7    A    
O25   P10   S    
C83   O63   S    
C49   H46   S    
C34   C99   S    
C24   C45   A    
C130  H148  S    
C19   H29   S    
O35   P15   D    
C4    H172  S    
C63   N4    A    
C93   P5    S    
C125  H128  S    
C109  C113  S    
Ba4   P11   S    
H144  O52   S    
N3    N5    A    
C17   C64   S    
C109  C131  S    
O40   P16   D    
C79   H121  S    
C95   O71   S    
O7    P15   S    
C31   C96   S    
C108  C112  S    
C40   H104  S    
C1    C26   S    
H191  O59   S    
H192  O60   S    
C17   H22   S    
C79   C97   S    
H186  O54   S    
C8    H194  S    
C53   C123  A    
C11   H6    S    
O17   P7    S    
Ba1   O36   S    
C56   N9    A    
H36   O63   S    
N2    N8    A    
C90   H115  S    
C115  C124  A    
C81   O62   S    
C94   H118  S    
C42   C102  S    
Ba3   O23   S    
C85   C89   D    
C20   H32   S    
C42   H111  S    
C49   O59   S    
C62   N3    A    
C110  O25   S    
C57   N10   A    
C12   H10   S    
C44   C62   S    
C65   C87   S    
C32   H81   S    
Ba3   Ba4   S    
C34   H87   S    
C47   H90   S    
O22   P1    S    
O10   P9    S    
C108  O22   S    
C59   N16   A    
C4    H173  S    
Ba3   O38   S    
C85   O65   S    
O26   P11   S    
C119  O47   S    
C67   C72   A    
Ba1   O1    S    
C29   H62   S    
C116  H179  S    
C76   C85   A    
C21   C121  S    
C125  H130  S    
C23   C123  S    
C100  O45   S    
C51   C121  A    
H73   O74   S    
Ba1   O31   S    
C105  C127  S    
C106  C128  S    
C56   N6    A    
C12   C126  S    
C57   C88   S    
C40   H106  S    
C22   H43   S    
H38   O65   S    
C33   H85   S    
C61   N13   A    
C60   H57   S    
C15   H16   S    
C1    H35   S    
O8    P14   S    
C20   H33   S    
C8    H196  S    
C75   C84   A    
C117  H190  S    
O18   P6    D    
C72   P14   S    
H72   O73   S    
C99   O56   S    
C30   H74   S    
C13   C104  A    
O12   P9    D    
C10   C97   S    
C43   C47   A    
C39   H103  S    
C129  H138  S    
O41   P2    D    
C58   N8    A    
Ba2   O9    S    
C96   O72   S    
C71   H68   S    
C97   O73   S    
C3    H171  S    
C74   C91   S    
C130  H147  S    
C112  O53   S    
C36   H91   S    
N10   N12   A    
C32   H83   S    
Ba3   O13   S    
C5    H177  S    
C18   H27   S    
C37   H96   S    
C80   O70   S    
Ba3   O16   S    
C132  H152  S    
C14   H11   S    
C55   N5    A    
C10   H3    S    
C76   C94   S    
C133  H156  S    
C66   C88   S    
O28   P5    S    
C38   H99   S    
N11   N13   A    
C60   C119  S    
C77   C95   S    
C29   H64   S    
C28   H60   S    
C58   N11   A    
C11   H7    S    
Ba4   P15   S    
C26   H54   S    
O23   P10   D    
O16   P8    S    
H188  O57   S    
C23   H48   S    
Ba4   O7    S    
C39   C99   S    
C48   C53   A    
C104  P8    S    
C19   H28   S    
C38   C102  S    
C77   O76   S    
C127  H131  S    
Ba1   O5    S    
C25   H50   S    
H37   O64   S    
C30   H76   S    
C134  H159  S    
C9    H198  S    
C42   H114  S    
C119  O29   S    
C120  H24   S    
C55   N1    A    
C105  H112  S    
C5    C113  S    
C73   C90   S    
C31   H80   S    
C41   H107  S    
C40   C100  S    
C120  O30   S    
C115  P7    S    
C128  H137  S    
C129  H140  S    
Ba4   O35   S    
Ba1   Ba2   S    
O30   P7    S    
C100  C105  S    
C80   O4    S    
H127  O48   S    
C6    H181  S    
C37   H94   S    
C3    H169  S    
C45   C50   A    
O13   P11   S    
C1    C117  S    
H125  O46   S    
C69   P12   S    
C7    H184  S    
H141  O49   S    
C47   C52   A    
C3    C111  S    
C54   P11   S    
C18   H25   S    
C6    H180  S    
O37   P2    S    
C84   C88   D    
C16   H19   S    
C114  H168  S    
C112  H146  S    
O39   P4    S    
C107  H135  S    
Ba3   O8    S    
C106  H124  S    
C64   C68   A    
C71   O61   S    
O56   P13   S    
C105  O50   S    
Ba2   P9    S    
C11   C98   S    
H69   O70   S    
C82   C121  A    
C133  H158  S    
C109  O24   S    
O38   P3    S    
C79   O69   S    
C133  H155  S    
C38   H97   S    
C21   H41   S    
H187  O55   S    
C118  O46   S    
C2    C14   S    
C17   H21   S    
C15   H17   S    
C52   P9    S    
C1    O58   S    
C11   H5    S    
H70   O71   S    
C107  C129  S    
C78   O68   S    
O14   P6    S    
C55   C86   S    
C65   C69   A    
C6    C114  S    
C36   C100  S    
C131  H149  S    
H66   O68   S    
C132  H153  S    
C128  H134  S    
C107  O52   S    
H67   O69   S    
C25   H51   S    
C27   C49   S    
O20   P8    D    
Ba2   O12   S    
C135  H164  S    
C110  C114  S    
C79   O3    S    
O29   P8    S    
N4    N6    A    
C106  O51   S    
C26   H52   S    
O2    P2    S    
C50   H113  S    
Ba3   P14   S    
C103  H1    S    
C118  H2    S    
C31   H78   S    
C32   H82   S    
C34   H88   S    
C50   C54   A    
C56   C87   S    
O11   P10   S    
C45   C63   S    
C4    H174  S    
C78   C96   S    
O34   P11   D    
C33   H84   S    
C24   C115  A    
Ba2   O32   S    
C35   C126  A    
C35   C59   S    
C46   C51   A    
C7    H182  S    
C63   N15   A    
C12   H8    S    
C9    C96   S    
O31   P12   D    
C117  O44   S    
C6    H178  S    
C19   H30   S    
C91   H116  S    
C13   C15   S    
C136  H165  S    
C130  H145  S    
C104  C123  A    
C125  H129  S    
C27   H56   S    
C76   P3    S    
C35   C46   A    
C74   P16   S    
C111  C116  S    
C25   C124  S    
O27   P6    S    
C5    H175  S    
C84   O64   S    
C131  H151  S    
C43   C61   S    
C20   C67   S    
C22   H44   S    
