data_mof_unit_26656.cif
_audit_creation_date              2012-10-26T18:59:54-0400
_audit_creation_method            fapswitch 2.2
_symmetry_space_group_name_H-M    P1
_symmetry_Int_Tables_number       1
_space_group_crystal_system       triclinic
_cell_length_a                    9.540167
_cell_length_b                    10.826744
_cell_length_c                    17.022492
_cell_angle_alpha                 89.530985
_cell_angle_beta                  93.520149
_cell_angle_gamma                 89.796531
_cell_volume                      1754.84466397

loop_
_atom_site_label
_atom_site_type_symbol
_atom_type_description
_atom_site_fract_x
_atom_site_fract_y
_atom_site_fract_z
_atom_type_partial_charge
C1    C     C_R   0.500061 0.262283 0.498601 0.575499
C2    C     C_R   0.499180 0.129287 0.490600 0.014947
C3    C     C_R   0.371259 0.065164 0.481320 -0.115743
C4    C     C_R   0.516899 0.501574 0.651057 0.545533
C5    C     C_R   0.370800 0.936406 0.481413 -0.153068
C6    C     C_R   0.498217 0.870846 0.490916 0.009947
C7    C     C_R   0.623973 0.935774 0.489221 -0.014405
C8    C     C_3   0.753724 0.927226 0.542782 -0.264502
C9    C     C_3   0.755869 0.067823 0.541484 -0.095115
C10   C     C_R   0.066253 0.525931 0.432671 0.185339
C11   C     C_R   0.081540 0.463332 0.564586 0.035561
C12   C     C_R   0.653038 0.503573 0.780945 -0.150602
C13   C     C_R   0.932904 0.463623 0.564653 0.044652
C14   C     C_R   0.918867 0.525547 0.432565 0.173268
C15   C     C_3   0.907462 0.641766 0.384953 -0.285327
C16   C     C_R   0.499572 0.737699 0.498626 0.544142
C17   C     C_3   0.066656 0.642469 0.385528 -0.281674
C18   C     C_R   0.482929 0.497838 0.349198 0.589921
C19   C     C_R   0.524568 0.515330 0.736971 -0.023841
C20   C     C_R   0.403332 0.548027 0.774876 -0.117314
C21   C     C_R   0.408878 0.568281 0.856152 0.042226
C22   C     C_R   0.538276 0.550520 0.900275 0.186444
C23   C     C_R   0.560322 0.574371 0.141864 -0.094099
C24   C     C_R   0.659510 0.521231 0.862002 -0.099242
C25   C     C_2   0.878289 0.119068 0.500440 0.246176
C26   C     C_2   0.293116 0.319572 0.255941 0.220402
C27   C     C_2   0.281416 0.612792 0.893423 0.243474
C28   C     C_R   0.562065 0.573603 0.223473 -0.182863
C29   C     C_R   0.469549 0.495061 0.097973 0.209168
C30   C     C_R   0.474645 0.493776 0.263124 0.022640
C31   C     C_R   0.382918 0.413131 0.219548 -0.017972
C32   C     C_R   0.380440 0.416867 0.137207 -0.132302
C33   C     C_R   0.624829 0.063046 0.488424 -0.013273
Cu1   Cu    Cu3+1 0.640670 0.499980 0.500000 0.966427
Cu2   Cu    Cu3+1 0.359330 0.500020 0.500000 0.991565
H1    H     H_    0.631153 0.636812 0.255900 0.113566
H2    H     H_    0.106874 0.627850 0.326375 0.136002
H3    H     H_    0.629918 0.637106 0.113535 0.145625
H4    H     H_    0.115195 0.720713 0.418991 0.138595
H5    H     H_    0.758914 0.509500 0.895567 0.148949
H6    H     H_    0.748288 0.480091 0.752840 0.139064
H7    H     H_    0.311517 0.355553 0.102913 0.114062
H8    H     H_    0.304835 0.561418 0.740638 0.170542
H9    H     H_    0.271573 0.113725 0.477860 0.182788
H10   H     H_    0.891848 0.097613 0.439150 0.113721
H11   H     H_    0.202836 0.282690 0.222084 0.098583
H12   H     H_    0.270932 0.888977 0.478049 0.131219
H13   H     H_    0.288281 0.646291 0.953390 0.142896
H14   H     H_    0.732858 0.887846 0.601457 0.142295
H15   H     H_    0.842084 0.882620 0.513965 0.127405
H16   H     H_    0.739607 0.109988 0.599674 0.149674
H17   H     H_    0.142396 0.434429 0.617188 0.129921
H18   H     H_    0.883889 0.434772 0.617280 0.128973
H19   H     H_    0.856845 0.626159 0.325417 0.127522
H20   H     H_    0.863402 0.719953 0.417461 0.143228
N1    N     N_2   0.549271 0.559081 0.983164 -0.268852
N2    N     N_2   0.464720 0.489580 0.014610 -0.246636
N3    N     N_R   0.147870 0.500930 0.499500 -0.236941
N4    N     N_R   0.851960 0.500890 0.499500 -0.237085
O1    O     O_R   0.618810 0.319640 0.500000 -0.490002
O2    O     O_2   0.321721 0.277984 0.321829 -0.494530
O3    O     O_2   0.166836 0.613953 0.857218 -0.528672
O4    O     O_R   0.381230 0.319680 0.499990 -0.467078
O5    O     O_R   0.631790 0.498830 0.613930 -0.515815
O6    O     O_R   0.394210 0.498870 0.613920 -0.521199
O7    O     O_R   0.618770 0.680320 0.500010 -0.506797
O8    O     O_R   0.381190 0.680360 0.500000 -0.516654
O9    O     O_R   0.605790 0.501130 0.386080 -0.507657
O10   O     O_R   0.368210 0.501170 0.386070 -0.467646
O11   O     O_2   0.964711 0.183539 0.536197 -0.525057

loop_
_geom_bond_atom_site_label_1
_geom_bond_atom_site_label_2
_ccdc_geom_bond_type
C27   H13   S    
C8    C9    S    
Cu1   O1    S    
C6    C7    A    
C18   C30   S    
C27   O3    D    
C8    H15   S    
C11   N3    A    
C5    H12   S    
C22   N1    S    
C4    O5    A    
C11   H17   S    
C19   C20   A    
C9    H16   S    
Cu2   O8    S    
Cu1   O7    S    
C18   O10   A    
C28   C30   A    
C2    C3    A    
C21   C27   S    
C9    C25   S    
C26   C31   S    
C16   O8    A    
C17   H2    S    
C21   C22   A    
N1    N2    D    
C9    C33   S    
C14   N4    A    
C7    C33   A    
C28   H1    S    
C5    C6    A    
Cu2   N3    S    
C13   N4    A    
C23   C29   A    
C12   C19   A    
Cu1   O5    S    
C24   H5    S    
C26   O2    D    
C29   N2    S    
Cu1   Cu2   S    
C29   C32   A    
C13   H18   S    
C12   C24   A    
C17   H4    S    
C30   C31   A    
C22   C24   A    
C3    H9    S    
Cu1   N4    S    
C16   O7    A    
C23   C28   A    
C26   H11   S    
C10   C17   S    
C6    C16   S    
C23   H3    S    
C15   H19   S    
C25   H10   S    
C11   C13   A    
C20   H8    S    
C20   C21   A    
Cu2   O10   S    
C12   H6    S    
C1    C2    S    
C10   C14   A    
C1    O1    A    
Cu1   O9    S    
C15   C17   S    
C7    C8    S    
C32   H7    S    
C4    O6    A    
C1    O4    A    
Cu2   O4    S    
C25   O11   D    
C10   N3    A    
C14   C15   S    
C4    C19   S    
C18   O9    A    
C8    H14   S    
C31   C32   A    
C2    C33   A    
Cu2   O6    S    
C3    C5    A    
C15   H20   S    
