data_mof_unit_45077.cif
_audit_creation_date              2013-03-05T16:02:24-0500
_audit_creation_method            fapswitch 2.2
_symmetry_space_group_name_H-M    P1
_symmetry_Int_Tables_number       1
_space_group_crystal_system       triclinic
_cell_length_a                    15.169802
_cell_length_b                    14.291773
_cell_length_c                    10.90324
_cell_angle_alpha                 90.629033
_cell_angle_beta                  87.905184
_cell_angle_gamma                 87.949394
_cell_volume                      2360.58794985

loop_
_atom_site_label
_atom_site_type_symbol
_atom_site_description
_atom_site_fract_x
_atom_site_fract_y
_atom_site_fract_z
_atom_type_partial_charge
O1    O     O_R   0.367860 0.580280 0.500020 -0.662030
O2    O     O_R   0.367860 0.419720 0.500020 -0.628749
C1    C     C_R   0.326783 0.501365 0.501547 0.913754
O3    O     O_R   0.500000 0.580270 0.314790 -0.591511
O4    O     O_R   0.500000 0.419730 0.314790 -0.582737
C2    C     C_R   0.500729 0.498984 0.257113 0.977687
Zn1   Zn    Zn3+2 0.500020 0.607200 0.499990 1.030193
Zn2   Zn    Zn3+2 0.500020 0.392800 0.499990 1.037869
O5    O     O_R   0.632160 0.580270 0.499960 -0.538917
O6    O     O_R   0.632160 0.419730 0.499960 -0.566614
O7    O     O_R   0.500030 0.580270 0.685200 -0.634102
O8    O     O_R   0.500030 0.419730 0.685200 -0.637125
C3    C     C_R   0.672972 0.498855 0.503060 1.005200
C4    C     C_R   0.494214 0.500656 0.741198 0.931366
C5    C     C_3   0.440727 0.587786 0.076554 0.093533
C6    C     C_3   0.455466 0.402410 0.068848 0.107251
C7    C     C_3   0.435347 0.585120 0.932449 -0.121866
C8    C     C_3   0.463643 0.403537 0.925766 -0.113917
H1    H     H_    0.466398 0.649011 0.895426 0.169093
H2    H     H_    0.520158 0.354938 0.897379 0.208123
H3    H     H_    0.605725 0.586428 0.886599 0.259338
H4    H     H_    0.632263 0.466950 0.859964 0.244800
C9    C     C_3   0.597996 0.501250 0.056765 0.404654
C10   C     C_3   0.499277 0.497161 0.118574 -0.105593
C11   C     C_3   0.491945 0.500835 0.876883 -0.045859
C12   C     C_3   0.587472 0.515385 0.915417 -0.549720
C13   C     C_R   0.821353 0.450655 0.420146 0.080964
C14   C     C_R   0.768917 0.497097 0.511348 -0.137001
C15   C     C_R   0.808494 0.544810 0.607552 0.274032
C16   C     C_R   0.901096 0.552891 0.604681 -0.104767
C17   C     C_R   0.952821 0.495036 0.522191 -0.019699
C18   C     C_R   0.911853 0.436331 0.437225 -0.017860
C19   C     C_R   0.942988 0.618008 0.679880 0.250058
C20   C     C_R   0.035462 0.620432 0.679006 0.209288
C21   C     C_R   0.088092 0.558977 0.600525 -0.059840
C22   C     C_R   0.045451 0.497876 0.520699 0.000258
C23   C     C_R   0.095365 0.440168 0.436491 -0.009011
C24   C     C_R   0.054180 0.373958 0.365458 -0.136908
C25   C     C_R   0.963610 0.370499 0.365781 0.245642
C26   C     C_R   0.181993 0.555437 0.598177 0.031580
C27   C     C_R   0.230124 0.503315 0.506496 -0.186321
C28   C     C_R   0.186232 0.448032 0.423813 0.254733
H5    H     H_    0.092476 0.321845 0.311422 0.229140
C29   C     C_R   0.569270 0.795994 0.445958 0.393108
C30   C     C_R   0.575545 0.197357 0.470070 0.367819
N1    N     N_R   0.500070 0.750030 0.500050 -0.188236
N2    N     N_R   0.500070 0.249970 0.500050 -0.188963
C31   C     C_R   0.430997 0.801957 0.554587 0.126789
C32   C     C_R   0.426960 0.203488 0.543317 0.160097
C33   C     C_R   0.426404 0.902118 0.548945 0.060301
C34   C     C_R   0.424381 0.103234 0.541942 0.054394
C35   C     C_R   0.500172 0.949307 0.501719 -0.031211
C36   C     C_R   0.499923 0.049826 0.500732 -0.034341
C37   C     C_R   0.574398 0.895737 0.455711 -0.200265
C38   C     C_R   0.576366 0.096948 0.462896 -0.206455
C39   C     C_R   0.349768 0.956091 0.588035 0.048909
C40   C     C_R   0.348102 0.055041 0.582049 0.064067
C41   C     C_R   0.652230 0.041751 0.422853 0.224948
C42   C     C_R   0.651028 0.943615 0.418765 0.237322
N3    N     N_3   0.481761 0.675806 0.113091 -0.379391
H6    H     H_    0.436710 0.732305 0.104677 0.188767
H7    H     H_    0.534937 0.691421 0.054567 0.239217
N4    N     N_3   0.501619 0.315280 0.109106 -0.356812
H8    H     H_    0.475621 0.292567 0.193248 0.247878
H9    H     H_    0.489582 0.259404 0.049876 0.178062
N5    N     N_R   0.073423 0.694359 0.746711 0.202049
O9    O     O_R   0.080872 0.687543 0.864815 -0.332962
O10   O     O_R   0.086161 0.774315 0.694221 -0.344316
N6    N     N_3   0.229811 0.593603 0.695900 -0.453664
H10   H     H_    0.225814 0.666330 0.693199 0.246695
H11   H     H_    0.201670 0.570021 0.778233 0.227428
N7    N     N_R   0.231567 0.407609 0.317971 0.184168
O11   O     O_R   0.276286 0.328936 0.328420 -0.425887
O12   O     O_R   0.201949 0.430206 0.211357 -0.413710
N8    N     N_R   0.926648 0.292330 0.305672 0.196688
O13   O     O_R   0.875795 0.237813 0.368515 -0.234954
O14   O     O_R   0.955927 0.265816 0.196538 -0.303963
N9    N     N_R   0.628337 0.745797 0.361869 0.253348
O15   O     O_R   0.704021 0.713403 0.398552 -0.260192
O16   O     O_R   0.619958 0.760972 0.245500 -0.319334
N10   N     N_R   0.656539 0.243398 0.462224 0.237417
O17   O     O_R   0.688297 0.267061 0.355801 -0.288087
O18   O     O_R   0.704998 0.248214 0.558005 -0.321268
N11   N     N_3   0.361165 0.755088 0.615534 -0.425021
H12   H     H_    0.386605 0.699822 0.666235 0.243467
H13   H     H_    0.319024 0.732502 0.548680 0.231392
N12   N     N_3   0.356772 0.254615 0.607146 -0.424039
H14   H     H_    0.309442 0.275412 0.545050 0.260378
H15   H     H_    0.381536 0.310622 0.654183 0.252897
N13   N     N_3   0.271560 0.910658 0.630600 -0.414519
H16   H     H_    0.254780 0.932910 0.720310 0.221898
H17   H     H_    0.219710 0.927279 0.573278 0.226850
N14   N     N_3   0.267067 0.106160 0.614088 -0.435951
H18   H     H_    0.217895 0.085937 0.555670 0.217114
H19   H     H_    0.248047 0.092402 0.704994 0.210334
N15   N     N_R   0.733293 0.082948 0.385593 0.266829
O19   O     O_R   0.798224 0.080369 0.460360 -0.221230
O20   O     O_R   0.750211 0.095806 0.269243 -0.230690
N16   N     N_R   0.732655 0.894106 0.387665 0.257942
O21   O     O_R   0.762417 0.891175 0.274181 -0.219628
O22   O     O_R   0.785787 0.871828 0.474545 -0.235893
N17   N     N_3   0.351452 0.588658 0.136362 -0.423254
H20   H     H_    0.314477 0.647803 0.110181 0.202409
H21   H     H_    0.354447 0.594844 0.231513 0.219319
N18   N     N_3   0.363289 0.398102 0.113304 -0.358117
H22   H     H_    0.321350 0.437471 0.059820 0.243803
H23   H     H_    0.341856 0.329595 0.105187 0.229179
N19   N     N_3   0.345997 0.590459 0.886073 -0.463730
H24   H     H_    0.321566 0.659732 0.894798 0.206803
H25   H     H_    0.302245 0.549832 0.935573 0.216498
N20   N     N_3   0.387824 0.365338 0.864188 -0.468410
H26   H     H_    0.371964 0.300461 0.900596 0.195914
H27   H     H_    0.332240 0.410030 0.865901 0.203760
N21   N     N_R   0.649190 0.576857 0.110188 0.220936
O23   O     O_R   0.668196 0.572862 0.225127 -0.327931
O24   O     O_R   0.694626 0.632786 0.041077 -0.246450
N22   N     N_R   0.650465 0.413791 0.074129 0.212550
O25   O     O_R   0.647749 0.374811 0.180672 -0.333283
O26   O     O_R   0.720239 0.394803 0.003848 -0.297984
N23   N     N_3   0.786611 0.439732 0.300770 -0.315153
H28   H     H_    0.792283 0.370734 0.270933 0.309235
H29   H     H_    0.823883 0.479290 0.239146 0.251243
N24   N     N_R   0.756112 0.577046 0.712701 0.181955
O27   O     O_R   0.777077 0.548058 0.820840 -0.311719
O28   O     O_R   0.698639 0.646150 0.703654 -0.328207
N25   N     N_R   0.892697 0.691209 0.744557 0.272578
O29   O     O_R   0.852559 0.756499 0.683219 -0.235357
O30   O     O_R   0.895808 0.699241 0.863284 -0.202584

loop_
_geom_bond_atom_site_label_1
_geom_bond_atom_site_label_2
_geom_bond_distance
_ccdc_geom_bond_type
N5    O10   1.301052 A    
H3    C12   1.107728 S    
N4    H9    1.046817 S    
N25   O29   1.300594 A    
C42   N16   1.431883 S    
C5    N3    1.480481 S    
C32   N12   1.425097 S    
C21   C22   1.415415 A    
N12   H14   1.042562 S    
C20   N5    1.431912 S    
N21   O23   1.297583 A    
N24   O27   1.300645 A    
N2    C32   1.383923 A    
C13   N23   1.431016 S    
C39   C40   1.415762 A    
Zn1   O7    2.059890 S    
N18   H23   1.046484 S    
N14   H18   1.044882 S    
C22   C23   1.408678 A    
N11   H13   1.043000 S    
N22   O26   1.302588 A    
C16   C17   1.412067 A    
Zn2   O6    2.054620 S    
O7    C4    1.301420 A    
N9    O16   1.299580 A    
N24   O28   1.300791 A    
N19   H24   1.046729 S    
N3    H7    1.042147 S    
C20   C21   1.422812 A    
C27   C28   1.395069 A    
C30   N2    1.374330 A    
C23   C28   1.389000 A    
C9    C12   1.569707 S    
C41   N15   1.429836 S    
O5    C3    1.299673 A    
C1    C27   1.464571 S    
N20   H26   1.045096 S    
C29   N1    1.376206 A    
C32   C34   1.434668 A    
N15   O20   1.301405 A    
C33   C35   1.411286 A    
C9    C10   1.622829 S    
C3    C14   1.460893 S    
C34   C40   1.425210 A    
C6    N4    1.485118 S    
C25   N8    1.430948 S    
C15   C16   1.412845 A    
C39   N13   1.437369 S    
N5    O9    1.301182 A    
C6    C10   1.626052 S    
C40   N14   1.437234 S    
N17   H20   1.045797 S    
C8    C11   1.563440 S    
O3    Zn1   2.051491 S    
N10   O18   1.301512 A    
C35   C37   1.412180 A    
N10   O17   1.293174 A    
C37   C42   1.417933 A    
C36   C38   1.412608 A    
C24   C25   1.376457 A    
N1    C31   1.375277 A    
N6    H11   1.044327 S    
C26   N6    1.425152 S    
Zn1   N1    2.041314 S    
N11   H12   1.040080 S    
N7    O12   1.301323 A    
C7    N19   1.463629 S    
N9    O15   1.300801 A    
C41   C42   1.403553 A    
C33   C39   1.421475 A    
C31   N11   1.421812 S    
N3    H6    1.046039 S    
O1    C1    1.307868 A    
N8    O13   1.299134 A    
C23   C24   1.395412 A    
C29   C37   1.433397 A    
N13   H17   1.044757 S    
N16   O21   1.301262 A    
Zn2   O8    2.051591 S    
C2    C10   1.511446 S    
N15   O19   1.301104 A    
C28   N7    1.427369 S    
C19   C20   1.404161 A    
N23   H28   1.034633 S    
N20   H27   1.038914 S    
C5    C10   1.623808 S    
C8    N20   1.471407 S    
N17   H21   1.043027 S    
N8    O14   1.302372 A    
C6    N18   1.466719 S    
C6    C8    1.560754 S    
C26   C27   1.406629 A    
N16   O22   1.300936 A    
O8    C4    1.300579 A    
N12   H15   1.035103 S    
O3    C2    1.314426 A    
C35   C36   1.436627 A    
N23   H29   1.046041 S    
C5    C7    1.576422 S    
C14   C15   1.409030 A    
N25   O30   1.301048 A    
C16   C19   1.416280 A    
C13   C18   1.400264 A    
O1    Zn1   2.054889 S    
C17   C18   1.417996 A    
C30   N10   1.414668 S    
N7    O11   1.300498 A    
O6    C3    1.309211 A    
C9    N22   1.475379 S    
O4    Zn2   2.059788 S    
N21   O24   1.302494 A    
N18   H22   1.034463 S    
C7    C11   1.557941 S    
C29   N9    1.427452 S    
O2    C1    1.302655 A    
C11   C12   1.543975 S    
Zn2   N2    2.041276 S    
C24   H5    1.083378 S    
N22   O25   1.293776 A    
C9    N21   1.479642 S    
N13   H16   1.044920 S    
O4    C2    1.301759 A    
C15   N24   1.433059 S    
C31   C33   1.432796 A    
C19   N25   1.435678 S    
C7    H1    1.115169 S    
N19   H25   1.037885 S    
C21   C26   1.422831 A    
C8    H2    1.116462 S    
C5    N17   1.481048 S    
N6    H10   1.039804 S    
N4    H8    1.044902 S    
Zn1   O5    2.027569 S    
C4    C11   1.478520 S    
C30   C38   1.435885 A    
N14   H19   1.044875 S    
H4    C12   1.110649 S    
C38   C41   1.424107 A    
O2    Zn2   2.027847 S    
C13   C14   1.397152 A    
C18   C25   1.412368 A    
C17   C22   1.406723 A    
C34   C36   1.410661 A    
