data_mof_unit_19587.cif
_audit_creation_date              2012-12-10T18:01:16-0500
_audit_creation_method            fapswitch 2.2
_symmetry_space_group_name_H-M    P1
_symmetry_Int_Tables_number       1
_space_group_crystal_system       triclinic
_cell_length_a                    9.563622
_cell_length_b                    10.78246
_cell_length_c                    17.207489
_cell_angle_alpha                 91.442241
_cell_angle_beta                  86.658596
_cell_angle_gamma                 90.246766
_cell_volume                      1770.84051399

loop_
_atom_site_label
_atom_site_type_symbol
_atom_type_description
_atom_site_fract_x
_atom_site_fract_y
_atom_site_fract_z
_atom_type_partial_charge
C1    C     C_R   0.500046 0.737172 0.498784 0.815497
C2    C     C_R   0.499926 0.262858 0.501416 0.826544
C3    C     C_R   0.488118 0.933355 0.428731 -0.002814
C4    C     C_R   0.511353 0.066744 0.571658 -0.011734
C5    C     C_R   0.490424 0.063707 0.429299 -0.101503
C6    C     C_R   0.509666 0.936349 0.571016 -0.101074
C7    C     C_R   0.501809 0.128753 0.500788 -0.136518
C8    C     C_R   0.498117 0.871315 0.499532 -0.134268
C9    C     C_R   0.922868 0.571477 0.553659 0.071044
C10   C     C_R   0.077198 0.428451 0.446418 0.053640
C11   C     C_R   0.071358 0.570049 0.552907 0.038480
C12   C     C_R   0.928685 0.428888 0.447703 0.029173
C13   C     C_R   0.482028 0.495855 0.650411 0.834521
C14   C     C_R   0.517762 0.502999 0.349401 0.821587
C15   C     C_R   0.474413 0.483995 0.736077 -0.139974
C16   C     C_R   0.523882 0.522847 0.264242 -0.112456
C17   C     C_R   0.598555 0.502419 0.774139 -0.163271
C18   C     C_R   0.396086 0.536411 0.229258 -0.142626
C19   C     C_R   0.602339 0.492467 0.854236 -0.003059
C20   C     C_R   0.390659 0.567598 0.151492 -0.019983
C21   C     C_R   0.476602 0.469961 0.898895 0.013597
C22   C     C_R   0.517025 0.584010 0.106394 0.067314
C23   C     C_R   0.350759 0.444010 0.862056 -0.046764
C24   C     C_R   0.647499 0.577421 0.140942 -0.050929
C25   C     C_R   0.349681 0.450910 0.779839 -0.054727
C26   C     C_R   0.651064 0.542014 0.219345 -0.107994
C27   C     C_2   0.475698 0.477091 0.984351 -0.217292
C28   C     C_2   0.514245 0.581507 0.021126 -0.065706
Cu1   Cu    Cu3+1 0.359340 0.499980 0.500000 0.983305
Cu2   Cu    Cu3+1 0.640660 0.500020 0.500000 0.989988
H1    H     H_    0.695340 0.522334 0.740898 0.210535
H2    H     H_    0.298148 0.525101 0.263292 0.205798
H3    H     H_    0.549471 0.661896 0.988502 0.210246
H4    H     H_    0.438436 0.397651 0.017407 0.174846
H5    H     H_    0.126472 0.626314 0.594262 0.181344
H6    H     H_    0.873615 0.370791 0.407405 0.201594
N1    N     N_R   0.147930 0.499970 0.499980 -0.227921
N2    N     N_R   0.852070 0.500030 0.500020 -0.228709
O1    O     O_R   0.381260 0.680340 0.500000 -0.545787
O2    O     O_R   0.618740 0.319660 0.500000 -0.547469
O3    O     O_R   0.618830 0.680370 0.500010 -0.617244
O4    O     O_R   0.381170 0.319630 0.499990 -0.608772
O5    O     O_R   0.367440 0.500000 0.613600 -0.586730
O6    O     O_R   0.632560 0.500000 0.386400 -0.578336
O7    O     O_R   0.605010 0.500030 0.613600 -0.591324
O8    O     O_R   0.394990 0.499970 0.386400 -0.597284
C29   C     C_2   0.788268 0.523005 0.252570 0.860197
O9    O     O_2   0.828545 0.417638 0.262947 -0.540234
O10   O     O_R   0.872197 0.625154 0.270119 -0.730733
H7    H     H_    0.963654 0.600069 0.292183 0.356033
C30   C     C_2   0.218587 0.424698 0.740482 0.953200
O11   O     O_2   0.118151 0.493966 0.751666 -0.543535
O12   O     O_R   0.210467 0.320613 0.690816 -0.740878
H8    H     H_    0.116409 0.313253 0.666759 0.344231
C31   C     C_2   0.222066 0.410028 0.910555 0.411722
H9    H     H_    0.207128 0.444217 0.970187 0.097952
O13   O     O_2   0.133532 0.340046 0.885655 -0.476732
C32   C     C_2   0.781314 0.602028 0.094885 0.470971
H10   H     H_    0.876248 0.553513 0.107217 0.127142
O14   O     O_2   0.788067 0.679845 0.044489 -0.525315
C33   C     C_2   0.251056 0.583814 0.118952 0.845342
O15   O     O_2   0.148466 0.529949 0.147632 -0.579392
O16   O     O_R   0.235849 0.662689 0.056707 -0.738666
H11   H     H_    0.135874 0.665917 0.040221 0.351537
C34   C     C_2   0.741131 0.500557 0.888766 0.918420
O17   O     O_2   0.766359 0.436359 0.943809 -0.553635
O18   O     O_R   0.845019 0.578518 0.856395 -0.675565
H12   H     H_    0.935022 0.575485 0.884653 0.370841
C35   C     C_2   0.482757 0.862501 0.353662 0.450345
H13   H     H_    0.547963 0.890347 0.303330 0.114977
O19   O     O_2   0.401541 0.775960 0.346636 -0.532605
C36   C     C_2   0.515037 0.137507 0.646896 0.483119
H14   H     H_    0.450489 0.108225 0.697124 0.121493
O20   O     O_2   0.593862 0.225738 0.654207 -0.526939
C37   C     C_2   0.479127 0.134241 0.356212 0.344305
H15   H     H_    0.530358 0.223672 0.349833 0.064916
O21   O     O_2   0.408465 0.095912 0.303802 -0.492693
C38   C     C_2   0.521682 0.865773 0.644025 0.338794
H16   H     H_    0.471044 0.776084 0.650408 0.055115
O22   O     O_2   0.592385 0.904362 0.696349 -0.492651
C39   C     C_2   0.849457 0.652876 0.613686 0.406180
H17   H     H_    0.742662 0.680374 0.610077 0.127614
O23   O     O_2   0.910100 0.692767 0.669706 -0.491069
C40   C     C_2   0.150829 0.347828 0.386063 0.397573
H18   H     H_    0.257296 0.319520 0.389947 0.132059
O24   O     O_2   0.090761 0.309543 0.329458 -0.490219

loop_
_geom_bond_atom_site_label_1
_geom_bond_atom_site_label_2
_ccdc_geom_bond_type
C31   H9    S    
C36   O20   D    
Cu1   O4    S    
C1    C8    S    
Cu2   O7    S    
C2    C7    S    
C4    C36   S    
C39   H17   S    
C29   O10   S    
O12   H8    S    
C10   N1    A    
C22   C24   A    
C19   C21   A    
C24   C26   A    
C38   O22   D    
C6    C38   S    
C32   O14   D    
Cu2   N2    S    
C35   O19   D    
C20   C33   S    
C11   N1    A    
C11   H5    S    
C34   O18   S    
Cu2   O3    S    
C12   H6    S    
C21   C27   S    
C27   H4    S    
C22   C28   S    
Cu1   O5    S    
Cu2   O6    S    
C33   O15   D    
C4    C7    A    
C39   O23   D    
C21   C23   A    
C16   C26   A    
O18   H12   S    
C40   H18   S    
C14   O8    A    
C3    C8    A    
C5    C7    A    
C38   H16   S    
C6    C8    A    
C32   H10   S    
C30   O11   D    
C30   O12   S    
C5    C37   S    
C37   H15   S    
C25   C30   S    
Cu1   Cu2   S    
C9    C11   A    
C29   O9    D    
Cu1   O1    S    
C33   O16   S    
Cu2   O2    S    
C16   C18   A    
C37   O21   D    
C10   C12   A    
C26   C29   S    
C4    C6    A    
C20   C22   A    
C28   H3    S    
C34   O17   D    
C13   C15   S    
C17   H1    S    
C14   C16   S    
C18   H2    S    
C13   O5    A    
C14   O6    A    
C1    O3    A    
C15   C17   A    
C3    C35   S    
C40   O24   D    
C36   H14   S    
C3    C5    A    
C23   C31   S    
Cu1   O8    S    
C31   O13   D    
C13   O7    A    
C2    O4    A    
C10   C40   S    
C9    N2    A    
C17   C19   A    
C19   C34   S    
C18   C20   A    
C23   C25   A    
C12   N2    A    
C35   H13   S    
C15   C25   A    
C1    O1    A    
O16   H11   S    
C2    O2    A    
C24   C32   S    
O10   H7    S    
Cu1   N1    S    
C27   C28   D    
C9    C39   S    
