data_mof_unit_42740.cif
_audit_creation_date              2013-03-05T15:46:12-0500
_audit_creation_method            fapswitch 2.2
_symmetry_space_group_name_H-M    P1
_symmetry_Int_Tables_number       1
_space_group_crystal_system       triclinic
_cell_length_a                    10.554796
_cell_length_b                    10.701352
_cell_length_c                    17.139506
_cell_angle_alpha                 80.347598
_cell_angle_beta                  89.845537
_cell_angle_gamma                 119.325415
_cell_volume                      1655.81786658

loop_
_atom_site_label
_atom_site_type_symbol
_atom_site_description
_atom_site_fract_x
_atom_site_fract_y
_atom_site_fract_z
_atom_type_partial_charge
O1    O     O_R   0.521780 0.757110 0.108900 -0.479950
O2    O     O_R   0.275160 0.783810 0.101120 -0.473171
C1    C     C_R   0.223163 0.854643 0.128803 0.559165
O3    O     O_R   0.237900 0.972600 0.090980 -0.507083
O4    O     O_R   0.511190 0.220540 0.061620 -0.491203
C2    C     C_R   0.637216 0.279455 0.087433 0.586488
O5    O     O_R   0.736920 0.257720 0.063840 -0.478683
O6    O     O_R   0.710450 0.984050 0.081720 -0.492360
C3    C     C_R   0.640480 0.858533 0.125418 0.556217
O7    O     O_R   0.524090 0.765520 0.933110 -0.456134
O8    O     O_R   0.277300 0.791600 0.938160 -0.503271
C4    C     C_R   0.227033 0.866502 0.897705 0.555858
O9    O     O_R   0.240210 0.981010 0.915190 -0.478858
O10   O     O_R   0.513330 0.228330 0.898660 -0.434915
C5    C     C_R   0.637368 0.284387 0.860855 0.601551
O11   O     O_R   0.739230 0.266130 0.888050 -0.518952
O12   O     O_R   0.712580 0.991850 0.918770 -0.517222
C6    C     C_R   0.648046 0.866659 0.899724 0.579300
Cr1   Cr    Cr6+3 0.402240 0.783890 0.019450 1.110770
Cr2   Cr    Cr6+3 0.382360 0.097900 0.991800 1.125387
Cr3   Cr    Cr6+3 0.715380 0.118170 0.988700 1.078311
O13   O     O_3   0.499990 0.999980 0.999980 -0.303280
C7    C     C_R   0.531252 0.317147 0.203983 -0.142594
H1    H     H_    0.436144 0.300986 0.173483 0.189917
C8    C     C_R   0.527508 0.317162 0.285569 0.157860
C9    C     C_R   0.645165 0.321421 0.326688 -0.015839
C10   C     C_R   0.757006 0.313373 0.286017 0.055386
C11   C     C_R   0.774703 0.346509 0.203655 0.072421
C12   C     C_R   0.653931 0.331113 0.162573 -0.038491
C13   C     C_1   0.668835 0.848878 0.205474 -0.005995
C14   C     C_1   0.680230 0.839178 0.274851 -0.004450
C15   C     C_1   0.180963 0.826026 0.211306 -0.007832
C16   C     C_1   0.151448 0.819937 0.279822 -0.010172
C17   C     C_1   0.644212 0.323326 0.778060 0.000728
C18   C     C_1   0.651461 0.345260 0.707531 -0.021778
C19   C     C_R   0.630693 0.712383 0.804636 0.186924
C20   C     C_R   0.614438 0.699786 0.725888 -0.159031
H2    H     H_    0.565175 0.591439 0.711881 0.178047
C21   C     C_R   0.669127 0.824426 0.665266 -0.023399
C22   C     C_R   0.746629 0.965010 0.683496 0.178899
C23   C     C_R   0.758958 0.977348 0.763049 -0.150138
H3    H     H_    0.807533 0.085256 0.777520 0.182279
C24   C     C_R   0.693568 0.852009 0.823537 -0.017268
C25   C     C_R   0.214889 0.968176 0.758557 0.070465
C26   C     C_R   0.215840 0.957965 0.679996 -0.101274
H4    H     H_    0.235053 0.052436 0.635954 0.181228
C27   C     C_R   0.169384 0.823312 0.658594 0.000861
C28   C     C_R   0.148638 0.702853 0.715522 -0.132328
H5    H     H_    0.112985 0.597468 0.699761 0.170102
C29   C     C_R   0.164146 0.715961 0.794668 -0.141399
H6    H     H_    0.149820 0.623087 0.838356 0.163531
C30   C     C_R   0.192472 0.846700 0.817350 0.025291
O14   O     O_R   0.083770 0.911170 0.376030 -0.457694
O15   O     O_R   0.808770 0.880340 0.383890 -0.478370
C31   C     C_R   0.686539 0.809787 0.357186 0.555975
O16   O     O_R   0.584340 0.689460 0.394160 -0.484393
O17   O     O_R   0.614320 0.443940 0.423590 -0.457500
C32   C     C_R   0.682064 0.383710 0.399017 0.584350
O18   O     O_R   0.805020 0.410040 0.421340 -0.469298
O19   O     O_R   0.049240 0.685450 0.403290 -0.494988
C33   C     C_R   0.103693 0.810294 0.359183 0.551634
O20   O     O_R   0.077520 0.903010 0.551800 -0.492891
O21   O     O_R   0.802980 0.872780 0.546830 -0.453703
C34   C     C_R   0.677557 0.800388 0.585459 0.584754
O22   O     O_R   0.578090 0.681300 0.569920 -0.519991
O23   O     O_R   0.608530 0.436370 0.586530 -0.503721
C35   C     C_R   0.678658 0.382375 0.624486 0.566033
O24   O     O_R   0.798770 0.401880 0.597100 -0.444136
O25   O     O_R   0.043450 0.677890 0.566230 -0.505586
C36   C     C_R   0.102988 0.803434 0.584699 0.544246
Cr4   Cr    Cr6+3 0.936650 0.882420 0.465510 1.152639
Cr5   Cr    Cr6+3 0.605770 0.565620 0.493360 1.112441
Cr6   Cr    Cr6+3 0.921340 0.550490 0.496380 1.129537
O26   O     O_3   0.821250 0.666180 0.485090 -0.312865
N1    N     N_R   0.400525 0.303091 0.326335 0.098547
O27   O     O_R   0.351634 0.223854 0.397502 -0.306255
O28   O     O_R   0.322283 0.352588 0.288773 -0.296411
I1    I     I_    0.892165 0.236227 0.345893 -0.110530
I2    I     I_    0.989300 0.430883 0.144914 -0.214306
N2    N     N_R   0.576697 0.582878 0.865204 0.083944
O29   O     O_R   0.647757 0.581676 0.927015 -0.336078
O30   O     O_R   0.455406 0.465974 0.859090 -0.314461
N3    N     N_R   0.808645 0.094995 0.622678 0.091633
O31   O     O_R   0.741884 0.101053 0.559629 -0.317944
O32   O     O_R   0.926338 0.211896 0.633086 -0.311246
I3    I     I_    0.234906 0.171130 0.774942 -0.233283

loop_
_geom_bond_atom_site_label_1
_geom_bond_atom_site_label_2
_geom_bond_distance
_ccdc_geom_bond_type
C31   O16   1.259104 A    
C22   C23   1.392121 A    
O11   Cr3   2.058552 S    
Cr6   O26   1.971835 S    
C10   I1    2.155757 S    
O4    Cr2   1.947005 S    
C26   H4    1.084171 S    
C21   C34   1.443899 S    
O8    Cr1   1.940349 S    
C9    C10   1.414954 A    
C7    C12   1.404507 A    
C19   C20   1.381637 A    
C13   C14   1.187758 T    
C5    O11   1.260660 A    
O19   Cr6   1.939017 S    
O20   C36   1.267132 A    
C17   C18   1.187012 T    
C23   H3    1.083804 S    
C11   I2    2.153796 S    
O14   C33   1.272590 A    
O23   Cr5   1.939855 S    
O15   Cr4   1.941778 S    
N3    O31   1.301477 A    
O6    C3    1.264328 A    
O16   Cr5   2.058732 S    
C29   C30   1.404006 A    
C7    H1    1.083497 S    
O25   Cr6   1.946175 S    
O18   Cr6   2.066339 S    
C5    C17   1.401521 S    
C25   C30   1.421086 A    
C28   C29   1.388932 A    
O23   C35   1.265092 A    
Cr3   O13   1.975981 S    
C23   C24   1.404733 A    
C22   N3    1.438111 S    
C1    C15   1.417570 S    
C25   I3    2.143816 S    
C4    C30   1.449008 S    
C29   H6    1.083495 S    
C26   C27   1.391941 A    
O1    Cr1   2.059572 S    
C35   O24   1.255315 A    
O10   Cr2   1.938671 S    
Cr1   O13   1.981322 S    
O1    C3    1.265223 A    
Cr5   O26   1.974967 S    
C19   N2    1.436599 S    
C21   C22   1.408423 A    
C8    C9    1.414570 A    
O5    Cr3   2.062618 S    
O12   Cr3   1.941434 S    
O19   C33   1.262355 A    
C8    N1    1.438478 S    
N1    O27   1.301644 A    
C27   C36   1.445531 S    
C20   H2    1.084355 S    
N1    O28   1.301539 A    
C27   C28   1.400804 A    
C18   C35   1.400939 S    
O7    Cr1   2.053663 S    
O12   C6    1.272531 A    
C9    C32   1.469091 S    
C3    C13   1.402825 S    
N2    O30   1.300325 A    
C28   H5    1.083245 S    
N3    O32   1.301444 A    
O21   Cr4   1.934531 S    
C32   O18   1.261210 A    
C1    O3    1.253227 A    
O14   Cr4   2.054004 S    
C25   C26   1.369455 A    
O15   C31   1.268415 A    
C11   C12   1.409212 A    
O9    Cr2   2.064694 S    
O2    Cr1   1.935676 S    
Cr2   O13   1.971098 S    
N2    O29   1.301625 A    
O6    Cr3   1.939996 S    
Cr4   O26   1.981804 S    
O8    C4    1.279427 A    
C2    O5    1.262563 A    
O22   Cr5   2.058309 S    
C15   C16   1.197016 T    
O2    C1    1.275770 A    
O24   Cr6   2.057886 S    
C20   C21   1.403457 A    
C6    C24   1.448997 S    
C34   O22   1.265701 A    
O17   C32   1.282539 A    
O4    C2    1.279781 A    
O7    C6    1.269572 A    
O20   Cr4   2.060791 S    
C7    C8    1.398824 A    
O17   Cr5   1.941752 S    
O25   C36   1.271522 A    
O21   C34   1.268744 A    
O3    Cr2   2.057048 S    
C2    C12   1.462790 S    
C4    O9    1.251864 A    
C16   C33   1.418860 S    
C10   C11   1.385348 A    
O10   C5    1.260746 A    
C19   C24   1.403614 A    
C14   C31   1.402495 S    
