data_mof_unit_29906.cif
_audit_creation_date              2012-12-10T16:37:56-0500
_audit_creation_method            fapswitch 2.2
_symmetry_space_group_name_H-M    P1
_symmetry_Int_Tables_number       1
_space_group_crystal_system       triclinic
_cell_length_a                    28.124133
_cell_length_b                    18.484644
_cell_length_c                    16.967405
_cell_angle_alpha                 89.909253
_cell_angle_beta                  61.017612
_cell_angle_gamma                 89.766888
_cell_volume                      7716.05391102

loop_
_atom_site_label
_atom_site_type_symbol
_atom_type_description
_atom_site_fract_x
_atom_site_fract_y
_atom_site_fract_z
_atom_type_partial_charge
C1    C     C_R   0.700917 0.266137 0.676890 0.903262
C2    C     C_R   0.074969 0.500178 0.582964 0.073536
C3    C     C_R   0.199832 0.198772 0.900319 0.075276
C4    C     C_R   0.609221 0.315580 0.052334 -0.197755
C5    C     C_R   0.339121 0.595641 0.004994 -0.183086
C6    C     C_R   0.390760 0.316060 0.946718 -0.197184
C7    C     C_R   0.660629 0.596338 0.996339 -0.184510
C8    C     C_R   0.113163 0.825431 0.051334 -0.181972
C9    C     C_R   0.879837 0.172323 0.954523 -0.180935
C10   C     C_R   0.886308 0.826133 0.948856 -0.184125
C11   C     C_R   0.121970 0.170082 0.043730 -0.181390
C12   C     C_R   0.635551 0.293783 0.099875 -0.218069
C13   C     C_R   0.420929 0.998375 0.431651 0.070931
C14   C     C_R   0.310954 0.611046 0.958527 -0.217667
C15   C     C_R   0.364987 0.293015 0.898657 -0.219925
C16   C     C_R   0.688981 0.611660 0.042476 -0.217247
C17   C     C_R   0.143209 0.812387 0.094969 -0.221362
C18   C     C_R   0.849222 0.183363 0.910962 -0.217529
C19   C     C_R   0.856532 0.812364 0.904971 -0.221698
C20   C     C_R   0.152703 0.180947 0.086994 -0.218460
C21   C     C_R   0.745636 0.194208 0.789549 -0.188928
C22   C     C_R   0.252656 0.797047 0.205472 -0.178664
C23   C     C_R   0.255676 0.193431 0.209170 -0.180549
C24   C     C_R   0.597701 0.999052 0.500484 0.064707
C25   C     C_R   0.747296 0.796278 0.794220 -0.189627
C26   C     C_R   0.237922 0.684157 0.796968 -0.186124
C27   C     C_R   0.722336 0.227136 0.239372 -0.189968
C28   C     C_R   0.762697 0.684333 0.202806 -0.184518
C29   C     C_R   0.279655 0.221182 0.757502 -0.180337
C30   C     C_R   0.776565 0.181519 0.831879 -0.232451
C31   C     C_R   0.220720 0.809053 0.164332 -0.220616
C32   C     C_R   0.225244 0.179798 0.166260 -0.225850
C33   C     C_R   0.779306 0.808156 0.835098 -0.227879
C34   C     C_R   0.263326 0.661260 0.846023 -0.217158
C35   C     C_R   0.070166 0.369256 0.597042 -0.250393
C36   C     C_R   0.692367 0.242481 0.196301 -0.219251
C37   C     C_R   0.737338 0.661386 0.153883 -0.216515
C38   C     C_R   0.309560 0.237655 0.800764 -0.221695
C39   C     C_R   0.072684 0.102213 0.935990 0.907099
C40   C     C_R   0.927426 0.897963 0.064148 0.919133
C41   C     C_R   0.927813 0.102764 0.063462 0.908754
C42   C     C_R   0.072334 0.897690 0.936103 0.920805
C43   C     C_R   0.579717 0.590771 0.928738 0.948263
C44   C     C_R   0.428118 0.396958 0.063459 0.890311
C45   C     C_R   0.420291 0.590735 0.071290 0.949863
C46   C     C_R   0.879425 0.630018 0.566283 -0.243501
C47   C     C_R   0.571771 0.396811 0.936613 0.892409
C48   C     C_R   0.569824 0.125313 0.437351 0.110812
C49   C     C_R   0.464287 0.867082 0.454118 0.108771
C50   C     C_R   0.477677 0.127306 0.413479 0.115320
C51   C     C_R   0.542229 0.869785 0.512089 0.107278
C52   C     C_R   0.019972 0.631229 0.595814 0.113970
C53   C     C_R   0.925674 0.369129 0.579288 0.105385
C54   C     C_R   0.924461 0.630618 0.580588 0.104315
C55   C     C_R   0.020587 0.368981 0.596227 0.113559
C56   C     C_R   0.554656 0.189053 0.409662 -0.217844
C57   C     C_R   0.880876 0.369487 0.564263 -0.245935
C58   C     C_R   0.481166 0.802382 0.476562 -0.198921
C59   C     C_R   0.508365 0.190325 0.399126 -0.209432
C60   C     C_R   0.518311 0.804114 0.508986 -0.202327
C61   C     C_R   0.991728 0.696001 0.603598 -0.206428
C62   C     C_R   0.945754 0.304173 0.595283 -0.206109
C63   C     C_R   0.944123 0.695645 0.596598 -0.203289
C64   C     C_R   0.992983 0.304074 0.603380 -0.207863
C65   C     C_R   0.494922 0.062611 0.435801 0.030908
C66   C     C_R   0.528132 0.933703 0.483479 0.030397
C67   C     C_R   0.539789 0.062208 0.451144 0.034241
C68   C     C_R   0.069862 0.631174 0.595768 -0.251475
C69   C     C_R   0.486792 0.932915 0.459638 0.030920
C70   C     C_R   0.950834 0.565422 0.577590 0.033268
C71   C     C_R   0.998685 0.434496 0.586192 0.031713
C72   C     C_R   0.998319 0.565613 0.586175 0.031739
C73   C     C_R   0.951355 0.434465 0.577163 0.033508
C74   C     C_R   0.929250 0.499895 0.567442 -0.050723
C75   C     C_R   0.023905 0.500108 0.585639 -0.053951
C76   C     C_R   0.468027 0.997933 0.441000 -0.053060
C77   C     C_R   0.554900 0.998462 0.479259 -0.051581
C78   C     C_R   0.864227 0.433682 0.537459 0.056428
C79   C     C_R   0.580550 0.872247 0.541902 -0.235992
C80   C     C_R   0.100702 0.566600 0.579955 0.056697
C81   C     C_R   0.100779 0.433767 0.580602 0.054243
C82   C     C_R   0.863627 0.565952 0.538356 0.054240
C83   C     C_R   0.395968 0.932412 0.432302 0.052214
C84   C     C_R   0.627088 0.063118 0.489621 0.055556
C85   C     C_R   0.612225 0.935015 0.529576 0.062445
C86   C     C_R   0.397779 0.064770 0.425727 0.055042
C87   C     C_R   0.826243 0.435486 0.503299 -0.108136
C88   C     C_R   0.156047 0.565345 0.561353 -0.116607
C89   C     C_R   0.156078 0.434804 0.561660 -0.119197
C90   C     C_R   0.429477 0.128113 0.408116 -0.254433
C91   C     C_R   0.825995 0.564375 0.503695 -0.099358
C92   C     C_R   0.343173 0.934223 0.440485 -0.117475
C93   C     C_R   0.667872 0.063247 0.517093 -0.096458
C94   C     C_R   0.659427 0.935743 0.541145 -0.116267
C95   C     C_R   0.343819 0.064713 0.438459 -0.111466
C96   C     C_R   0.809697 0.500015 0.484750 -0.320538
C97   C     C_R   0.181599 0.499996 0.555567 -0.296303
C98   C     C_R   0.318953 0.999683 0.440710 -0.300333
C99   C     C_R   0.682946 0.000251 0.542559 -0.311020
C100  C     C_R   0.423931 0.867383 0.429183 -0.240155
C101  C     C_R   0.298759 0.733287 0.322896 0.895024
C102  C     C_R   0.614662 0.123972 0.451176 -0.249816
C103  C     C_R   0.710049 0.245572 0.963106 0.019771
C104  C     C_R   0.267153 0.712243 0.058206 0.020196
C105  C     C_R   0.291160 0.244123 0.035146 0.020787
C106  C     C_R   0.733001 0.711921 0.941767 0.020870
C107  C     C_R   0.207983 0.743962 0.966265 0.020696
C108  C     C_R   0.770715 0.215393 0.052840 0.018266
C109  C     C_R   0.792148 0.744014 0.033635 0.020276
C110  C     C_R   0.231067 0.212312 0.944815 0.020100
C111  C     C_R   0.761200 0.210659 0.917093 0.054151
C112  C     C_R   0.299040 0.266283 0.323047 0.899008
C113  C     C_R   0.226101 0.765578 0.092236 0.048213
C114  C     C_R   0.240465 0.208638 0.080894 0.050304
C115  C     C_R   0.774032 0.764962 0.907404 0.051559
C116  C     C_R   0.249977 0.691788 0.930454 0.048988
C117  C     C_R   0.716197 0.240179 0.102197 0.052963
C118  C     C_R   0.750367 0.691863 0.069544 0.048905
C119  C     C_R   0.285469 0.237022 0.895298 0.048348
C120  C     C_R   0.793759 0.202221 0.959506 0.047918
C121  C     C_R   0.192899 0.775455 0.051284 0.050696
C122  C     C_R   0.208073 0.199647 0.038299 0.047883
C123  C     C_R   0.701358 0.733036 0.676995 0.877257
C124  C     C_R   0.807129 0.775164 0.948486 0.051972
C125  C     C_R   0.276510 0.671627 0.980862 0.050025
C126  C     C_R   0.687130 0.260293 0.056157 0.050986
C127  C     C_R   0.723691 0.671704 0.019399 0.049680
C128  C     C_R   0.314061 0.258396 0.941866 0.050276
C129  C     C_R   0.633547 0.306964 0.958191 0.070539
C130  C     C_R   0.337266 0.642713 0.071983 0.060786
C131  C     C_R   0.366643 0.307157 0.040982 0.070616
C132  C     C_R   0.662638 0.642861 0.928625 0.061650
C133  C     C_R   0.134613 0.810551 0.958406 0.067997
C134  C     C_R   0.200429 0.765158 0.677365 0.894278
C135  C     C_R   0.855970 0.176678 0.049066 0.076744
C136  C     C_R   0.865037 0.811215 0.041756 0.070314
C137  C     C_R   0.145633 0.174151 0.949213 0.077197
C138  C     C_R   0.611379 0.337415 0.905205 -0.133230
C139  C     C_R   0.372250 0.635474 0.110693 -0.136034
C140  C     C_R   0.388494 0.337750 0.094479 -0.130466
C141  C     C_R   0.627782 0.635451 0.889544 -0.137886
C142  C     C_R   0.111817 0.838744 0.905304 -0.136873
C143  C     C_R   0.883802 0.155790 0.097554 -0.139795
C144  C     C_R   0.887772 0.839371 0.094954 -0.137281
C145  C     C_R   0.794214 0.223454 0.326466 0.908921
C146  C     C_R   0.117412 0.153951 0.901194 -0.137147
C147  C     C_R   0.631912 0.317430 0.816363 -0.307248
C148  C     C_R   0.362182 0.672621 0.187329 -0.305691
C149  C     C_R   0.367816 0.317815 0.183430 -0.308755
C150  C     C_R   0.638092 0.672273 0.812504 -0.306871
C151  C     C_R   0.131720 0.817421 0.816960 -0.306727
C152  C     C_R   0.863489 0.175285 0.186056 -0.304603
C153  C     C_R   0.867820 0.818067 0.183317 -0.303514
C154  C     C_R   0.137704 0.173280 0.812682 -0.309400
C155  C     C_R   0.676705 0.272660 0.774889 -0.121104
C156  C     C_R   0.799493 0.765325 0.322716 0.916508
C157  C     C_R   0.318781 0.718930 0.226863 -0.125300
C158  C     C_R   0.323382 0.272817 0.224719 -0.124341
C159  C     C_R   0.681383 0.718461 0.773003 -0.119244
C160  C     C_R   0.175502 0.771016 0.776319 -0.124988
C161  C     C_R   0.811966 0.203537 0.233426 -0.118525
C162  C     C_R   0.824376 0.771453 0.223757 -0.129418
C163  C     C_R   0.189315 0.200852 0.765034 -0.113764
C164  C     C_R   0.701800 0.244136 0.824970 0.072469
C165  C     C_R   0.289747 0.738838 0.179470 0.080690
C166  C     C_R   0.298886 0.243825 0.174072 0.072822
C167  C     C_R   0.206428 0.222353 0.672777 0.908492
C168  C     C_R   0.710311 0.738289 0.820421 0.079071
C169  C     C_R   0.198430 0.739823 0.828660 0.075645
C170  C     C_R   0.778507 0.211774 0.191346 0.071537
C171  C     C_R   0.801721 0.740187 0.171278 0.073824
C172  C     C_R   0.223198 0.207785 0.806375 0.064999
C173  C     C_R   0.695815 0.127994 0.519144 0.895660
C174  C     C_R   0.308593 0.870472 0.464693 0.908087
C175  C     C_R   0.309037 0.129481 0.463511 0.881451
C176  C     C_R   0.691575 0.870992 0.532474 0.902922
C177  C     C_R   0.191051 0.629494 0.536035 0.898312
C178  C     C_R   0.885961 0.499830 0.547054 0.066752
C179  C     C_R   0.802659 0.371662 0.486137 0.930078
C180  C     C_R   0.802607 0.628390 0.486255 0.915210
C181  C     C_R   0.191057 0.370455 0.536100 0.919062
C182  C     C_R   0.681764 0.265581 0.915411 0.076048
C183  C     C_R   0.298291 0.698381 0.102790 0.076430
C184  C     C_R   0.318945 0.265087 0.083393 0.075681
C185  C     C_R   0.701763 0.698094 0.897335 0.076207
C186  C     C_R   0.180398 0.764757 0.917590 0.076940
C187  C     C_R   0.801908 0.202043 0.097532 0.075920
C188  C     C_R   0.819571 0.765154 0.082409 0.077264
H1    H     H_    0.008694 0.253055 0.612750 0.134017
H2    H     H_    0.223826 0.499877 0.539869 0.197479
H3    H     H_    0.277984 0.000046 0.450123 0.196098
H4    H     H_    0.716087 0.000643 0.558140 0.190506
H5    H     H_    0.083791 0.318625 0.611044 0.175161
H6    H     H_    0.857593 0.680345 0.578878 0.189035
H7    H     H_    0.859907 0.318826 0.575572 0.187588
H8    H     H_    0.083436 0.681983 0.608885 0.173533
H9    H     H_    0.584313 0.824667 0.575454 0.174071
H10   H     H_    0.417869 0.178074 0.388792 0.172375
H11   H     H_    0.414777 0.816057 0.409695 0.177395
H12   H     H_    0.923742 0.746500 0.600706 0.133965
H13   H     H_    0.639103 0.171373 0.429160 0.170309
H14   H     H_    0.614630 0.340797 0.777142 0.194029
H15   H     H_    0.386842 0.662407 0.219433 0.190338
H16   H     H_    0.384762 0.341340 0.222893 0.191997
H17   H     H_    0.613619 0.661996 0.780180 0.191470
H18   H     H_    0.114803 0.841043 0.777331 0.191344
H19   H     H_    0.887001 0.164279 0.219994 0.190595
H20   H     H_    0.884534 0.841715 0.223056 0.193004
H21   H     H_    0.113907 0.163135 0.779131 0.188086
H22   H     H_    0.568743 0.337197 0.091976 0.170585
H23   H     H_    0.925935 0.253202 0.598747 0.132703
H24   H     H_    0.361098 0.545023 0.988443 0.180457
H25   H     H_    0.430756 0.338713 0.907221 0.173289
H26   H     H_    0.638469 0.546095 0.013695 0.180610
H27   H     H_    0.072698 0.846057 0.093356 0.172800
H28   H     H_    0.922800 0.162243 0.912397 0.161343
H29   H     H_    0.926502 0.847181 0.906868 0.171916
H30   H     H_    0.079026 0.160603 0.086198 0.164233
H31   H     H_    0.614788 0.305868 0.170906 0.135949
H32   H     H_    0.315300 0.572858 0.907408 0.140781
H33   H     H_    0.385443 0.305007 0.827568 0.138936
H34   H     H_    0.007147 0.747094 0.612813 0.133950
H35   H     H_    0.684467 0.573803 0.094084 0.140384
H36   H     H_    0.125454 0.828160 0.164945 0.141415
H37   H     H_    0.870300 0.179443 0.838296 0.139698
H38   H     H_    0.874290 0.827925 0.834927 0.137946
H39   H     H_    0.131703 0.177304 0.159673 0.142835
H40   H     H_    0.756690 0.162122 0.730245 0.179418
H41   H     H_    0.248887 0.835828 0.255728 0.167420
H42   H     H_    0.244762 0.161726 0.268732 0.176599
H43   H     H_    0.750879 0.835157 0.744096 0.170975
H44   H     H_    0.248834 0.655002 0.735532 0.173732
H45   H     H_    0.529376 0.754015 0.529319 0.137144
H46   H     H_    0.699284 0.225855 0.311132 0.164801
H47   H     H_    0.752144 0.655036 0.264031 0.175832
H48   H     H_    0.302554 0.216948 0.685105 0.183250
H49   H     H_    0.810893 0.145160 0.798978 0.138003
H50   H     H_    0.193393 0.854971 0.187485 0.141548
H51   H     H_    0.191369 0.143028 0.198930 0.139888
H52   H     H_    0.806509 0.853920 0.811672 0.140878
H53   H     H_    0.294591 0.620602 0.814683 0.139026
H54   H     H_    0.649788 0.253623 0.239181 0.137418
H55   H     H_    0.706417 0.620620 0.185243 0.139063
H56   H     H_    0.496342 0.240567 0.380670 0.134121
H57   H     H_    0.352295 0.248000 0.758079 0.141849
H58   H     H_    0.463738 0.751069 0.473196 0.137008
H59   H     H_    0.577588 0.238459 0.398956 0.126741
H60   H     H_    0.782462 0.500135 0.456274 0.191991
O1    O     O_R   0.746490 0.236330 0.638080 -0.658242
O2    O     O_R   0.325830 0.813840 0.483730 -0.637029
O3    O     O_R   0.325830 0.186160 0.483730 -0.647824
O4    O     O_R   0.674170 0.813840 0.516270 -0.636510
O5    O     O_R   0.174170 0.686160 0.516270 -0.632494
O6    O     O_R   0.825830 0.313840 0.483730 -0.643672
O7    O     O_R   0.825830 0.686160 0.483730 -0.647615
O8    O     O_R   0.174170 0.313840 0.516270 -0.630849
O9    O     O_R   0.739960 0.127620 0.525000 -0.636552
O10   O     O_R   0.260040 0.872380 0.475000 -0.632107
O11   O     O_R   0.260040 0.127620 0.475000 -0.635396
O12   O     O_R   0.253510 0.763670 0.361920 -0.635896
O13   O     O_R   0.739960 0.872380 0.525000 -0.625849
O14   O     O_R   0.239960 0.627620 0.525000 -0.631443
O15   O     O_R   0.760040 0.372380 0.475000 -0.621339
O16   O     O_R   0.760040 0.627620 0.475000 -0.633574
O17   O     O_R   0.239960 0.372380 0.525000 -0.622037
O18   O     O_R   0.680700 0.294870 0.629350 -0.623547
O19   O     O_R   0.319300 0.705130 0.370650 -0.625221
O20   O     O_R   0.319300 0.294870 0.370650 -0.628741
O21   O     O_R   0.680700 0.705130 0.629350 -0.627737
O22   O     O_R   0.180700 0.794870 0.629350 -0.628677
O23   O     O_R   0.253510 0.236330 0.361920 -0.639497
O24   O     O_R   0.819300 0.205130 0.370650 -0.620923
O25   O     O_R   0.819300 0.794870 0.370650 -0.615681
O26   O     O_R   0.180700 0.205130 0.629350 -0.634082
O27   O     O_R   0.062020 0.072840 0.007170 -0.624057
O28   O     O_R   0.937980 0.927160 0.992830 -0.629279
O29   O     O_R   0.937980 0.072840 0.992830 -0.623556
O30   O     O_R   0.062020 0.927160 0.007170 -0.628059
O31   O     O_R   0.562020 0.572840 0.007170 -0.627931
O32   O     O_R   0.437980 0.427160 0.992830 -0.645675
O33   O     O_R   0.437980 0.572840 0.992830 -0.627919
O34   O     O_R   0.746490 0.763670 0.638080 -0.655026
O35   O     O_R   0.562020 0.427160 0.007170 -0.644851
O36   O     O_R   0.947860 0.073950 0.109290 -0.617259
O37   O     O_R   0.052140 0.926050 0.890710 -0.622912
O38   O     O_R   0.052140 0.073950 0.890710 -0.618861
O39   O     O_R   0.947860 0.926050 0.109290 -0.621361
O40   O     O_R   0.447860 0.573950 0.109290 -0.613838
O41   O     O_R   0.552140 0.426050 0.890710 -0.626058
O42   O     O_R   0.552140 0.573950 0.890710 -0.613293
O43   O     O_R   0.447860 0.426050 0.109290 -0.626897
O44   O     O_R   0.246490 0.736330 0.638080 -0.635884
O45   O     O_R   0.753510 0.263670 0.361920 -0.647374
O46   O     O_R   0.753510 0.736330 0.361920 -0.634119
O47   O     O_R   0.246490 0.263670 0.638080 -0.642339
O48   O     O_R   0.674170 0.186160 0.516270 -0.653498
Zn1   Zn    Zn3+2 0.792340 0.208750 0.507670 0.920336
Zn2   Zn    Zn3+2 0.494040 0.500000 0.919480 0.922771
Zn3   Zn    Zn3+2 0.005960 0.000000 0.080520 0.926035
Zn4   Zn    Zn3+2 0.994040 0.000000 0.919480 0.920286
Zn5   Zn    Zn3+2 0.207660 0.791250 0.492330 0.935160
Zn6   Zn    Zn3+2 0.207660 0.208750 0.492330 0.928457
Zn7   Zn    Zn3+2 0.792340 0.791250 0.507670 0.925943
Zn8   Zn    Zn3+2 0.292340 0.708750 0.507670 0.934415
Zn9   Zn    Zn3+2 0.707660 0.291250 0.492330 0.930830
Zn10  Zn    Zn3+2 0.707660 0.708750 0.492330 0.936036
Zn11  Zn    Zn3+2 0.292340 0.291250 0.507670 0.930819
Zn12  Zn    Zn3+2 0.505960 0.500000 0.080520 0.920638

loop_
_geom_bond_atom_site_label_1
_geom_bond_atom_site_label_2
_ccdc_geom_bond_type
O32   Zn2   S    
C108  C120  A    
C152  H19   S    
O17   Zn11  S    
O5    Zn5   S    
C88   C177  S    
O13   Zn7   S    
C20   H39   S    
C112  C158  S    
C57   H7    S    
C50   C59   A    
C19   H38   S    
C41   C143  S    
C52   C61   A    
C180  O16   A    
C12   C126  A    
C54   C63   A    
C40   O28   A    
C58   C60   A    
C43   O42   A    
C45   C139  S    
C61   C63   A    
C103  C126  A    
C95   C175  S    
C62   C64   A    
C131  C140  A    
C91   C96   A    
C179  O6    A    
C179  O15   A    
C50   C90   A    
C162  C171  A    
C170  C187  A    
C70   C74   A    
C4    C12   A    
C147  C155  A    
C24   C85   A    
C112  O20   A    
O8    Zn6   S    
C88   C97   A    
C119  C128  A    
C109  C188  A    
C49   C69   A    
C14   H32   S    
O26   Zn6   S    
O27   Zn3   S    
C109  C118  A    
C173  O48   A    
C11   C20   A    
C150  C159  A    
C165  C183  A    
C137  C146  A    
C166  C184  A    
O15   Zn9   S    
C86   C90   A    
C71   C73   A    
C38   H57   S    
C106  C127  A    
C82   C91   A    
C51   C66   A    
C89   C181  S    
C142  C151  A    
C173  O9    A    
C52   C72   A    
C153  H20   S    
C131  C184  A    
C105  C114  A    
C54   C70   A    
C82   C178  A    
C36   C117  A    
C11   H30   S    
C7    C132  A    
O14   Zn8   S    
C38   C119  A    
C5    C130  A    
C83   C100  A    
C47   O41   A    
C79   C85   A    
C66   C77   A    
O11   Zn6   S    
C57   C78   A    
C60   H45   S    
O33   Zn2   S    
C176  O4    A    
O46   Zn10  S    
O36   Zn3   S    
C8    C17   A    
C56   C59   A    
C106  C115  A    
C80   C88   A    
O6    Zn1   S    
C6    H25   S    
C145  C161  S    
O2    Zn8   S    
C93   C173  S    
C84   C93   A    
C105  C184  A    
O7    Zn7   S    
C86   C95   A    
C24   C77   A    
C104  C183  A    
C43   O31   A    
O3    Zn11  S    
O43   Zn12  S    
C2    C81   A    
C55   C71   A    
C2    C75   A    
C78   C87   A    
C134  C160  S    
C84   C102  A    
C67   C77   A    
O31   Zn12  S    
C133  C142  A    
C45   O40   A    
C123  C159  S    
C18   H37   S    
C102  H13   S    
C130  C183  A    
C99   H4    S    
C1    O1    A    
C3    C110  A    
C69   C76   A    
C85   C94   A    
C61   H34   S    
O40   Zn12  S    
C46   C82   A    
C29   C38   A    
C149  C158  A    
C20   C122  A    
C152  C161  A    
C135  C143  A    
C48   C67   A    
C136  C188  A    
C34   H53   S    
C72   C75   A    
C112  O23   A    
C135  C187  A    
C180  O7    A    
C141  C150  A    
C46   H6    S    
O22   Zn5   S    
C25   C168  A    
C139  C148  A    
C104  C125  A    
C157  C165  A    
C92   C174  S    
C59   H56   S    
C181  O8    A    
C175  O3    A    
C91   C180  S    
C47   O35   A    
C9    C135  A    
C31   H50   S    
C116  C125  A    
O37   Zn4   S    
C118  C127  A    
O20   Zn11  S    
O35   Zn12  S    
C117  C126  A    
C39   O27   A    
C132  C141  A    
C108  C117  A    
C98   H3    S    
C110  C119  A    
C174  O10   A    
C32   H51   S    
C134  O22   A    
C36   H54   S    
C33   H52   S    
C44   O32   A    
C28   C37   A    
C47   C138  S    
C148  C157  A    
C50   C65   A    
C51   C79   A    
C107  C116  A    
C7    H26   S    
C41   O29   A    
C104  C113  A    
C9    C18   A    
C113  C121  A    
C51   C60   A    
C140  C149  A    
C31   C113  A    
C10   H29   S    
C25   C33   A    
O47   Zn11  S    
C129  C182  A    
C37   H55   S    
C44   O43   A    
C73   C74   A    
O42   Zn2   S    
C41   O36   A    
C64   H1    S    
C107  C186  A    
C65   C76   A    
O39   Zn3   S    
C171  C188  A    
C145  O24   A    
C134  O44   A    
C169  C186  A    
C42   O30   A    
C3    C172  A    
O48   Zn9   S    
C63   H12   S    
C103  C111  A    
C27   H46   S    
C1    O18   A    
C65   C67   A    
C160  C169  A    
C3    C137  A    
C93   C99   A    
C81   C89   A    
C123  O21   A    
C101  C157  S    
C44   C140  S    
C21   C164  A    
O19   Zn8   S    
C130  C139  A    
C167  O26   A    
O28   Zn4   S    
O12   Zn5   S    
C56   H59   S    
C33   C115  A    
C58   H58   S    
C53   C57   A    
C132  C185  A    
C177  O14   A    
O29   Zn4   S    
O30   Zn3   S    
C10   C19   A    
C48   C102  A    
C46   C54   A    
C68   H8    S    
C149  H16   S    
C5    C14   A    
O34   Zn7   S    
C181  O17   A    
C17   C121  A    
C143  C152  A    
C15   C128  A    
C43   C141  S    
C107  C121  A    
O16   Zn10  S    
C158  C166  A    
C21   H40   S    
C25   H43   S    
C115  C124  A    
C39   O38   A    
C78   C178  A    
C106  C185  A    
C6    C131  A    
C123  O34   A    
C5    H24   S    
C4    C129  A    
C27   C36   A    
C21   C30   A    
C13   C83   A    
C40   O39   A    
O4    Zn10  S    
C156  O46   A    
C153  C162  A    
C23   C32   A    
C11   C137  A    
C136  C144  A    
C110  C122  A    
C9    H28   S    
C22   H41   S    
C39   C146  S    
C42   O37   A    
C164  C182  A    
C35   H5    S    
O21   Zn10  S    
C176  O13   A    
C16   H35   S    
O23   Zn6   S    
O18   Zn9   S    
C96   H60   S    
C94   C176  S    
C68   C80   A    
O1    Zn1   S    
C74   C178  A    
C79   H9    S    
C103  C182  A    
C108  C187  A    
C8    H27   S    
C35   C81   A    
C95   C98   A    
C92   C98   A    
C83   C92   A    
C14   C125  A    
O41   Zn2   S    
C10   C136  A    
C154  H21   S    
C66   C69   A    
C34   C116  A    
C101  O12   A    
C4    H22   S    
C159  C168  A    
C144  C153  A    
C1    C155  S    
C6    C15   A    
C22   C165  A    
C26   C34   A    
C129  C138  A    
C26   C169  A    
C146  C154  A    
C13   C86   A    
C42   C142  S    
C62   H23   S    
C12   H31   S    
C52   C68   A    
C101  O19   A    
C156  C162  S    
C29   C172  A    
O38   Zn4   S    
C16   C127  A    
O10   Zn5   S    
C167  O47   A    
C19   C124  A    
C45   O33   A    
C22   C31   A    
C37   C118  A    
C35   C55   A    
C154  C163  A    
C174  O2    A    
C26   H44   S    
C49   C58   A    
C89   C97   A    
C111  C120  A    
C15   H33   S    
C163  C167  S    
C29   H48   S    
C163  C172  A    
C23   C166  A    
O45   Zn9   S    
C53   C62   A    
C28   C171  A    
C27   C170  A    
C13   C76   A    
C138  C147  A    
C87   C96   A    
C156  O25   A    
C133  C186  A    
C161  C170  A    
C97   H2    S    
C40   C144  S    
C30   H49   S    
C18   C120  A    
O9    Zn1   S    
C48   C56   A    
C7    C16   A    
C168  C185  A    
C105  C128  A    
C8    C133  A    
C147  H14   S    
C53   C73   A    
O25   Zn7   S    
C150  H17   S    
C109  C124  A    
C90   H10   S    
C55   C64   A    
C155  C164  A    
C177  O5    A    
C30   C111  A    
C151  C160  A    
C24   C84   A    
C17   H36   S    
C145  O45   A    
C49   C100  A    
C71   C75   A    
C94   C99   A    
O44   Zn8   S    
C151  H18   S    
C23   H42   S    
C2    C80   A    
C28   H47   S    
C87   C179  S    
C114  C122  A    
C100  H11   S    
C70   C72   A    
C32   C114  A    
O24   Zn1   S    
C148  H15   S    
C175  O11   A    
