data_mof_unit_31264.cif
_audit_creation_date              2012-12-10T20:46:49-0500
_audit_creation_method            fapswitch 2.2
_symmetry_space_group_name_H-M    P1
_symmetry_Int_Tables_number       1
_space_group_crystal_system       triclinic
_cell_length_a                    12.903165
_cell_length_b                    8.935445
_cell_length_c                    8.113043
_cell_angle_alpha                 90.007017
_cell_angle_beta                  97.227258
_cell_angle_gamma                 90.006262
_cell_volume                      927.965738658

loop_
_atom_site_label
_atom_site_type_symbol
_atom_type_description
_atom_site_fract_x
_atom_site_fract_y
_atom_site_fract_z
_atom_type_partial_charge
C1    C     C_R   0.500011 0.218011 0.499997 0.939092
C2    C     C_R   0.499989 0.781989 0.500003 0.939092
C3    C     C_R   0.297708 0.499179 0.467584 0.889911
C4    C     C_R   0.702292 0.500821 0.532416 0.889911
C5    C     C_R   0.814123 0.498652 0.552640 -0.091736
C6    C     C_R   0.185877 0.501348 0.447360 -0.091736
C7    C     C_R   0.022653 0.568348 0.288234 0.099904
C8    C     C_R   0.977347 0.431652 0.711766 0.099905
C9    C     C_R   0.130075 0.553862 0.300371 -0.186224
C10   C     C_R   0.869925 0.446138 0.699629 -0.186224
C11   C     C_R   0.135712 0.457980 0.581534 -0.284423
C12   C     C_R   0.864288 0.542019 0.418466 -0.284423
C13   C     C_R   0.028646 0.471777 0.574086 0.112974
C14   C     C_R   0.971354 0.528222 0.425914 0.112974
C15   C     C_1   0.500004 0.065191 0.499993 -0.192491
C16   C     C_1   0.499996 0.934809 0.500007 -0.192492
H1    H     H_    0.818632 0.584836 0.307434 0.164309
H2    H     H_    0.181368 0.415163 0.692565 0.164309
N1    N     N_1   0.500020 0.500000 0.073640 -0.038466
N2    N     N_1   0.499980 0.500000 0.926360 -0.038467
O1    O     O_R   0.499990 0.285340 0.636850 -0.616943
O2    O     O_R   0.500010 0.714660 0.363150 -0.616943
O3    O     O_R   0.500010 0.285340 0.363150 -0.613508
O4    O     O_R   0.499990 0.714660 0.636850 -0.613508
O5    O     O_R   0.346350 0.500000 0.614250 -0.623497
O6    O     O_R   0.653650 0.500000 0.385750 -0.623497
O7    O     O_R   0.346360 0.500000 0.340500 -0.629158
O8    O     O_R   0.653640 0.500000 0.659500 -0.629158
Zn1   Zn    Zn3+2 0.499990 0.500000 0.682780 0.983581
Zn2   Zn    Zn3+2 0.500010 0.500000 0.317220 0.983581
H3    H     H_    0.829877 0.412246 0.803271 0.166636
H4    H     H_    0.170123 0.587754 0.196729 0.166636
N3    N     N_3   0.968338 0.625948 0.136379 -0.464435
H5    H     H_    0.913435 0.546740 0.086819 0.197685
H6    H     H_    0.929608 0.724242 0.162507 0.186789
N4    N     N_3   0.031662 0.374051 0.863621 -0.464435
H7    H     H_    0.086566 0.453259 0.913181 0.197685
H8    H     H_    0.070391 0.275757 0.837493 0.186789

loop_
_geom_bond_atom_site_label_1
_geom_bond_atom_site_label_2
_ccdc_geom_bond_type
C12   H1    S    
C2    O2    A    
C4    O6    A    
C11   H2    S    
C1    O1    A    
C8    C13   A    
C1    C15   S    
C11   C13   A    
N1    N2    T    
C3    C6    S    
C6    C9    A    
C3    O7    A    
N3    H5    S    
C5    C10   A    
C13   C14   A    
O7    Zn2   S    
O5    Zn1   S    
C7    N3    S    
N4    H8    S    
N4    H7    S    
C4    O8    A    
C12   C14   A    
C1    O3    A    
N2    Zn1   S    
C2    O4    A    
C15   C16   T    
O3    Zn2   S    
C3    O5    A    
C2    C16   S    
C5    C12   A    
C8    C10   A    
C8    N4    S    
C6    C11   A    
C7    C9    A    
O4    Zn1   S    
O8    Zn1   S    
O2    Zn2   S    
C9    H4    S    
N3    H6    S    
N1    Zn2   S    
O1    Zn1   S    
C10   H3    S    
C7    C14   A    
C4    C5    S    
O6    Zn2   S    
