data_mof_unit_58046.cif
_audit_creation_date              2012-12-10T20:31:57-0500
_audit_creation_method            fapswitch 2.2
_symmetry_space_group_name_H-M    P1
_symmetry_Int_Tables_number       1
_space_group_crystal_system       triclinic
_cell_length_a                    9.894136
_cell_length_b                    10.68105
_cell_length_c                    15.3836
_cell_angle_alpha                 90.209391
_cell_angle_beta                  67.599183
_cell_angle_gamma                 89.572853
_cell_volume                      1502.97930853

loop_
_atom_site_label
_atom_site_type_symbol
_atom_type_description
_atom_site_fract_x
_atom_site_fract_y
_atom_site_fract_z
_atom_type_partial_charge
C1    C     C_R   0.501648 0.740082 0.496779 0.876774
C2    C     C_R   0.693891 0.368601 0.044296 0.109134
C3    C     C_R   0.564028 0.436566 0.094037 0.098234
C4    C     C_R   0.407669 0.497634 0.676255 0.862550
C5    C     C_R   0.801234 0.354244 0.082249 -0.178712
C6    C     C_R   0.779719 0.402770 0.171562 -0.010256
C7    C     C_R   0.550510 0.495170 0.178211 -0.249742
C8    C     C_R   0.391653 0.937295 0.476994 0.144350
C9    C     C_R   0.511302 0.871432 0.480488 -0.111256
C10   C     C_R   0.642781 0.934123 0.464725 -0.222699
C11   C     C_R   0.643506 0.063691 0.464226 -0.201982
C12   C     C_R   0.385990 0.439556 0.920347 0.091052
C13   C     C_R   0.512779 0.128778 0.479427 -0.110231
C14   C     C_R   0.392521 0.065146 0.476162 0.131669
C15   C     C_3   0.234988 0.075027 0.539794 -0.458876
C16   C     C_R   0.502692 0.260064 0.496211 0.882575
C17   C     C_3   0.234511 0.933407 0.541494 -0.505058
C18   C     C_R   0.906401 0.597956 0.538385 0.187927
C19   C     C_R   0.955270 0.408289 0.455355 -0.105199
C20   C     C_R   0.098819 0.407931 0.455752 -0.099419
C21   C     C_R   0.050251 0.599919 0.535529 0.194866
C22   C     C_3   0.004616 0.650991 0.632570 -0.534464
C23   C     C_R   0.251075 0.499689 0.973559 0.178176
C24   C     C_3   0.847948 0.644152 0.638666 -0.255155
C25   C     C_R   0.592362 0.496260 0.323259 0.860289
C26   C     C_R   0.344981 0.488301 0.778456 -0.070613
C27   C     C_R   0.649166 0.471355 0.221271 -0.167212
C28   C     C_R   0.159372 0.543251 0.929402 -0.204205
C29   C     C_R   0.207632 0.539963 0.831762 -0.185884
C30   C     C_R   0.426670 0.429633 0.822885 -0.286063
C31   C     C_2   0.762301 0.550686 0.711052 0.504896
C32   C     C_2   0.894235 0.378651 0.209922 0.363945
C33   C     C_R   0.483038 0.404297 0.964312 0.050825
C34   C     C_R   0.452826 0.446376 0.057339 0.070451
C35   C     C_R   0.312388 0.496381 0.110588 -0.204080
C36   C     C_R   0.212729 0.521246 0.069215 -0.192840
C37   C     C_R   0.611870 0.333171 0.917473 -0.187563
C38   C     C_R   0.714922 0.315124 0.957343 -0.210223
H1    H     H_    0.108476 0.564216 0.111169 0.130352
H2    H     H_    0.173676 0.332314 0.421427 0.145017
H3    H     H_    0.032971 0.586730 0.679905 0.229112
H4    H     H_    0.459756 0.557451 0.213997 0.155948
H5    H     H_    0.040290 0.748454 0.634122 0.175670
H6    H     H_    0.793445 0.737350 0.646972 0.119130
H7    H     H_    0.812671 0.260626 0.919158 0.157195
H8    H     H_    0.054959 0.587204 0.969790 0.141133
H9    H     H_    0.140845 0.582488 0.798035 0.146688
H10   H     H_    0.527152 0.384896 0.778667 0.184370
H11   H     H_    0.275917 0.516362 0.184846 0.144536
H12   H     H_    0.900993 0.302889 0.042706 0.179959
H13   H     H_    0.634565 0.287835 0.850613 0.177169
H14   H     H_    0.670035 0.582916 0.772176 0.043826
H15   H     H_    0.911264 0.442760 0.259288 0.089092
H16   H     H_    0.741284 0.884388 0.459829 0.169492
H17   H     H_    0.742251 0.111744 0.459160 0.172628
H18   H     H_    0.218184 0.118323 0.609073 0.211153
H19   H     H_    0.166590 0.115193 0.503641 0.204007
H20   H     H_    0.219652 0.895131 0.611635 0.198939
H21   H     H_    0.164911 0.891815 0.506946 0.205229
H22   H     H_    0.922388 0.333043 0.420649 0.143554
N1    N     N_R   0.856900 0.500860 0.500610 -0.094965
N2    N     N_R   0.142540 0.500820 0.500610 -0.095378
O1    O     O_R   0.385310 0.683210 0.499990 -0.611507
O2    O     O_2   0.975166 0.287401 0.184179 -0.574490
O3    O     O_R   0.614650 0.683240 0.500000 -0.629538
O4    O     O_R   0.319830 0.499970 0.632240 -0.608622
O5    O     O_R   0.549170 0.500000 0.632250 -0.599429
O6    O     O_R   0.385350 0.316760 0.500000 -0.615788
O7    O     O_R   0.614690 0.316790 0.500010 -0.616199
O8    O     O_R   0.450830 0.500000 0.367750 -0.604771
O9    O     O_R   0.680170 0.500030 0.367760 -0.640084
O10   O     O_2   0.799314 0.440499 0.704167 -0.591184
Zn1   Zn    Zn3+2 0.346870 0.499980 0.499990 0.950381
Zn2   Zn    Zn3+2 0.653130 0.500020 0.500010 0.951398

loop_
_geom_bond_atom_site_label_1
_geom_bond_atom_site_label_2
_ccdc_geom_bond_type
C6    C32   S    
C18   C21   A    
C35   C36   A    
C31   H14   S    
C12   C23   A    
C28   H8    S    
C29   H9    S    
C18   C24   S    
C30   H10   S    
C28   C29   A    
C3    C7    A    
C5    C6    A    
C37   H13   S    
C22   H3    S    
C7    C27   A    
C34   C35   A    
C7    H4    S    
C38   H7    S    
C22   H5    S    
C8    C9    A    
C35   H11   S    
C1    O3    A    
N2    Zn1   S    
C25   O9    A    
C9    C10   A    
C17   H20   S    
C13   C14   A    
C15   H19   S    
C1    O1    A    
C1    C9    S    
C32   O2    D    
O1    Zn1   S    
C3    C34   A    
O6    Zn1   S    
O4    Zn1   S    
C33   C37   A    
O3    Zn2   S    
C37   C38   A    
C4    O5    A    
C2    C38   A    
C6    C27   A    
O8    Zn1   S    
C33   C34   A    
O7    Zn2   S    
O5    Zn2   S    
C23   C28   A    
C21   N2    A    
C17   H21   S    
C16   O6    A    
C31   O10   D    
C26   C30   A    
C24   H6    S    
C22   C24   S    
C5    H12   S    
C2    C5    A    
C32   H15   S    
C11   H17   S    
C15   C17   S    
C8    C14   A    
C12   C30   A    
C36   H1    S    
C16   O7    A    
O9    Zn2   S    
C4    C26   S    
C18   N1    A    
N1    Zn2   S    
C25   C27   S    
C8    C17   S    
C15   H18   S    
C19   C20   A    
C2    C3    A    
C24   C31   S    
C4    O4    A    
C11   C13   A    
C19   N1    A    
C20   H2    S    
C20   N2    A    
C10   H16   S    
C10   C11   A    
C26   C29   A    
C23   C36   A    
C13   C16   S    
C14   C15   S    
C19   H22   S    
C25   O8    A    
C12   C33   A    
C21   C22   S    
