data_mof_unit_13257.cif
_audit_creation_date              2012-12-10T19:09:29-0500
_audit_creation_method            fapswitch 2.2
_symmetry_space_group_name_H-M    P1
_symmetry_Int_Tables_number       1
_space_group_crystal_system       triclinic
_cell_length_a                    15.266083
_cell_length_b                    15.488156
_cell_length_c                    10.036422
_cell_angle_alpha                 91.756656
_cell_angle_beta                  88.62727
_cell_angle_gamma                 90.451174
_cell_volume                      2371.18998146

loop_
_atom_site_label
_atom_site_type_symbol
_atom_type_description
_atom_site_fract_x
_atom_site_fract_y
_atom_site_fract_z
_atom_type_partial_charge
C1    C     C_R   0.122447 0.381550 0.498491 0.819987
C2    C     C_R   0.878919 0.621456 0.502464 0.839720
C3    C     C_R   0.383215 0.875494 0.498927 0.902091
C4    C     C_R   0.378924 0.121461 0.502467 0.840153
C5    C     C_3   0.826479 0.249138 0.626712 -0.104335
C6    C     C_3   0.833490 0.239791 0.372344 -0.113454
C7    C     C_3   0.792940 0.719643 0.360027 -0.050785
C8    C     C_3   0.840942 0.774314 0.589496 -0.072453
C9    C     C_3   0.326520 0.749105 0.626685 -0.104266
C10   C     C_3   0.333477 0.739811 0.372312 -0.113535
C11   C     C_3   0.292950 0.219646 0.360039 -0.050839
C12   C     C_R   0.127505 0.612894 0.499569 0.855016
C13   C     C_3   0.340927 0.274299 0.589525 -0.072357
C14   C     C_3   0.255885 0.676260 0.628837 -0.131151
C15   C     C_3   0.266964 0.662818 0.378249 -0.130683
C16   C     C_3   0.211313 0.276747 0.355539 -0.144967
C17   C     C_3   0.279186 0.351029 0.560913 -0.139430
C18   C     C_3   0.755804 0.176335 0.628905 -0.131070
C19   C     C_3   0.767013 0.162769 0.378338 -0.130848
C20   C     C_3   0.711303 0.776743 0.355539 -0.144941
C21   C     C_3   0.779182 0.851031 0.560923 -0.139069
C22   C     C_3   0.722555 0.340415 0.492147 0.140030
C23   C     C_R   0.622444 0.881547 0.498493 0.819975
C24   C     C_3   0.719593 0.661304 0.571429 0.150890
C25   C     C_3   0.222566 0.840413 0.492229 0.140096
C26   C     C_3   0.219587 0.161302 0.571420 0.150769
C27   C     C_3   0.818894 0.302271 0.496897 0.101179
C28   C     C_3   0.810850 0.692449 0.506782 0.059162
C29   C     C_3   0.318906 0.802264 0.496902 0.101182
C30   C     C_3   0.310847 0.192445 0.506793 0.059252
C31   C     C_3   0.199883 0.677883 0.498750 0.061091
C32   C     C_3   0.191144 0.314466 0.499371 0.032244
C33   C     C_3   0.699873 0.177889 0.498744 0.061024
C34   C     C_R   0.627500 0.112899 0.499569 0.855199
C35   C     C_3   0.691140 0.814463 0.499378 0.032122
C36   C     C_3   0.155297 0.765711 0.488723 -0.420810
C37   C     C_3   0.156664 0.239282 0.584227 -0.331462
C38   C     C_3   0.655292 0.265707 0.488539 -0.420653
C39   C     C_3   0.656665 0.739279 0.584240 -0.331494
C40   C     C_3   0.053504 0.427814 0.071644 -0.104715
C41   C     C_3   0.049000 0.425835 0.911759 0.028970
C42   C     C_3   0.047314 0.577201 0.922270 -0.025804
C43   C     C_3   0.040962 0.580007 0.082820 -0.062035
C44   C     C_3   0.553483 0.927797 0.071647 -0.104725
C45   C     C_3   0.906977 0.486356 0.088329 0.371239
C46   C     C_3   0.548992 0.925831 0.911760 0.028966
C47   C     C_3   0.547316 0.077200 0.922273 -0.025796
C48   C     C_3   0.540982 0.079996 0.082823 -0.062032
C49   C     C_3   0.905535 0.500838 0.928761 0.211748
C50   C     C_3   0.406972 0.986377 0.088333 0.371263
C51   C     C_3   0.405533 0.000839 0.928760 0.211757
C52   C     C_R   0.883207 0.375499 0.498927 0.902109
H1    H     H_    0.813446 0.294757 0.712475 0.188729
H2    H     H_    0.301213 0.601380 0.397232 0.125239
H3    H     H_    0.791372 0.427002 0.921171 0.120782
H4    H     H_    0.868299 0.605971 0.820096 0.251748
H5    H     H_    0.795172 0.579979 0.933111 0.148821
H6    H     H_    0.857998 0.609704 0.142072 0.201867
H7    H     H_    0.781549 0.533100 0.139489 0.127311
H8    H     H_    0.385088 0.850996 0.051663 0.167708
H9    H     H_    0.305945 0.897835 0.137185 0.148016
H10   H     H_    0.291376 0.926994 0.921177 0.120789
H11   H     H_    0.324185 0.961728 0.780721 0.221510
H12   H     H_    0.295163 0.079970 0.933090 0.148822
H13   H     H_    0.222495 0.329901 0.284536 0.139746
H14   H     H_    0.368288 0.105967 0.820080 0.251739
H15   H     H_    0.281559 0.033163 0.139492 0.127304
H16   H     H_    0.358030 0.109747 0.142035 0.201877
H17   H     H_    0.310550 0.393304 0.485797 0.143009
H18   H     H_    0.787271 0.111830 0.630279 0.126120
H19   H     H_    0.801283 0.101365 0.397470 0.125287
H20   H     H_    0.722483 0.829901 0.284532 0.139749
H21   H     H_    0.810534 0.893321 0.485810 0.143114
H22   H     H_    0.108063 0.773651 0.573229 0.173602
H23   H     H_    0.114730 0.766623 0.398103 0.171949
H24   H     H_    0.089148 0.219701 0.555907 0.186291
H25   H     H_    0.820129 0.277516 0.283424 0.170067
H26   H     H_    0.150109 0.261830 0.689643 0.164766
H27   H     H_    0.607955 0.273673 0.572898 0.173648
H28   H     H_    0.614828 0.266577 0.397814 0.171902
H29   H     H_    0.589148 0.719691 0.555923 0.186278
H30   H     H_    0.650110 0.761825 0.689660 0.164743
H31   H     H_    0.123482 0.439298 0.097973 0.111575
H32   H     H_    0.118125 0.432387 0.875893 0.101365
H33   H     H_    0.118517 0.568098 0.898658 0.121362
H34   H     H_    0.110192 0.579343 0.114275 0.141516
H35   H     H_    0.623464 0.939246 0.097998 0.111620
H36   H     H_    0.777631 0.659635 0.303371 0.184292
H37   H     H_    0.618120 0.932379 0.875903 0.101321
H38   H     H_    0.618517 0.068103 0.898633 0.121352
H39   H     H_    0.610217 0.079307 0.114258 0.141460
H40   H     H_    0.922823 0.154692 0.600290 0.173890
H41   H     H_    0.921856 0.204863 0.747169 0.163878
H42   H     H_    0.933744 0.148738 0.388567 0.180577
H43   H     H_    0.938572 0.204910 0.251947 0.170749
H44   H     H_    0.879452 0.822587 0.327548 0.195626
H45   H     H_    0.854029 0.764946 0.192400 0.144686
H46   H     H_    0.946295 0.856226 0.610728 0.182980
H47   H     H_    0.834836 0.759524 0.697458 0.167530
H48   H     H_    0.970494 0.751926 0.608210 0.190462
H49   H     H_    0.422926 0.654716 0.600244 0.173877
H50   H     H_    0.421922 0.704870 0.747134 0.163887
H51   H     H_    0.433688 0.648712 0.388515 0.180537
H52   H     H_    0.438546 0.704895 0.251907 0.170760
H53   H     H_    0.379493 0.322571 0.327612 0.195571
H54   H     H_    0.354050 0.264970 0.192435 0.144684
H55   H     H_    0.446205 0.356410 0.610174 0.182989
H56   H     H_    0.470448 0.252121 0.609044 0.190363
H57   H     H_    0.242992 0.673371 0.832570 0.154054
H58   H     H_    0.313461 0.794705 0.712465 0.188727
H59   H     H_    0.180400 0.748385 0.764316 0.198709
H60   H     H_    0.273321 0.631983 0.177815 0.160966
H61   H     H_    0.199225 0.708562 0.218648 0.167913
H62   H     H_    0.149834 0.203558 0.208023 0.161440
H63   H     H_    0.079872 0.252036 0.322350 0.216761
H64   H     H_    0.239001 0.463414 0.662007 0.191697
H65   H     H_    0.231010 0.372882 0.754763 0.195480
H66   H     H_    0.742800 0.173632 0.832639 0.154035
H67   H     H_    0.680255 0.248587 0.764139 0.198819
H68   H     H_    0.773495 0.131822 0.177958 0.161025
H69   H     H_    0.320142 0.777568 0.283415 0.170120
H70   H     H_    0.699313 0.208356 0.218598 0.167923
H71   H     H_    0.649819 0.703577 0.208008 0.161429
H72   H     H_    0.579852 0.752007 0.322384 0.216769
H73   H     H_    0.738998 0.963406 0.662056 0.191642
H74   H     H_    0.731013 0.872859 0.754791 0.195447
H75   H     H_    0.639724 0.415369 0.614268 0.168717
H76   H     H_    0.743385 0.447953 0.606211 0.166432
H77   H     H_    0.651317 0.425673 0.384003 0.178563
H78   H     H_    0.705328 0.355704 0.288318 0.151336
H79   H     H_    0.725830 0.548390 0.457363 0.182635
H80   H     H_    0.277645 0.159641 0.303375 0.184299
H81   H     H_    0.627925 0.563475 0.537818 0.168683
H82   H     H_    0.756971 0.568570 0.697336 0.170773
H83   H     H_    0.668162 0.619280 0.751026 0.166578
H84   H     H_    0.139781 0.915375 0.614410 0.168739
H85   H     H_    0.243427 0.947983 0.606184 0.166458
H86   H     H_    0.151286 0.925654 0.384115 0.178586
H87   H     H_    0.205268 0.855676 0.288404 0.151357
H88   H     H_    0.225827 0.048398 0.457326 0.182614
H89   H     H_    0.127926 0.063473 0.537789 0.168728
H90   H     H_    0.256963 0.068576 0.697349 0.170769
H91   H     H_    0.334766 0.259521 0.697485 0.167535
H92   H     H_    0.168146 0.119267 0.750990 0.166625
H93   H     H_    0.086635 0.303405 0.105004 0.153163
H94   H     H_    0.012019 0.345913 0.218391 0.279541
H95   H     H_    0.065041 0.295329 0.873031 0.144217
H96   H     H_    0.959825 0.323514 0.883129 0.203261
H97   H     H_    0.072221 0.706029 0.903288 0.143967
H98   H     H_    0.970019 0.687167 0.874660 0.174196
H99   H     H_    0.055810 0.704668 0.158874 0.160932
H100  H     H_    0.962298 0.689462 0.083152 0.164318
H101  H     H_    0.586519 0.803327 0.104855 0.153108
H102  H     H_    0.287391 0.611767 0.630049 0.126106
H103  H     H_    0.512021 0.845897 0.218408 0.279536
H104  H     H_    0.565047 0.795338 0.872954 0.144133
H105  H     H_    0.459831 0.823493 0.883221 0.203236
H106  H     H_    0.572194 0.206035 0.903332 0.144010
H107  H     H_    0.469998 0.187163 0.874712 0.174163
H108  H     H_    0.555885 0.204638 0.158937 0.160877
H109  H     H_    0.462361 0.189492 0.083209 0.164291
H110  H     H_    0.805978 0.397774 0.137097 0.147983
H111  H     H_    0.885156 0.350975 0.051620 0.167715
H112  H     H_    0.824186 0.461739 0.780712 0.221477
N1    N     N_3   0.998760 0.500000 0.138610 -0.078583
N2    N     N_3   0.424536 0.710786 0.354354 -0.475174
N3    N     N_3   0.369086 0.259402 0.292894 -0.434365
N4    N     N_3   0.432535 0.297228 0.561741 -0.477361
N5    N     N_3   0.203058 0.685085 0.751844 -0.436424
N6    N     N_3   0.225342 0.650497 0.248995 -0.456372
N7    N     N_3   0.139283 0.221297 0.308373 -0.451361
N8    N     N_3   0.268375 0.404860 0.683089 -0.493049
N9    N     N_3   0.702916 0.185280 0.751831 -0.436420
N10   N     N_3   0.725457 0.150331 0.249049 -0.456404
N11   N     N_3   0.639270 0.721289 0.308368 -0.451365
N12   N     N_3   0.998760 0.500000 0.861390 -0.071150
N13   N     N_3   0.768373 0.904848 0.683119 -0.493025
N14   N     N_3   0.704423 0.393463 0.613119 -0.502177
N15   N     N_3   0.711600 0.394145 0.374655 -0.474088
N16   N     N_3   0.678984 0.594144 0.485966 -0.456896
N17   N     N_3   0.729819 0.629193 0.705842 -0.514763
N18   N     N_3   0.204488 0.893484 0.613193 -0.502164
N19   N     N_3   0.211567 0.894125 0.374727 -0.474139
N20   N     N_3   0.178982 0.094148 0.485947 -0.456888
N21   N     N_3   0.229799 0.129188 0.705831 -0.514823
N22   N     N_3   0.031792 0.342303 0.119282 -0.486127
N23   N     N_3   0.498760 0.000000 0.138610 -0.078563
N24   N     N_3   0.020960 0.343486 0.849438 -0.374091
N25   N     N_3   0.031091 0.660009 0.858565 -0.384645
N26   N     N_3   0.005329 0.659605 0.145117 -0.371735
N27   N     N_3   0.531722 0.842292 0.119268 -0.486104
N28   N     N_3   0.520938 0.843488 0.849433 -0.374004
N29   N     N_3   0.531073 0.160013 0.858596 -0.384663
N30   N     N_3   0.505382 0.159601 0.145152 -0.371713
N31   N     N_3   0.873890 0.399198 0.123468 -0.418917
N32   N     N_3   0.849063 0.435242 0.864740 -0.459834
N33   N     N_3   0.862727 0.584853 0.914503 -0.532217
N34   N     N_3   0.498760 1.000000 0.861390 -0.071146
N35   N     N_3   0.847068 0.545599 0.162215 -0.389464
N36   N     N_3   0.373857 0.899233 0.123506 -0.418879
N37   N     N_3   0.349067 0.935234 0.864749 -0.459775
N38   N     N_3   0.362717 0.084848 0.914485 -0.532228
N39   N     N_3   0.347083 0.045649 0.162202 -0.389507
N40   N     N_3   0.915104 0.215639 0.645646 -0.450032
N41   N     N_3   0.924562 0.210805 0.354393 -0.475141
N42   N     N_3   0.869069 0.759405 0.292865 -0.434370
N43   N     N_3   0.932526 0.797301 0.561636 -0.477420
N44   N     N_3   0.415166 0.715653 0.645615 -0.450029
O1    O     O_R   0.092530 0.407440 0.616040 -0.612950
O2    O     O_R   0.907330 0.407420 0.383960 -0.603830
O3    O     O_R   0.907330 0.592580 0.383960 -0.562941
O4    O     O_R   0.907330 0.592580 0.616040 -0.656807
O5    O     O_R   0.407330 0.907420 0.616040 -0.618456
O6    O     O_R   0.407330 0.907420 0.383960 -0.603877
O7    O     O_R   0.407330 0.092580 0.383960 -0.562976
O8    O     O_R   0.407330 0.092580 0.616040 -0.656806
O9    O     O_R   0.092530 0.407440 0.383960 -0.663169
O10   O     O_R   0.092530 0.592560 0.383960 -0.585851
O11   O     O_R   0.092530 0.592560 0.616040 -0.584821
O12   O     O_R   0.592530 0.907440 0.616040 -0.612966
O13   O     O_R   0.592530 0.907440 0.383960 -0.663163
O14   O     O_R   0.592530 0.092560 0.383960 -0.585850
O15   O     O_R   0.592530 0.092560 0.616040 -0.584837
O16   O     O_R   0.907330 0.407420 0.616040 -0.618484
Zn1   Zn    Zn3+2 0.999890 0.500000 0.654960 0.943222
Zn2   Zn    Zn3+2 0.999890 0.500000 0.345040 0.960659
Zn3   Zn    Zn3+2 0.499890 0.000000 0.654960 0.943245
Zn4   Zn    Zn3+2 0.499890 1.000000 0.345040 0.960676

loop_
_geom_bond_atom_site_label_1
_geom_bond_atom_site_label_2
_ccdc_geom_bond_type
C18   H18   S    
C11   N3    S    
H43   N41   S    
C4    O8    A    
O2    Zn2   S    
C19   H19   S    
C45   N31   S    
C10   C29   S    
C14   C31   S    
C22   N14   S    
C10   H69   S    
C11   H80   S    
C5    N40   S    
C17   N8    S    
C46   H37   S    
C49   N33   S    
C50   N39   S    
C27   C52   S    
C3    O6    A    
C17   H17   S    
C6    C19   S    
H77   N15   S    
O13   Zn4   S    
C2    O3    A    
H88   N20   S    
C5    H1    S    
C36   H23   S    
C8    H47   S    
C1    O9    A    
C44   N23   S    
C10   C15   S    
C7    N42   S    
C44   N27   S    
C26   N21   S    
O15   Zn3   S    
C46   N34   S    
C20   N11   S    
C40   N22   S    
C38   H27   S    
C22   C38   S    
C21   H21   S    
C24   C39   S    
C47   N29   S    
H64   N8    S    
H74   N13   S    
O7    Zn4   S    
C3    C29   S    
H41   N40   S    
C6    N41   S    
H100  N26   S    
C5    C27   S    
C20   C35   S    
H99   N26   S    
H60   N6    S    
C47   C48   S    
C43   N26   S    
H7    N35   S    
C48   H39   S    
H110  N31   S    
C24   N16   S    
C47   N34   S    
C16   N7    S    
O14   Zn4   S    
H45   N42   S    
C44   H35   S    
O6    Zn4   S    
C12   O11   A    
H40   N40   S    
C51   N38   S    
C9    C29   S    
O9    Zn2   S    
C51   N34   S    
H5    N33   S    
C7    H36   S    
H3    N32   S    
H56   N4    S    
C4    O7    A    
H109  N30   S    
C14   H102  S    
H16   N39   S    
C52   O2    A    
H75   N14   S    
C40   H31   S    
H42   N41   S    
O1    Zn1   S    
C14   N5    S    
C50   N23   S    
H9    N36   S    
C12   O10   A    
H48   N43   S    
H57   N5    S    
C50   C51   S    
H92   N21   S    
C43   N1    S    
C25   C29   S    
H62   N7    S    
H6    N35   S    
H106  N29   S    
C1    O1    A    
O8    Zn3   S    
C15   H2    S    
C23   O13   A    
C13   C30   S    
C11   C30   S    
C48   N23   S    
H63   N7    S    
C19   C33   S    
H72   N11   S    
C50   N36   S    
C15   N6    S    
C13   N4    S    
H85   N18   S    
C44   C46   S    
O16   Zn1   S    
H70   N10   S    
C41   H32   S    
O3    Zn2   S    
C1    C32   S    
C7    C28   S    
H53   N3    S    
C41   N24   S    
H59   N5    S    
C8    N43   S    
C35   C39   S    
C9    C14   S    
H10   N37   S    
O5    Zn3   S    
H49   N44   S    
C11   C16   S    
H44   N42   S    
C6    C27   S    
H111  N31   S    
C10   N2    S    
N12   Zn1   S    
C33   C34   S    
C26   C37   S    
C42   H33   S    
C32   C37   S    
O11   Zn1   S    
C15   C31   S    
H86   N19   S    
C39   H29   S    
C40   N1    S    
H103  N27   S    
H65   N8    S    
O4    Zn1   S    
H104  N28   S    
H68   N10   S    
C40   C41   S    
H55   N4    S    
C37   H24   S    
C52   O16   A    
C23   C35   S    
C22   C27   S    
C12   C31   S    
H73   N13   S    
C8    C28   S    
C47   H38   S    
H46   N43   S    
C3    O5    A    
C42   C43   S    
H83   N17   S    
H82   N17   S    
H87   N19   S    
C25   N18   S    
H108  N30   S    
H4    N33   S    
H101  N27   S    
C9    H58   S    
H107  N29   S    
H90   N21   S    
H12   N38   S    
C23   O12   A    
C36   H22   S    
H11   N37   S    
C48   N30   S    
C24   N17   S    
C43   H34   S    
H97   N25   S    
H94   N22   S    
C24   C28   S    
C39   H30   S    
C46   N28   S    
C22   N15   S    
C6    H25   S    
C9    N44   S    
C8    C21   S    
N34   Zn3   S    
H71   N11   S    
H79   N16   S    
H112  N32   S    
H81   N16   S    
C26   C30   S    
H61   N6    S    
C21   C35   S    
C49   N32   S    
H95   N24   S    
C16   C32   S    
C37   H26   S    
C2    O4    A    
C33   C38   S    
H66   N9    S    
C13   C17   S    
H93   N22   S    
H89   N20   S    
C34   O14   A    
H54   N3    S    
H105  N28   S    
C42   N12   S    
H67   N9    S    
H98   N25   S    
N23   Zn4   S    
C42   N25   S    
C38   H28   S    
C5    C18   S    
C21   N13   S    
N1    Zn2   S    
C45   C49   S    
H50   N44   S    
C34   O15   A    
C13   H91   S    
C18   C33   S    
C19   N10   S    
H15   N39   S    
H78   N15   S    
H8    N36   S    
C25   C36   S    
H52   N2    S    
C41   N12   S    
H14   N38   S    
C18   N9    S    
C51   N37   S    
H96   N24   S    
H76   N14   S    
O12   Zn3   S    
H51   N2    S    
C7    C20   S    
H84   N18   S    
C45   N35   S    
C17   C32   S    
C31   C36   S    
C20   H20   S    
C2    C28   S    
C16   H13   S    
C45   N1    S    
O10   Zn2   S    
C49   N12   S    
C4    C30   S    
C25   N19   S    
C26   N20   S    
