data_mof_unit_11342.cif
_audit_creation_date              2012-12-11T17:10:41-0500
_audit_creation_method            fapswitch 2.2
_symmetry_space_group_name_H-M    P1
_symmetry_Int_Tables_number       1
_space_group_crystal_system       triclinic
_cell_length_a                    14.942896
_cell_length_b                    14.874083
_cell_length_c                    14.964174
_cell_angle_alpha                 109.425771
_cell_angle_beta                  110.416041
_cell_angle_gamma                 109.082694
_cell_volume                      2543.7810442

loop_
_atom_site_label
_atom_site_type_symbol
_atom_type_description
_atom_site_fract_x
_atom_site_fract_y
_atom_site_fract_z
_atom_type_partial_charge
C1    C     C_R   0.183388 0.274891 0.232365 0.609975
C2    C     C_R   0.454930 0.451360 0.778299 0.096533
C3    C     C_R   0.570694 0.199587 0.498772 0.011243
C4    C     C_R   0.200465 0.572236 0.500171 -0.119832
C5    C     C_R   0.475262 0.721507 0.407981 -0.152601
C6    C     C_R   0.812843 0.571644 0.595075 -0.122134
C7    C     C_R   0.494626 0.403099 0.196446 -0.201130
C8    C     C_R   0.707539 0.798851 0.805398 -0.144770
C9    C     C_R   0.799404 0.708412 0.806499 -0.149953
C10   C     C_R   0.404749 0.495755 0.194932 -0.076845
C11   C     C_R   0.564591 0.815774 0.592384 -0.128650
C12   C     C_R   0.527596 0.433691 0.747790 -0.138283
C13   C     C_R   0.725857 0.474123 0.411512 -0.101421
C14   C     C_R   0.549326 0.825836 0.499703 0.077459
C15   C     C_R   0.829024 0.553555 0.507258 0.035582
C16   C     C_R   0.434097 0.433034 0.131749 0.097568
C17   C     C_R   0.800351 0.800668 0.871023 0.097403
C18   C     C_R   0.133674 0.616582 0.218011 -0.207319
C19   C     C_R   0.129686 0.643586 0.314850 -0.132513
C20   C     C_R   0.032974 0.581949 0.311204 0.140375
C21   C     C_R   0.937750 0.499344 0.207625 -0.263342
C22   C     C_R   0.941737 0.473700 0.110968 -0.103200
C23   C     C_R   0.511722 0.205158 0.408686 0.448435
C24   C     C_R   0.040249 0.529578 0.115680 0.625657
C25   C     C_R   0.941113 0.590459 0.421973 -0.240205
C26   C     C_R   0.937182 0.598878 0.516514 0.073382
C27   C     C_R   0.036105 0.638312 0.613920 0.016444
C28   C     C_R   0.128396 0.649479 0.607981 -0.209431
C29   C     C_R   0.122580 0.611319 0.506384 0.069934
C30   C     C_R   0.033817 0.596345 0.414882 0.024147
C31   C     C_R   0.095244 0.754753 0.810477 -0.183800
C32   C     C_R   0.107381 0.765495 0.911017 -0.105730
C33   C     C_R   0.070951 0.671871 0.920920 -0.086766
C34   C     C_R   0.296228 0.602028 0.590894 -0.218123
C35   C     C_R   0.023598 0.567477 0.830667 -0.144892
C36   C     C_R   0.012614 0.556471 0.730544 -0.159225
C37   C     C_R   0.046116 0.649909 0.719278 0.107138
C38   C     C_R   0.468678 0.360642 0.889783 0.083817
C39   C     C_R   0.414506 0.404594 0.836946 0.050251
C40   C     C_R   0.332556 0.417205 0.856013 -0.394113
C41   C     C_R   0.325113 0.411933 0.945941 0.539740
C42   C     C_R   0.402432 0.395421 0.016078 -0.062670
C43   C     C_R   0.461883 0.355017 0.977307 -0.061667
C44   C     C_3   0.580406 0.382904 0.036187 0.388092
C45   C     C_R   0.596769 0.290704 0.590835 -0.247185
C46   C     C_3   0.587398 0.389638 0.940150 -0.621394
C47   C     C_R   0.549344 0.926052 0.396579 0.113241
C48   C     C_R   0.594664 0.927114 0.496330 0.044824
C49   C     C_R   0.669113 0.029996 0.594119 -0.196741
C50   C     C_R   0.674857 0.125914 0.593886 -0.207114
C51   C     C_R   0.606419 0.118465 0.495753 0.050298
C52   C     C_R   0.555606 0.020484 0.396143 0.205528
C53   C     C_3   0.441227 0.957659 0.297669 -0.332901
C54   C     C_3   0.434043 0.855363 0.299221 -0.588672
C55   C     C_R   0.965676 0.062948 0.138493 0.159183
C56   C     C_R   0.197386 0.501032 0.409532 0.525387
C57   C     C_R   0.069195 0.069717 0.170489 -0.077626
C58   C     C_R   0.066187 0.966942 0.141804 -0.015760
C59   C     C_R   0.971431 0.871846 0.045830 -0.220620
C60   C     C_R   0.878256 0.878068 0.989000 -0.011157
C61   C     C_R   0.872584 0.968713 0.048590 0.175319
C62   C     C_3   0.807819 0.024726 0.028503 -0.562116
C63   C     C_3   0.908518 0.129260 0.131522 -0.442223
C64   C     C_R   0.437226 0.527727 0.751707 -0.135221
C65   C     C_R   0.276359 0.184477 0.246501 -0.248053
C66   C     C_R   0.171519 0.171848 0.214094 -0.126912
H1    H     H_    0.869384 0.634403 0.679761 0.130826
H2    H     H_    0.514042 0.339093 0.168892 0.164038
H3    H     H_    0.671490 0.846169 0.832576 0.102014
H4    H     H_    0.849998 0.674903 0.835261 0.107455
H5    H     H_    0.346004 0.521601 0.167102 0.162353
H6    H     H_    0.617684 0.880238 0.677961 0.096345
H7    H     H_    0.706816 0.440648 0.326927 0.119468
H8    H     H_    0.210180 0.660777 0.222811 0.108324
H9    H     H_    0.203674 0.708552 0.393134 0.119494
H10   H     H_    0.556067 0.376643 0.752217 0.119681
H11   H     H_    0.862075 0.449610 0.201621 0.163334
H12   H     H_    0.869025 0.407100 0.032514 0.135312
H13   H     H_    0.869397 0.572879 0.351578 0.126296
H14   H     H_    0.199228 0.671806 0.682053 0.130195
H15   H     H_    0.123478 0.827620 0.803378 0.126626
H16   H     H_    0.144777 0.846352 0.981062 0.150732
H17   H     H_    0.079476 0.680269 0.998474 0.171352
H18   H     H_    0.995196 0.494789 0.837715 0.173581
H19   H     H_    0.976455 0.475342 0.661274 0.126572
H20   H     H_    0.282394 0.441695 0.808919 0.140368
H21   H     H_    0.635018 0.462835 0.115362 0.086772
H22   H     H_    0.644231 0.474714 0.963824 0.180686
H23   H     H_    0.599300 0.324535 0.891240 0.204953
H24   H     H_    0.711929 0.035483 0.672502 0.134487
H25   H     H_    0.721722 0.201872 0.672200 0.140727
H26   H     H_    0.382630 0.978723 0.316373 0.198362
H27   H     H_    0.440274 0.957046 0.222845 0.221711
H28   H     H_    0.372549 0.820154 0.320928 0.213926
H29   H     H_    0.336262 0.667963 0.674624 0.125392
H30   H     H_    0.427948 0.796261 0.225241 0.202898
H31   H     H_    0.972632 0.795784 0.014445 0.162434
H32   H     H_    0.791745 0.030163 0.952635 0.199057
H33   H     H_    0.735215 0.994429 0.038221 0.207447
H34   H     H_    0.936579 0.193806 0.111321 0.249674
H35   H     H_    0.894331 0.155925 0.201637 0.192848
H36   H     H_    0.656783 0.322257 0.675571 0.125810
H37   H     H_    0.384512 0.559943 0.763361 0.106280
H38   H     H_    0.299766 0.122351 0.237459 0.141984
H39   H     H_    0.448450 0.697235 0.322923 0.110203
N1    N     N_R   0.291070 0.347930 0.293870 -0.072817
N2    N     N_R   0.708930 0.502750 0.556810 -0.041205
N3    N     N_R   0.502760 0.445970 0.293860 -0.047588
N4    N     N_R   0.652110 0.708890 0.706130 -0.038971
N5    N     N_R   0.708930 0.652070 0.706130 -0.041754
N6    N     N_R   0.445950 0.502780 0.293850 -0.054758
N7    N     N_R   0.502760 0.708900 0.556790 -0.043273
N8    N     N_R   0.652110 0.445950 0.443190 -0.041161
N9    N     N_R   0.554050 0.497220 0.706150 -0.039891
N10   N     N_R   0.497240 0.291100 0.443210 -0.095360
N11   N     N_R   0.347890 0.554050 0.556810 -0.069035
N12   N     N_R   0.554050 0.347900 0.556830 -0.057583
N13   N     N_R   0.291070 0.497250 0.443190 -0.085562
N14   N     N_R   0.497240 0.554030 0.706140 -0.039971
N15   N     N_R   0.347890 0.291110 0.293870 -0.073988
N16   N     N_R   0.445950 0.652100 0.443170 -0.047877
Ni1   Ni    Ni4+2 0.369690 0.500010 0.369700 0.269981
Ni2   Ni    Ni4+2 0.630310 0.499990 0.630300 0.208439
Ni3   Ni    Ni4+2 0.500000 0.369720 0.369720 0.214037
Ni4   Ni    Ni4+2 0.500000 0.630280 0.630280 0.197363
O1    O     O_3   0.115662 0.290125 0.156644 -0.713256
H40   H     H_    0.075692 0.222281 0.083647 0.305971
O2    O     O_3   0.043556 0.495388 0.019918 -0.790763
H41   H     H_    0.120053 0.539230 0.038050 0.314916
O3    O     O_3   0.509641 0.161665 0.310692 -0.790058
H42   H     H_    0.482272 0.195736 0.268951 0.315973
O4    O     O_3   0.249559 0.430358 0.970170 -0.772431
H43   H     H_    0.202933 0.440760 0.912999 0.318649
O5    O     O_3   0.592467 0.296009 0.046091 -0.759368
H44   H     H_    0.534616 0.225609 0.976097 0.330321
C67   C     C_2   0.154283 0.955787 0.213935 0.469357
H45   H     H_    0.214747 0.022291 0.298270 0.012013
O6    O     O_2   0.158001 0.870860 0.181823 -0.628347
O7    O     O_3   0.109924 0.433485 0.303591 -0.722437
H46   H     H_    0.042578 0.409991 0.308663 0.305769

loop_
_geom_bond_atom_site_label_1
_geom_bond_atom_site_label_2
_ccdc_geom_bond_type
C64   H37   S    
O1    H40   S    
C41   C42   A    
C3    C23   A    
C35   C36   A    
N2    Ni2   S    
C49   H24   S    
C63   H35   S    
C2    C12   A    
O2    H41   S    
C46   H23   S    
C20   C30   S    
C53   C54   S    
C8    H3    S    
C29   C30   A    
C64   N14   A    
C18   C24   A    
C45   N12   A    
C28   C29   A    
C38   C39   A    
C11   C14   A    
C34   N11   A    
C5    N16   A    
C9    N5    A    
C18   C19   A    
N13   Ni1   S    
C40   H20   S    
N2    N8    A    
C7    H2    S    
C62   H32   S    
C2    C39   S    
C19   C20   A    
C44   C46   S    
O4    H43   S    
N10   N12   A    
C55   C63   S    
C6    N2    A    
C44   H21   S    
C57   C66   S    
C12   N9    A    
C4    C29   S    
C1    N1    A    
C5    H39   S    
C10   H5    S    
C6    C15   A    
C59   C60   A    
C18   H8    S    
C21   C22   A    
C4    C56   A    
N6    Ni1   S    
C34   H29   S    
N3    Ni3   S    
C2    C64   A    
C1    C66   A    
C46   H22   S    
C44   O5    S    
C4    C34   A    
C38   C46   S    
C53   H27   S    
C51   C52   A    
C1    O1    S    
C22   H12   S    
C67   O6    D    
C39   C40   A    
C56   O7    S    
C3    C51   S    
C11   H6    S    
C15   C26   S    
C14   C48   S    
C63   H34   S    
C58   C67   S    
C25   C26   A    
C3    C45   A    
C31   C37   A    
C23   O3    S    
C60   C61   A    
C43   C44   S    
C62   C63   S    
N5    Ni2   S    
C47   C48   A    
O7    H46   S    
N1    Ni1   S    
C53   H26   S    
C50   C51   A    
C5    C14   A    
C10   N6    A    
C9    H4    S    
C33   H17   S    
N16   Ni1   S    
C47   C52   A    
C47   C54   S    
N9    Ni2   S    
N14   Ni4   S    
N4    Ni4   S    
C40   C41   A    
C13   H7    S    
C49   C50   A    
N11   Ni4   S    
C13   C15   A    
C12   H10   S    
C26   C27   A    
C59   H31   S    
C22   C24   A    
C42   C43   A    
C16   C42   S    
C52   C53   S    
C9    C17   A    
C25   C30   A    
C7    C16   A    
N10   Ni3   S    
N1    N15   A    
C11   N7    A    
C25   H13   S    
C56   N13   A    
C31   C32   A    
N9    N14   A    
C67   H45   S    
C41   O4    S    
C35   H18   S    
O5    H44   S    
C36   H19   S    
C32   H16   S    
C8    C17   A    
C31   H15   S    
N3    N6    A    
C32   C33   A    
C55   C57   A    
O3    H42   S    
C58   C59   A    
C38   C43   A    
C6    H1    S    
N4    N5    A    
C57   C58   A    
N8    Ni3   S    
C27   C37   S    
C48   C49   A    
C55   C61   A    
C19   H9    S    
C33   C35   A    
C65   N15   A    
N11   N13   A    
N12   Ni2   S    
C61   C62   S    
C28   H14   S    
C54   H28   S    
C45   H36   S    
C17   C60   S    
C23   N10   A    
C62   H33   S    
C50   H25   S    
N7    N16   A    
C20   C21   A    
C36   C37   A    
C65   C66   A    
C21   H11   S    
C27   C28   A    
C24   O2    S    
C7    N3    A    
C10   C16   A    
C65   H38   S    
N7    Ni4   S    
C8    N4    A    
C54   H30   S    
C13   N8    A    
N15   Ni3   S    
