data_mof_unit_63816.cif
_audit_creation_date              2012-12-11T17:15:13-0500
_audit_creation_method            fapswitch 2.2
_symmetry_space_group_name_H-M    P1
_symmetry_Int_Tables_number       1
_space_group_crystal_system       triclinic
_cell_length_a                    19.014393
_cell_length_b                    19.735162
_cell_length_c                    19.993101
_cell_angle_alpha                 111.548933
_cell_angle_beta                  107.408022
_cell_angle_gamma                 108.602927
_cell_volume                      5829.33401427

loop_
_atom_site_label
_atom_site_type_symbol
_atom_type_description
_atom_site_fract_x
_atom_site_fract_y
_atom_site_fract_z
_atom_type_partial_charge
C1    C     C_R   0.962935 0.705933 0.038754 0.758653
C2    C     C_R   0.165143 0.697514 0.235405 -0.049048
C3    C     C_R   0.931211 0.431326 0.158756 0.728954
C4    C     C_R   0.843668 0.270604 0.774282 0.861815
C5    C     C_R   0.238817 0.568509 0.012965 0.633112
C6    C     C_R   0.956191 0.500318 0.230865 -0.404556
C7    C     C_R   0.250431 0.499733 0.984156 -0.351753
C8    C     C_R   0.245087 0.724004 0.243414 0.004999
C9    C     C_R   0.960069 0.224627 0.953873 -0.443750
C10   C     C_1   0.672329 0.496130 0.014024 0.117988
C11   C     C_1   0.607638 0.496072 0.009834 0.039590
C12   C     C_R   0.769017 0.225887 0.770742 -0.195200
C13   C     C_1   0.531701 0.496674 0.003339 0.040717
C14   C     C_1   0.466932 0.497490 0.997382 0.035392
C15   C     C_1   0.391161 0.498549 0.990841 0.034435
C16   C     C_R   0.040675 0.569140 0.833843 -0.207670
C17   C     C_1   0.326748 0.499293 0.986582 0.207832
C18   C     C_R   0.536757 0.884126 0.457678 -0.229285
C19   C     C_R   0.459235 0.852279 0.456880 -0.098028
C20   C     C_R   0.453753 0.882172 0.529401 0.808825
C21   C     C_R   0.524583 0.949206 0.601432 -0.315664
C22   C     C_R   0.600271 0.985787 0.600528 0.033189
C23   C     C_R   0.991701 0.499836 0.756573 -0.162006
C24   C     C_R   0.607496 0.951080 0.529729 -0.081933
C25   C     C_1   0.384103 0.802120 0.380693 0.102916
C26   C     C_1   0.663052 0.068005 0.664949 0.043100
C27   C     C_1   0.712398 0.139602 0.714835 0.120841
C28   C     C_R   0.759981 0.428869 0.982394 -0.193549
C29   C     C_1   0.320774 0.765256 0.317496 0.025111
C30   C     C_R   0.936440 0.575757 0.548358 -0.374530
C31   C     C_R   0.906332 0.500068 0.546186 -0.309052
C32   C     C_R   0.860864 0.424534 0.471904 0.675292
C33   C     C_R   0.852333 0.424756 0.400343 0.600549
C34   C     C_R   0.749117 0.497203 0.016360 -0.182891
C35   C     C_R   0.889364 0.500516 0.403736 -0.482600
C36   C     C_R   0.927994 0.576098 0.476930 0.808719
C37   C     C_1   0.934217 0.500077 0.620562 0.239109
C38   C     C_1   0.905662 0.500452 0.338811 0.294642
C39   C     C_1   0.926602 0.500373 0.288128 0.231408
C40   C     C_R   0.969879 0.430936 0.764697 0.795307
C41   C     C_1   0.960807 0.500002 0.682738 0.083731
C42   C     C_R   0.836777 0.951467 0.914969 -0.195177
C43   C     C_R   0.876273 0.981331 0.875342 -0.218895
C44   C     C_R   0.914169 0.941266 0.837796 0.666165
C45   C     C_R   0.997158 0.568993 0.226941 0.665514
C46   C     C_R   0.921026 0.877214 0.848193 0.627749
C47   C     C_R   0.890003 0.854088 0.896096 -0.197151
C48   C     C_R   0.843793 0.887658 0.925520 -0.188521
C49   C     C_1   0.899172 0.064560 0.894443 0.159097
C50   C     C_1   0.920047 0.809995 0.928703 0.155040
C51   C     C_1   0.949655 0.776810 0.958672 0.090387
C52   C     C_R   0.827572 0.566829 0.057263 0.833067
C53   C     C_1   0.925518 0.137232 0.919089 0.231060
C54   C     C_R   0.771034 0.273066 0.842518 -0.213610
C55   C     C_R   0.036526 0.707058 0.971464 -0.196948
C56   C     C_R   0.172601 0.431046 0.947956 0.703869
C57   C     C_R   0.984940 0.736070 0.991963 -0.146932
C58   C     C_R   0.238054 0.699310 0.166454 -0.103396
C59   C     C_R   0.933399 0.271851 0.998486 0.707461
C60   C     C_R   0.003422 0.270768 0.928193 0.765681
F1    F     F_    0.921310 0.729067 0.078857 -0.629209
F2    F     F_    0.831589 0.351010 0.469870 -0.597387
F3    F     F_    0.815524 0.351410 0.329526 -0.590140
F4    F     F_    0.953161 0.970705 0.799925 -0.597261
F5    F     F_    0.965741 0.844345 0.819424 -0.631928
F6    F     F_    0.925965 0.350941 0.702851 -0.618015
F7    F     F_    0.849265 0.640637 0.120108 -0.588618
F8    F     F_    0.009368 0.646071 0.273402 -0.622802
F9    F     F_    0.152702 0.351515 0.899671 -0.590713
F10   F     F_    0.868399 0.240333 0.012368 -0.611814
F11   F     F_    0.014621 0.237111 0.862370 -0.550773
F12   F     F_    0.870171 0.353845 0.129514 -0.592613
F13   F     F_    0.292077 0.645432 0.032176 -0.679643
F14   F     F_    0.378501 0.851956 0.528827 -0.661217
F15   F     F_    0.878074 0.235579 0.731162 -0.580711
F16   F     F_    0.964773 0.649655 0.480633 -0.614102
H1    H     H_    0.289519 0.712101 0.152573 0.194795
H2    H     H_    0.713972 0.364224 0.953139 0.173878
H3    H     H_    0.729702 0.251236 0.865794 0.184571
H4    H     H_    0.069662 0.724537 0.940360 0.168075
H5    H     H_    0.148403 0.706542 0.283797 0.189796
H6    H     H_    0.665723 0.980018 0.528553 0.174047
H7    H     H_    0.541039 0.861788 0.401548 0.176302
H8    H     H_    0.518609 0.976706 0.655956 0.181529
H9    H     H_    0.971896 0.634204 0.605964 0.227159
H10   H     H_    0.820139 0.870107 0.962949 0.191375
H11   H     H_    0.808490 0.983160 0.945090 0.196064
H12   H     H_    0.073197 0.632231 0.848088 0.165960
N1    N     N_R   0.996070 0.655850 0.042990 -0.125782
N2    N     N_R   0.043260 0.542980 0.887390 -0.080942
N3    N     N_R   0.841360 0.457030 0.000110 -0.088007
N4    N     N_R   0.001470 0.457070 0.844510 -0.133414
N5    N     N_R   0.883150 0.542930 0.042990 -0.145549
N6    N     N_R   0.844430 0.344140 0.887390 -0.090816
N7    N     N_R   0.040190 0.655860 0.000110 -0.078728
N8    N     N_R   0.998530 0.542930 0.155490 -0.170099
N9    N     N_R   0.116850 0.457070 0.957010 -0.164358
N10   N     N_R   0.155570 0.655860 0.112610 -0.050298
N11   N     N_R   0.959810 0.344140 0.999890 -0.167466
N12   N     N_R   0.003930 0.344150 0.957010 -0.182350
N13   N     N_R   0.111450 0.655840 0.155490 -0.056007
N14   N     N_R   0.956740 0.457020 0.112610 -0.162947
N15   N     N_R   0.158640 0.542970 0.999890 -0.155169
N16   N     N_R   0.888550 0.344160 0.844510 -0.147292
Ni1   Ni    Ni4+2 0.997320 0.598490 0.098350 0.316445
Ni2   Ni    Ni4+2 0.002680 0.401510 0.901650 0.330574
Ni3   Ni    Ni4+2 0.098520 0.598520 0.000000 0.243572
Ni4   Ni    Ni4+2 0.901480 0.401480 0.000000 0.252858

loop_
_geom_bond_atom_site_label_1
_geom_bond_atom_site_label_2
_ccdc_geom_bond_type
N8    Ni1   S    
C5    N15   A    
C16   N2    A    
C6    C45   A    
N8    N14   A    
C59   N11   A    
C19   C20   A    
C58   N10   A    
C3    C6    A    
N16   Ni2   S    
C44   F4    S    
N11   Ni4   S    
N6    Ni4   S    
C26   C27   T    
C18   C24   A    
C8    C29   S    
C56   N9    A    
N2    Ni3   S    
C30   C31   A    
C23   C40   A    
C18   C19   A    
C24   H6    S    
C4    F15   S    
C36   F16   S    
C58   H1    S    
C8    C58   A    
C47   C48   A    
C7    C17   S    
N14   Ni4   S    
C23   C41   S    
C51   C57   S    
C4    C12   A    
C28   H2    S    
N5    Ni1   S    
C28   C34   A    
C40   F6    S    
C13   C14   T    
C25   C29   T    
C7    C56   A    
C44   C46   A    
C50   C51   T    
C47   C50   S    
N13   Ni1   S    
C12   C27   S    
C35   C38   S    
C46   F5    S    
C55   N7    A    
C5    C7    A    
C43   C49   S    
C60   F11   S    
N10   Ni3   S    
C31   C37   S    
C9    C59   A    
C35   C36   A    
N1    N7    A    
C43   C44   A    
C1    C57   A    
N3    N5    A    
N2    N4    A    
N11   N12   A    
C21   H8    S    
C33   F3    S    
C45   F8    S    
C18   H7    S    
C20   F14   S    
C52   N5    A    
C10   C34   S    
C42   C48   A    
C40   N4    A    
C30   H9    S    
N9    N15   A    
C52   F7    S    
N7    Ni3   S    
N9    Ni2   S    
C3    N14   A    
N4    Ni2   S    
C16   C23   A    
C55   C57   A    
C22   C24   A    
C9    C53   S    
C42   C43   A    
C54   H3    S    
C15   C17   T    
C46   C47   A    
C1    N1    A    
C14   C15   S    
C34   C52   A    
N3    Ni4   S    
C31   C32   A    
C2    C8    A    
C60   N12   A    
C1    F1    S    
N10   N13   A    
C5    F13   S    
N12   Ni2   S    
C2    N13   A    
C30   C36   A    
C9    C60   A    
C32   C33   A    
C3    F12   S    
C32   F2    S    
C55   H4    S    
C11   C13   S    
C38   C39   T    
C49   C53   T    
C4    N16   A    
C33   C35   A    
C28   N3    A    
C48   H10   S    
C37   C41   T    
C19   C25   S    
C54   N6    A    
C10   C11   T    
C59   F10   S    
N6    N16   A    
C20   C21   A    
C56   F9    S    
C22   C26   S    
N1    Ni1   S    
C16   H12   S    
C6    C39   S    
C2    H5    S    
N15   Ni3   S    
C42   H11   S    
C21   C22   A    
C45   N8    A    
C12   C54   A    
