data_mof_unit_21178.cif
_audit_creation_date              2012-12-10T17:24:14-0500
_audit_creation_method            fapswitch 2.2
_symmetry_space_group_name_H-M    P1
_symmetry_Int_Tables_number       1
_space_group_crystal_system       triclinic
_cell_length_a                    19.379082
_cell_length_b                    10.780671
_cell_length_c                    9.598141
_cell_angle_alpha                 90.060934
_cell_angle_beta                  89.542559
_cell_angle_gamma                 92.508239
_cell_volume                      2003.25338847

loop_
_atom_site_label
_atom_site_type_symbol
_atom_type_description
_atom_site_fract_x
_atom_site_fract_y
_atom_site_fract_z
_atom_type_partial_charge
C1    C     C_R   0.497606 0.262580 0.500013 0.788235
C2    C     C_R   0.291167 0.504220 0.502945 -0.123400
C3    C     C_R   0.929591 0.506845 0.494700 0.407771
C4    C     C_R   0.069586 0.506932 0.495257 0.437116
C5    C     C_R   0.816918 0.511532 0.622031 -0.154133
C6    C     C_R   0.745027 0.509765 0.623312 -0.191709
C7    C     C_R   0.708322 0.502718 0.497927 -0.030330
C8    C     C_R   0.744807 0.498015 0.371133 -0.192681
C9    C     C_R   0.816761 0.499431 0.369873 -0.155954
C10   C     C_R   0.853523 0.506049 0.495350 0.057715
C11   C     C_R   0.387879 0.120696 0.648801 -0.184846
C12   C     C_R   0.367428 0.501382 0.500998 0.797253
C13   C     C_R   0.336798 0.051771 0.721386 -0.145443
C14   C     C_R   0.336909 0.922780 0.721537 -0.103047
C15   C     C_R   0.388132 0.861924 0.649186 -0.149725
C16   C     C_R   0.441226 0.929841 0.576822 0.084109
C17   C     C_R   0.441093 0.061055 0.576627 0.095921
C18   C     C_R   0.492893 0.128426 0.499889 -0.097995
C19   C     C_R   0.541446 0.067278 0.420194 -0.189700
C20   C     C_R   0.541580 0.939313 0.420377 -0.199784
C21   C     C_R   0.493147 0.870557 0.500233 -0.084904
C22   C     C_R   0.592071 0.664359 0.142884 -0.146738
C23   C     C_R   0.497928 0.737131 0.500104 0.761349
C24   C     C_R   0.636999 0.744946 0.070201 -0.212350
C25   C     C_R   0.636825 0.745452 0.926660 -0.203193
C26   C     C_R   0.591760 0.665309 0.854918 -0.142303
C27   C     C_R   0.545115 0.581152 0.924628 0.207735
C28   C     C_R   0.545200 0.580887 0.074208 0.210829
C29   C     C_R   0.456935 0.423082 0.074480 -0.043547
C30   C     C_R   0.456987 0.423046 0.926588 0.006828
C31   C     C_R   0.632414 0.500770 0.499406 0.764070
C32   C     C_R   0.253021 0.528327 0.626121 0.358413
C33   C     C_R   0.181167 0.528949 0.621618 -0.180611
C34   C     C_R   0.145649 0.506580 0.496825 -0.017030
C35   C     C_R   0.183301 0.483774 0.374861 -0.144898
C36   C     C_R   0.255151 0.482593 0.377957 -0.221483
Cu1   Cu    Cu3+1 0.500000 0.499990 0.640660 0.957066
Cu2   Cu    Cu3+1 0.500000 0.500010 0.359340 0.942187
H1    H     H_    0.384180 0.220434 0.647766 0.146382
H2    H     H_    0.296400 0.098648 0.776137 0.151623
H3    H     H_    0.296584 0.869537 0.776372 0.178997
H4    H     H_    0.384677 0.761698 0.648511 0.185648
H5    H     H_    0.580735 0.893671 0.360339 0.137730
H6    H     H_    0.421618 0.360016 0.130132 0.139176
H7    H     H_    0.596494 0.671874 0.252604 0.192085
H8    H     H_    0.672189 0.807606 0.126010 0.150521
H9    H     H_    0.671901 0.808496 0.870114 0.154626
H10   H     H_    0.596004 0.673720 0.745092 0.195701
H11   H     H_    0.153095 0.547700 0.716835 0.188671
H12   H     H_    0.421706 0.359971 0.871852 0.147260
H13   H     H_    0.157328 0.466164 0.276887 0.173006
H14   H     H_    0.282487 0.463797 0.281880 0.183077
H15   H     H_    0.843698 0.516729 0.720582 0.155765
H16   H     H_    0.718300 0.514018 0.722632 0.156740
H17   H     H_    0.717844 0.492942 0.272736 0.157366
H18   H     H_    0.843475 0.495465 0.270561 0.155284
H19   H     H_    0.580502 0.119141 0.360038 0.152670
N1    N     N_R   0.034229 0.493141 0.374300 -0.231678
N2    N     N_R   0.965550 0.493170 0.374038 -0.237096
N3    N     N_R   0.964998 0.520641 0.615427 -0.237555
N4    N     N_R   0.033559 0.520748 0.615664 -0.234385
N5    N     N_R   0.500660 0.501210 0.147910 -0.202460
N6    N     N_R   0.500680 0.501290 0.852040 -0.198630
O1    O     O_R   0.499990 0.319640 0.618810 -0.582197
O2    O     O_R   0.500000 0.319660 0.381240 -0.575330
O3    O     O_R   0.400140 0.499970 0.618820 -0.533468
O4    O     O_R   0.400150 0.500000 0.381250 -0.579978
O5    O     O_R   0.500000 0.680340 0.618760 -0.596671
O6    O     O_R   0.500010 0.680360 0.381190 -0.584860
O7    O     O_R   0.599850 0.500000 0.618750 -0.599491
O8    O     O_R   0.599860 0.500030 0.381180 -0.602385
Cl1   Cl    Cl    0.290917 0.561294 0.789423 -0.666936

loop_
_geom_bond_atom_site_label_1
_geom_bond_atom_site_label_2
_ccdc_geom_bond_type
C23   O5    A    
C1    O2    A    
C24   C25   A    
Cu1   O5    S    
C16   C21   A    
C16   C17   A    
Cu1   O7    S    
C9    C10   A    
C25   H9    S    
C19   C20   A    
C36   H14   S    
Cu2   O2    S    
C26   H10   S    
Cu1   O1    S    
C2    C12   S    
C32   C33   A    
C22   H7    S    
C31   O8    A    
C17   C18   A    
C30   H12   S    
Cu2   O6    S    
C24   H8    S    
C7    C8    A    
C32   Cl1   S    
C3    C10   S    
C22   C28   A    
C13   C14   A    
C19   H19   S    
C11   H1    S    
C11   C13   A    
C26   C27   A    
C29   C30   A    
C27   N6    A    
C6    H16   S    
C14   H3    S    
C4    N4    A    
C8    H17   S    
C5    H15   S    
Cu1   N6    S    
Cu1   Cu2   S    
C33   C34   A    
C6    C7    A    
C4    C34   S    
C21   C23   S    
C29   H6    S    
C35   H13   S    
C5    C6    A    
C12   O4    A    
C22   C24   A    
N1    N2    A    
C7    C31   S    
Cu1   O3    S    
C33   H11   S    
C15   C16   A    
C1    O1    A    
C5    C10   A    
C20   H5    S    
C18   C19   A    
Cu2   O4    S    
C29   N5    A    
C2    C32   A    
C34   C35   A    
C2    C36   A    
C27   C28   A    
C9    H18   S    
C1    C18   S    
Cu2   O8    S    
C8    C9    A    
C13   H2    S    
C4    N1    A    
C25   C26   A    
C30   N6    A    
C3    N3    A    
C12   O3    A    
C23   O6    A    
C20   C21   A    
C31   O7    A    
C11   C17   A    
C14   C15   A    
C15   H4    S    
C3    N2    A    
N3    N4    A    
Cu2   N5    S    
C35   C36   A    
C28   N5    A    
