data_mof_unit_65107.cif
_audit_creation_date              2012-12-11T18:04:35-0500
_audit_creation_method            fapswitch 2.2
_symmetry_space_group_name_H-M    P1
_symmetry_Int_Tables_number       1
_space_group_crystal_system       triclinic
_cell_length_a                    8.224097
_cell_length_b                    12.712273
_cell_length_c                    22.896286
_cell_angle_alpha                 96.923901
_cell_angle_beta                  89.512318
_cell_angle_gamma                 98.82791
_cell_volume                      2348.00827411

loop_
_atom_site_label
_atom_site_type_symbol
_atom_type_description
_atom_site_fract_x
_atom_site_fract_y
_atom_site_fract_z
_atom_type_partial_charge
Ba1   Ba    Ba6+2 0.856210 0.551220 0.472190 1.651803
Ba2   Ba    Ba6+2 0.333620 0.448870 0.527810 1.668592
C1    C     C_3   0.638158 0.916658 0.299783 -0.255323
C2    C     C_3   0.669899 0.824911 0.333022 0.371948
C3    C     C_3   0.462261 0.283618 0.349892 0.305646
C4    C     C_3   0.430614 0.247608 0.284619 -0.408696
C5    C     C_3   0.011006 0.195436 0.688945 0.334757
C6    C     C_3   0.030755 0.159099 0.749048 -0.334748
C7    C     C_3   0.492223 0.167466 0.678263 0.325312
C8    C     C_3   0.529039 0.100366 0.725820 -0.388785
C9    C     C_R   0.347496 0.520683 0.331795 -0.285336
C10   C     C_R   0.189235 0.532096 0.926995 -0.081746
C11   C     C_R   0.145824 0.519457 0.866425 0.663032
C12   C     C_3   0.221621 0.826071 0.311559 0.304281
C13   C     C_R   0.865161 0.458331 0.889829 0.609193
C14   C     C_R   0.911648 0.452188 0.948521 -0.003786
C15   C     C_R   0.073133 0.493751 0.967686 -0.053833
C16   C     C_R   0.347280 0.579731 0.947658 -0.037251
C17   C     C_R   0.387647 0.592975 0.007871 0.289656
C18   C     C_R   0.271985 0.551440 0.049118 -0.058901
C19   C     C_R   0.118533 0.496509 0.027777 -0.082956
C20   C     C_R   0.800156 0.405704 0.988627 -0.033947
C21   C     C_R   0.850642 0.397711 0.045935 -0.041332
C22   C     C_R   0.009856 0.443944 0.066330 0.002494
C23   C     C_3   0.165842 0.791609 0.247292 -0.199369
C24   C     C_R   0.064143 0.436034 0.123881 0.591660
C25   C     C_R   0.301149 0.565193 0.110976 0.616589
C26   C     C_2   0.820228 0.396790 0.760763 -0.137007
C27   C     C_3   0.775313 0.382499 0.696053 -0.097220
C28   C     C_1   0.997152 0.531654 0.685978 0.001406
C29   C     C_2   0.018934 0.554964 0.744203 0.236826
C30   C     C_2   0.937425 0.477355 0.784902 0.199088
C31   C     C_R   0.420875 0.537778 0.230481 -0.120228
C32   C     C_R   0.462604 0.553125 0.290533 -0.028078
C33   C     C_R   0.189843 0.473457 0.314436 0.030982
C34   C     C_3   0.226183 0.775554 0.593071 0.304643
C35   C     C_R   0.140300 0.470161 0.255262 -0.111736
C36   C     C_R   0.255022 0.502528 0.210918 0.176878
C37   C     C_2   0.870984 0.464140 0.662084 -0.287475
C38   C     C_R   0.754577 0.180185 0.526383 -0.268444
C39   C     C_R   0.432663 0.808833 0.472425 -0.267852
C40   C     C_R   0.407239 0.987844 0.453230 -0.117218
C41   C     C_R   0.344028 0.879474 0.448806 -0.033483
C42   C     C_R   0.576873 0.846669 0.505568 0.064257
C43   C     C_R   0.639223 0.958319 0.512629 -0.057393
C44   C     C_R   0.553775 0.029066 0.485239 -0.052218
C45   C     C_3   0.257580 0.896764 0.607445 -0.359008
C46   C     C_R   0.614722 0.139972 0.492120 0.052892
C47   C     C_R   0.845468 0.111558 0.549682 -0.024269
C48   C     C_R   0.785555 0.001723 0.545031 -0.092501
C49   C     C_3   0.977879 0.227703 0.410544 0.287731
C50   C     C_3   0.964168 0.106545 0.401632 -0.386335
C51   C     C_3   0.708069 0.692329 0.647683 0.278445
C52   C     C_3   0.688636 0.715893 0.713843 -0.304907
H1    H     H_    0.765883 0.854227 0.367449 0.086342
H2    H     H_    0.356839 0.919937 0.641117 0.111748
H3    H     H_    0.295196 0.935390 0.567703 0.078304
H4    H     H_    0.143703 0.925730 0.624687 0.151920
H5    H     H_    0.860529 0.251330 0.426519 -0.002356
H6    H     H_    0.074372 0.257827 0.444297 0.098089
H7    H     H_    0.840189 0.070969 0.384367 0.085128
H8    H     H_    0.980985 0.076278 0.443995 0.115373
H9    H     H_    0.061539 0.081606 0.371495 0.129425
H10   H     H_    0.835994 0.680000 0.637992 0.009559
H11   H     H_    0.621812 0.618228 0.632445 0.075899
H12   H     H_    0.590982 0.978435 0.331186 0.073025
H13   H     H_    0.774994 0.788757 0.731110 0.145939
H14   H     H_    0.714956 0.647116 0.735810 0.105205
H15   H     H_    0.560538 0.729180 0.724102 0.161330
H16   H     H_    0.553144 0.796762 0.355054 -0.097698
H17   H     H_    0.543853 0.882896 0.265811 0.103245
H18   H     H_    0.345106 0.301932 0.369896 0.026550
H19   H     H_    0.556329 0.356988 0.354984 0.044687
H20   H     H_    0.346479 0.169867 0.278443 0.121410
H21   H     H_    0.373037 0.307906 0.264354 0.069499
H22   H     H_    0.548202 0.238567 0.261929 0.117513
H23   H     H_    0.251459 0.740276 0.225137 0.103573
H24   H     H_    0.061560 0.282174 0.691366 0.055993
H25   H     H_    0.877694 0.181573 0.677861 -0.060822
H26   H     H_    0.162514 0.173276 0.762293 0.155445
H27   H     H_    0.961510 0.204635 0.782427 0.057485
H28   H     H_    0.982491 0.072272 0.747615 0.128490
H29   H     H_    0.604292 0.182099 0.651021 -0.068864
H30   H     H_    0.396207 0.119745 0.648309 0.099244
H31   H     H_    0.621969 0.147864 0.757319 0.113175
H32   H     H_    0.578746 0.028181 0.705569 0.089300
H33   H     H_    0.278943 0.758884 0.325300 -0.036410
H34   H     H_    0.414892 0.074573 0.749888 0.144437
H35   H     H_    0.762958 0.357956 0.074828 0.110794
H36   H     H_    0.675084 0.372090 0.975226 0.115463
H37   H     H_    0.519827 0.554573 0.200145 0.148489
H38   H     H_    0.439674 0.609118 0.917080 0.173638
H39   H     H_    0.763935 0.334660 0.786221 0.115017
H40   H     H_    0.012035 0.442883 0.245754 0.160984
H41   H     H_    0.383086 0.528187 0.377683 0.075658
H42   H     H_    0.312906 0.899966 0.315079 -0.007094
H43   H     H_    0.829106 0.467307 0.617584 0.076689
H44   H     H_    0.336075 0.039127 0.433492 0.098191
H45   H     H_    0.857549 0.951942 0.565475 0.108025
H46   H     H_    0.800960 0.265211 0.530738 0.056889
H47   H     H_    0.382933 0.724394 0.468502 0.067628
H48   H     H_    0.043336 0.740398 0.246876 0.156921
H49   H     H_    0.341615 0.746733 0.578856 -0.005745
H50   H     H_    0.132932 0.754142 0.557234 0.068083
N1    N     N_R   0.982998 0.486424 0.847874 -0.420648
N2    N     N_R   0.206350 0.500614 0.148141 -0.423876
O1    O     O_2   0.890290 0.440320 0.360790 -0.449806
O2    O     O_3   0.674253 0.780520 0.621342 -0.640478
O3    O     O_3   0.087576 0.847189 0.347170 -0.594506
O4    O     O_2   0.299410 0.559720 0.639240 -0.443348
O5    O     O_3   0.058870 0.558650 0.568170 -0.510828
O6    O     O_3   0.517310 0.362160 0.604450 -0.470935
O7    O     O_3   0.171108 0.731811 0.644016 -0.586316
O8    O     O_3   0.614910 0.369290 0.471050 -0.477659
O9    O     O_3   0.099190 0.306290 0.575790 -0.482704
O10   O     O_2   0.182053 0.115621 0.538162 -0.484523
O11   O     O_3   0.097707 0.136088 0.647467 -0.598904
O12   O     O_3   0.130840 0.441440 0.431840 -0.503705
O13   O     O_3   0.574800 0.630800 0.528960 -0.493488
O14   O     O_2   0.344900 0.234690 0.472540 -0.472457
O15   O     O_3   0.518347 0.201034 0.375669 -0.656622
O16   O     O_2   0.475312 0.471523 0.708723 -0.432964
O17   O     O_3   0.432895 0.260609 0.704496 -0.567444
O18   O     O_2   0.254031 0.536208 0.830343 -0.530882
O19   O     O_2   0.719158 0.439859 0.876522 -0.573819
O20   O     O_2   0.985632 0.369256 0.151246 -0.632909
O21   O     O_2   0.405437 0.638524 0.131656 -0.566990
O22   O     O_3   0.672400 0.637930 0.395560 -0.481625
O23   O     O_2   0.802693 0.557081 0.294561 -0.476465
O24   O     O_3   0.015887 0.268145 0.357044 -0.642190
O25   O     O_3   0.721912 0.744505 0.292894 -0.583966
O26   O     O_2   0.844800 0.765340 0.527490 -0.473655
O27   O     O_3   0.090520 0.693800 0.424220 -0.462692
O28   O     O_2   0.004222 0.881712 0.457885 -0.490825
P1    P     P_3+3 0.057140 0.408270 0.369700 0.980136
P2    P     P_3+3 0.667360 0.749400 0.544670 0.971218
P3    P     P_3+3 0.133789 0.830246 0.419776 0.954023
P4    P     P_3+3 0.132580 0.591820 0.630310 1.040144
P5    P     P_3+3 0.054729 0.167044 0.577471 0.943099
P6    P     P_3+3 0.665280 0.620114 0.318273 0.993517
P7    P     P_3+3 0.527238 0.234910 0.452109 0.932149
P8    P     P_3+3 0.550472 0.373344 0.680275 1.018366
C53   C     C_3   0.790496 0.966149 0.268416 -0.175374
C54   C     C_3   0.771515 0.076965 0.251907 -0.236667
C55   C     C_3   0.925627 0.128130 0.222526 -0.391171
H51   H     H_    0.034644 0.135421 0.251846 0.141771
H52   H     H_    0.946446 0.079298 0.180346 0.137650
H53   H     H_    0.909390 0.209573 0.213381 0.185136
H54   H     H_    0.665736 0.069670 0.221136 0.127880
H55   H     H_    0.748350 0.130627 0.292096 0.170778
H56   H     H_    0.898668 0.973689 0.297729 0.136752
H57   H     H_    0.810057 0.912015 0.227938 0.153706
Br1   Br    Br    0.609702 0.658362 0.028631 -0.534094
Br2   Br    Br    0.088125 0.701935 0.776460 -0.545985
C56   C     C_3   0.154865 0.885598 0.211608 -0.214438
C57   C     C_3   0.321282 0.934477 0.188319 -0.222775
C58   C     C_3   0.300548 0.008394 0.142031 -0.395152
H58   H     H_    0.225916 0.963655 0.104208 0.160358
H59   H     H_    0.240188 0.076622 0.161429 0.130855
H60   H     H_    0.423356 0.041013 0.125767 0.140332
H61   H     H_    0.393273 0.983534 0.225321 0.110581
H62   H     H_    0.390174 0.870438 0.168639 0.184467
H63   H     H_    0.069167 0.855501 0.173887 0.141597
H64   H     H_    0.104812 0.950105 0.239134 0.120830

loop_
_geom_bond_atom_site_label_1
_geom_bond_atom_site_label_2
_ccdc_geom_bond_type
C42   P2    S    
C12   O3    S    
C8    H31   S    
O27   P3    S    
C58   H58   S    
C28   P4    S    
C23   C56   S    
C5    O11   S    
C17   C18   A    
Ba1   O22   S    
Ba1   O26   S    
C24   N2    Am   
O28   P3    D    
C2    H16   S    
C55   H51   S    
Ba2   O12   S    
C5    C6    S    
C51   C52   S    
C52   H15   S    
C8    H34   S    
C48   H45   S    
C35   C36   A    
C34   H49   S    
C23   H23   S    
C57   C58   S    
C33   C35   A    
C22   C24   A    
C12   H33   S    
O2    P2    S    
C3    H18   S    
C50   H7    S    
C40   H44   S    
Ba1   O13   S    
C28   C29   D    
C51   H10   S    
C23   H48   S    
C37   H43   S    
C52   H14   S    
C38   C47   A    
C3    O15   S    
C34   C45   S    
O3    P3    S    
Ba1   Ba2   S    
C24   O20   D    
O6    P8    S    
O1    P1    D    
O25   P6    S    
C25   O21   D    
Ba2   O4    S    
O24   P1    S    
C14   C15   A    
C10   C15   A    
C28   C37   D    
C54   H55   S    
C21   C22   A    
C21   H35   S    
Ba1   P2    S    
C51   H11   S    
C7    C8    S    
O10   P5    D    
C53   H56   S    
C57   H62   S    
C58   H59   S    
C39   C41   A    
O11   P5    S    
Ba1   O27   S    
C34   O7    S    
C12   H42   S    
C55   H52   S    
C49   O24   S    
C4    H20   S    
C2    O25   S    
C44   C46   A    
Ba2   O5    S    
C6    H27   S    
Ba2   P4    S    
O8    P7    S    
O15   P7    S    
O4    P4    D    
C1    C53   S    
C11   N1    Am   
C33   P1    S    
C11   O18   D    
Ba2   O14   S    
C16   C17   A    
C52   H13   S    
C25   N2    Am   
C56   H63   S    
C43   C44   A    
C15   C19   A    
C49   C50   S    
C26   H39   S    
C36   N2    S    
C1    H17   S    
C54   H54   S    
C45   H3    S    
Ba2   O9    S    
C29   C30   S    
C26   C30   D    
O26   P2    D    
Ba2   O6    S    
C27   C37   S    
C31   C32   A    
C20   H36   S    
C10   C11   A    
Ba1   O1    S    
C5    H24   S    
C35   H40   S    
C53   H57   S    
O9    P5    S    
C57   H61   S    
C58   H60   S    
C30   N1    S    
C47   P5    S    
C2    H1    S    
C40   C44   A    
C17   Br1   S    
C39   C42   A    
C6    H28   S    
C1    H12   S    
C49   H5    S    
Ba1   O8    S    
O16   P8    D    
C1    C2    S    
C26   C27   S    
C55   H53   S    
C42   C43   A    
C5    H25   S    
C9    H41   S    
C38   C46   A    
C8    H32   S    
C14   C20   A    
C20   C21   A    
C9    C32   A    
O14   P7    D    
C31   C36   A    
C54   C55   S    
C50   H9    S    
C38   H46   S    
Ba2   O13   S    
C7    H29   S    
C4    H22   S    
C18   C25   A    
C56   H64   S    
O13   P2    S    
C34   H50   S    
C16   H38   S    
C13   N1    Am   
C9    C33   A    
C53   C54   S    
O22   P6    S    
C50   H8    S    
Ba1   O5    S    
C45   H4    S    
Ba2   O8    S    
C51   O2    S    
C3    C4    S    
O23   P6    D    
C29   Br2   S    
C43   C48   A    
C27   P8    S    
O17   P8    S    
C32   P6    S    
C7    O17   S    
C39   H47   S    
C46   P7    S    
C41   P3    S    
Ba1   O12   S    
C12   C23   S    
C3    H19   S    
C7    H30   S    
C18   C19   A    
C47   C48   A    
C40   C41   A    
C19   C22   A    
C10   C16   A    
C56   C57   S    
C6    H26   S    
O7    P4    S    
C49   H6    S    
Ba1   P1    S    
C13   O19   D    
O12   P1    S    
C13   C14   A    
O5    P4    S    
C45   H2    S    
C31   H37   S    
C4    H21   S    
