data_mof_unit_21943.cif
_audit_creation_date              2012-12-10T20:51:45-0500
_audit_creation_method            fapswitch 2.2
_symmetry_space_group_name_H-M    P1
_symmetry_Int_Tables_number       1
_space_group_crystal_system       triclinic
_cell_length_a                    8.088818
_cell_length_b                    8.913373
_cell_length_c                    16.986858
_cell_angle_alpha                 89.375304
_cell_angle_beta                  95.432003
_cell_angle_gamma                 89.970551
_cell_volume                      1219.15566372

loop_
_atom_site_label
_atom_site_type_symbol
_atom_type_description
_atom_site_fract_x
_atom_site_fract_y
_atom_site_fract_z
_atom_type_partial_charge
C1    C     C_R   0.500012 0.217950 0.500060 0.935416
C2    C     C_R   0.584119 0.421308 0.144777 0.405786
C3    C     C_R   0.564083 0.468503 0.903863 0.009810
C4    C     C_R   0.474168 0.519588 0.098663 0.029985
C5    C     C_R   0.709799 0.487788 0.866102 0.351167
C6    C     C_R   0.359934 0.607697 0.135266 0.381744
C7    C     C_R   0.698860 0.499262 0.783487 0.364066
C8    C     C_R   0.350796 0.595966 0.217054 0.326431
C9    C     C_1   0.500030 0.065193 0.500071 -0.195082
C10   C     C_1   0.499979 0.934756 0.500056 -0.195407
C11   C     C_3   0.675669 0.195809 0.103783 0.108716
C12   C     C_R   0.500000 0.782030 0.500014 0.945585
C13   C     C_3   0.820971 0.119038 0.069151 -0.298373
C14   C     C_3   0.780935 0.956666 0.047647 -1.043282
C15   C     C_3   0.252745 0.277790 0.919168 0.146052
C16   C     C_3   0.143499 0.190232 0.857035 -0.318639
C17   C     C_3   0.117060 0.029235 0.884651 -1.016580
C18   C     C_3   0.893485 0.616831 0.951157 -0.227416
C19   C     C_3   0.334250 0.844224 0.084570 -0.319748
C20   C     C_3   0.915340 0.649888 0.752519 0.108674
C21   C     C_3   0.995059 0.688465 0.676731 -0.307935
C22   C     C_3   0.101140 0.829837 0.685609 -0.967169
C23   C     C_R   0.523234 0.497994 0.653778 0.961403
C24   C     C_3   0.087241 0.657802 0.244915 0.159902
C25   C     C_3   0.983832 0.798984 0.254252 -0.333732
C26   C     C_3   0.799480 0.763041 0.252904 -0.958699
C27   C     C_R   0.477442 0.502863 0.346770 0.986028
C28   C     C_R   0.541219 0.490995 0.739876 -0.286978
C29   C     C_R   0.463528 0.501780 0.261655 -0.257207
C30   C     C_R   0.397860 0.470454 0.778635 -0.395693
C31   C     C_R   0.577411 0.414936 0.225723 -0.420865
C32   C     C_R   0.408207 0.454147 0.859730 0.441725
H1    H     H_    0.666922 0.345710 0.261180 0.201850
H2    H     H_    0.193622 0.274962 0.975619 0.166370
H3    H     H_    0.375643 0.220820 0.931406 0.097311
H4    H     H_    0.020876 0.246565 0.845697 0.280537
H5    H     H_    0.203101 0.188287 0.800749 0.215306
H6    H     H_    0.237127 0.967745 0.891956 0.271279
H7    H     H_    0.031272 0.970393 0.840479 0.271552
H8    H     H_    0.060987 0.028637 0.941714 0.269808
H9    H     H_    0.844297 0.607952 0.009826 0.209423
H10   H     H_    0.841445 0.718092 0.918518 0.106016
H11   H     H_    0.029516 0.633782 0.961921 0.244044
H12   H     H_    0.276851 0.461254 0.745981 0.220472
H13   H     H_    0.435389 0.836120 0.044944 0.175097
H14   H     H_    0.383347 0.888051 0.143375 0.177595
H15   H     H_    0.242479 0.926997 0.057926 0.177125
H16   H     H_    0.013971 0.647060 0.802678 0.203403
H17   H     H_    0.824607 0.740627 0.762730 0.092765
H18   H     H_    0.074248 0.593633 0.661200 0.242410
H19   H     H_    0.896217 0.705994 0.627518 0.240447
H20   H     H_    0.022880 0.927961 0.697395 0.268085
H21   H     H_    0.159487 0.851628 0.629995 0.281682
H22   H     H_    0.201140 0.815559 0.734652 0.269398
H23   H     H_    0.561292 0.181938 0.062463 0.128065
H24   H     H_    0.061908 0.574243 0.291366 0.155563
H25   H     H_    0.048105 0.608801 0.185896 0.163379
H26   H     H_    0.025563 0.853575 0.311237 0.234978
H27   H     H_    0.003176 0.879077 0.205365 0.235964
H28   H     H_    0.755809 0.702723 0.198028 0.267099
H29   H     H_    0.727282 0.868622 0.255289 0.258042
H30   H     H_    0.777411 0.692583 0.304975 0.295241
H31   H     H_    0.656961 0.140854 0.161517 0.121183
H32   H     H_    0.851344 0.180886 0.015160 0.253519
H33   H     H_    0.931745 0.121825 0.113170 0.209433
H34   H     H_    0.731230 0.896605 0.097745 0.276480
H35   H     H_    0.895860 0.898913 0.033669 0.277321
H36   H     H_    0.688131 0.952585 0.995168 0.264217
N1    N     N_1   0.073640 0.500030 0.499990 -0.048503
N2    N     N_1   0.926360 0.499970 0.500010 -0.049304
N3    N     N_2   0.577254 0.456899 0.986330 -0.102466
N4    N     N_2   0.471224 0.533624 0.015714 -0.100673
O1    O     O_R   0.636850 0.285340 0.500000 -0.614654
O2    O     O_3   0.263503 0.430150 0.895558 -0.599877
O3    O     O_3   0.864823 0.482735 0.908460 -0.582902
O4    O     O_3   0.254192 0.704675 0.090683 -0.600797
O5    O     O_3   0.842261 0.505804 0.744855 -0.601584
O6    O     O_3   0.256873 0.697831 0.254727 -0.634602
O7    O     O_R   0.363150 0.714660 0.500000 -0.614777
O8    O     O_R   0.363100 0.285350 0.500000 -0.618873
O9    O     O_R   0.636900 0.714650 0.500000 -0.634068
O10   O     O_R   0.652140 0.498630 0.616140 -0.581775
O11   O     O_R   0.347860 0.501370 0.383860 -0.609257
O12   O     O_R   0.378390 0.498650 0.616130 -0.640417
O13   O     O_R   0.621610 0.501350 0.383870 -0.640613
O14   O     O_3   0.714293 0.349249 0.113644 -0.616458
Zn1   Zn    Zn3+2 0.682780 0.499990 0.500010 0.975342
Zn2   Zn    Zn3+2 0.317220 0.500010 0.499990 0.974116

loop_
_geom_bond_atom_site_label_1
_geom_bond_atom_site_label_2
_ccdc_geom_bond_type
C18   O3    S    
C23   O10   A    
C27   C29   S    
C3    N3    S    
C4    N4    S    
C19   H14   S    
C22   H22   S    
C13   H33   S    
C20   O5    S    
C8    C29   A    
C19   O4    S    
C26   H29   S    
C11   H31   S    
C18   H10   S    
C32   O2    S    
C19   H15   S    
C11   O14   S    
O10   Zn1   S    
C12   O7    A    
C17   H7    S    
C27   O13   A    
C21   H18   S    
O1    Zn1   S    
C24   H25   S    
C14   H35   S    
C31   H1    S    
C9    C10   T    
C15   H2    S    
C16   H5    S    
C7    O5    S    
O11   Zn2   S    
C21   C22   S    
C8    O6    S    
C30   H12   S    
C3    C32   A    
N2    Zn1   S    
C15   H3    S    
O7    Zn2   S    
C22   H21   S    
O13   Zn1   S    
C23   O12   A    
C1    C9    S    
C24   C25   S    
C4    C6    A    
C18   H9    S    
C5    C7    A    
C16   C17   S    
C6    C8    A    
C25   C26   S    
C7    C28   A    
C2    C31   A    
C17   H8    S    
C5    O3    S    
C2    C4    A    
C20   H17   S    
C14   H34   S    
C20   H16   S    
C23   C28   S    
O9    Zn1   S    
N1    Zn2   S    
C10   C12   S    
C24   O6    S    
C25   H26   S    
C21   H19   S    
C11   H23   S    
C22   H20   S    
O12   Zn2   S    
C3    C5    A    
C19   H13   S    
C6    O4    S    
C24   H24   S    
C1    O1    A    
C27   O11   A    
C26   H30   S    
N3    N4    D    
C29   C31   A    
C18   H11   S    
C16   H4    S    
C30   C32   A    
C11   C13   S    
C13   H32   S    
C28   C30   A    
C12   O9    A    
C2    O14   S    
C17   H6    S    
N1    N2    T    
C15   O2    S    
C20   C21   S    
O8    Zn2   S    
C1    O8    A    
C14   H36   S    
C25   H27   S    
C13   C14   S    
C26   H28   S    
C15   C16   S    
