data_mof_unit_11582.cif
_audit_creation_date              2012-12-10T20:34:53-0500
_audit_creation_method            fapswitch 2.2
_symmetry_space_group_name_H-M    P1
_symmetry_Int_Tables_number       1
_space_group_crystal_system       triclinic
_cell_length_a                    10.657699
_cell_length_b                    10.690876
_cell_length_c                    9.870757
_cell_angle_alpha                 90.003725
_cell_angle_beta                  89.515211
_cell_angle_gamma                 90.953124
_cell_volume                      1124.47955217

loop_
_atom_site_label
_atom_site_type_symbol
_atom_type_description
_atom_site_fract_x
_atom_site_fract_y
_atom_site_fract_z
_atom_type_partial_charge
C1    C     C_R   0.503481 0.260054 0.499937 0.883017
C2    C     C_R   0.529660 0.936375 0.621254 0.071736
C3    C     C_3   0.453056 0.926599 0.748769 0.396739
C4    C     C_R   0.257941 0.504487 0.499601 0.917999
C5    C     C_3   0.451931 0.068687 0.748808 -0.577783
C6    C     C_R   0.452597 0.399967 0.072355 0.112305
C7    C     C_R   0.562626 0.590326 0.071852 -0.253200
C8    C     C_R   0.567285 0.588555 0.925958 0.569809
C9    C     C_R   0.446540 0.402887 0.930622 0.017669
C10   C     C_3   0.312338 0.355919 0.934948 0.370932
C11   C     C_3   0.324839 0.346085 0.088552 -0.512329
C12   C     C_3   0.878662 0.505843 0.497001 -0.015496
C13   C     C_R   0.503684 0.739932 0.499848 0.887127
C14   C     C_R   0.742223 0.504457 0.499245 0.920325
C15   C     C_3   0.070553 0.376275 0.547760 0.236948
C16   C     C_3   0.924954 0.377170 0.549211 0.365953
C17   C     C_3   0.072358 0.607927 0.595558 -0.528164
C18   C     C_3   0.070858 0.525443 0.348192 0.412523
C19   C     C_3   0.121641 0.506027 0.496748 -0.076148
C20   C     C_3   0.276643 0.837430 0.847561 -0.283450
C21   C     C_3   0.186536 0.192765 0.534744 -0.287590
C22   C     C_3   0.740541 0.724566 0.913100 -0.438981
C23   C     C_3   0.928720 0.611168 0.591163 -0.555900
C24   C     C_3   0.102349 0.404394 0.924017 -0.330232
C25   C     C_3   0.834828 0.177111 0.546861 -0.271307
C26   C     C_3   0.132526 0.739863 0.317323 -0.250249
C27   C     C_3   0.928078 0.532401 0.350563 -0.452873
C28   C     C_R   0.528638 0.063769 0.621384 0.005251
C29   C     C_R   0.519416 0.128530 0.499471 -0.073035
C30   C     C_R   0.534640 0.064997 0.376197 -0.221253
C31   C     C_R   0.536217 0.935851 0.376101 -0.264909
C32   C     C_R   0.522049 0.871510 0.499267 -0.070117
H1    H     H_    0.100787 0.364890 0.654704 0.079048
H2    H     H_    0.113077 0.701993 0.575907 0.209991
H3    H     H_    0.537611 0.113757 0.279976 0.172121
H4    H     H_    0.270881 0.917845 0.918908 0.139780
H5    H     H_    0.328078 0.758963 0.894474 0.195651
H6    H     H_    0.179528 0.803821 0.827533 0.186533
H7    H     H_    0.607546 0.664629 0.128633 0.149616
H8    H     H_    0.128190 0.140887 0.610324 0.152692
H9    H     H_    0.265028 0.241420 0.586535 0.153876
H10   H     H_    0.226630 0.124122 0.462814 0.197118
H11   H     H_    0.796644 0.647823 0.957256 0.168899
H12   H     H_    0.897879 0.704104 0.554560 0.197513
H13   H     H_    0.717052 0.795989 0.990572 0.164583
H14   H     H_    0.800263 0.772146 0.835591 0.198205
H15   H     H_    0.081486 0.404832 0.034311 0.183439
H16   H     H_    0.084378 0.309063 0.882316 0.129864
H17   H     H_    0.034500 0.468303 0.877191 0.166344
H18   H     H_    0.299889 0.264773 0.882297 0.052139
H19   H     H_    0.263898 0.409096 0.147763 0.252801
H20   H     H_    0.326486 0.247976 0.125673 0.153366
H21   H     H_    0.755804 0.203882 0.614368 0.147875
H22   H     H_    0.912498 0.140287 0.608595 0.148178
H23   H     H_    0.539806 0.887345 0.279800 0.168146
H24   H     H_    0.801602 0.100879 0.479224 0.194600
H25   H     H_    0.893194 0.368934 0.657463 0.015188
H26   H     H_    0.101796 0.586599 0.700361 0.233813
H27   H     H_    0.214512 0.752413 0.384815 0.172797
H28   H     H_    0.043689 0.766134 0.368202 0.147395
H29   H     H_    0.146788 0.806400 0.232157 0.173206
H30   H     H_    0.090581 0.437016 0.293494 0.152179
H31   H     H_    0.506935 0.885080 0.833464 0.113723
H32   H     H_    0.357256 0.107000 0.733495 0.207275
H33   H     H_    0.505196 0.110690 0.834302 0.159943
H34   H     H_    0.891095 0.598780 0.695846 0.213155
H35   H     H_    0.889439 0.461993 0.278068 0.192312
H36   H     H_    0.895713 0.624996 0.315083 0.178848
N1    N     N_R   0.499150 0.499140 0.142800 -0.098037
N2    N     N_R   0.499150 0.499180 0.857150 -0.127618
O1    O     O_R   0.500020 0.316790 0.614690 -0.637096
O2    O     O_3   0.114325 0.278649 0.461997 -0.587701
O3    O     O_3   0.630793 0.679142 0.849552 -0.590162
O4    O     O_3   0.226095 0.448327 0.896298 -0.563866
O5    O     O_3   0.874933 0.279626 0.466619 -0.568520
O6    O     O_3   0.129992 0.617774 0.263599 -0.602873
O7    O     O_R   0.500000 0.316760 0.385350 -0.612154
O8    O     O_R   0.314800 0.500000 0.614670 -0.595110
O9    O     O_R   0.314790 0.499960 0.385330 -0.586515
O10   O     O_R   0.500000 0.683240 0.614650 -0.549573
O11   O     O_R   0.499980 0.683210 0.385310 -0.645832
O12   O     O_R   0.685210 0.500040 0.614670 -0.617290
O13   O     O_R   0.685200 0.500000 0.385330 -0.622622
O14   O     O_3   0.333122 0.873277 0.723676 -0.599543
Zn1   Zn    Zn3+2 0.500010 0.500020 0.653130 1.009307
Zn2   Zn    Zn3+2 0.499990 0.499980 0.346870 0.967678

loop_
_geom_bond_atom_site_label_1
_geom_bond_atom_site_label_2
_ccdc_geom_bond_type
C6    N1    A    
C16   O5    S    
C1    O7    A    
C13   C32   S    
C25   H24   S    
C6    C9    A    
C7    C8    A    
C15   C19   S    
C15   O2    S    
C12   C23   S    
C1    O1    A    
C30   H3    S    
C23   H34   S    
C28   C29   A    
C26   H29   S    
C25   H21   S    
C30   C31   A    
C15   C16   S    
C13   O11   A    
C2    C32   A    
C18   C19   S    
C11   H20   S    
O1    Zn1   S    
C4    C19   S    
C22   H11   S    
C26   O6    S    
C27   H36   S    
C29   C30   A    
C9    C10   S    
O11   Zn2   S    
C17   H26   S    
C13   O10   A    
C14   O13   A    
C21   O2    S    
C24   H16   S    
C12   C16   S    
C11   H19   S    
C9    N2    A    
C4    O9    A    
C5    H33   S    
C6    C11   S    
C18   H30   S    
C12   C27   S    
C23   H12   S    
C5    H32   S    
C25   O5    S    
C4    O8    A    
O10   Zn1   S    
C5    C28   S    
C20   H6    S    
C31   C32   A    
O13   Zn2   S    
C1    C29   S    
C17   C23   S    
C25   H22   S    
C21   H9    S    
O8    Zn1   S    
C22   H14   S    
C12   C14   S    
O7    Zn2   S    
C20   O14   S    
C17   H2    S    
C14   O12   A    
C10   H18   S    
C26   H27   S    
C24   H17   S    
C18   O6    S    
C24   H15   S    
C18   C27   S    
C3    C5    S    
C7    N1    A    
C3    H31   S    
O12   Zn1   S    
C8    N2    A    
C2    C3    S    
C20   H5    S    
C10   O4    S    
C24   O4    S    
C21   H8    S    
C8    O3    S    
C17   C19   S    
C16   H25   S    
C27   H35   S    
C10   C11   S    
C21   H10   S    
C20   H4    S    
C22   H13   S    
C3    O14   S    
C7    H7    S    
C2    C28   A    
C22   O3    S    
C31   H23   S    
N2    Zn1   S    
C26   H28   S    
C15   H1    S    
O9    Zn2   S    
N1    Zn2   S    
