data_mof_unit_67840.cif
_audit_creation_date              2013-03-05T15:41:50-0500
_audit_creation_method            fapswitch 2.2
_symmetry_space_group_name_H-M    P1
_symmetry_Int_Tables_number       1
_space_group_crystal_system       triclinic
_cell_length_a                    7.890531
_cell_length_b                    8.784084
_cell_length_c                    10.616034
_cell_angle_alpha                 91.133164
_cell_angle_beta                  86.364832
_cell_angle_gamma                 90.728556
_cell_volume                      734.136360607

loop_
_atom_site_label
_atom_site_type_symbol
_atom_site_description
_atom_site_fract_x
_atom_site_fract_y
_atom_site_fract_z
_atom_type_partial_charge
O1    O     O_R   0.389250 0.738570 0.508410 -0.606050
O2    O     O_R   0.610750 0.261430 0.491590 -0.606053
O3    O     O_R   0.678390 0.711620 0.486450 -0.594060
O4    O     O_R   0.321610 0.288380 0.513550 -0.594059
C1    C     C_R   0.542036 0.793335 0.499223 0.940840
C2    C     C_R   0.457964 0.206665 0.500780 0.940851
O5    O     O_R   0.355460 0.513510 0.697030 -0.610559
O6    O     O_R   0.644540 0.486490 0.302970 -0.610557
O7    O     O_R   0.644600 0.486560 0.675070 -0.573098
O8    O     O_R   0.355400 0.513440 0.324930 -0.573097
C3    C     C_R   0.501976 0.498838 0.742083 0.972287
C4    C     C_R   0.498025 0.501165 0.257916 0.972287
Zn1   Zn    Zn3+2 0.306940 0.517990 0.514670 1.056345
Zn2   Zn    Zn3+2 0.693060 0.482010 0.485330 1.056346
N1    N     N_2   0.950320 0.457950 0.465730 -0.136719
N2    N     N_2   0.049680 0.542050 0.534270 -0.136719
C5    C     C_3   0.400652 0.613097 0.965750 -0.172438
C6    C     C_3   0.599350 0.386908 0.034248 -0.172441
C7    C     C_3   0.557600 0.634088 0.042296 0.334176
C8    C     C_3   0.442401 0.365917 0.957703 0.334171
C9    C     C_3   0.496453 0.498459 0.122652 -0.279251
C10   C     C_3   0.503548 0.501547 0.877347 -0.279246
C11   C     C_3   0.339561 0.476637 0.046504 0.336851
C12   C     C_3   0.660441 0.523369 0.953495 0.336860
H1    H     H_    0.014187 0.382101 0.405338 0.237700
H2    H     H_    0.985813 0.617898 0.594662 0.237701
C13   C     C_2   0.558116 0.952967 0.520993 0.050890
C14   C     C_2   0.441882 0.047032 0.479015 0.050889
Cl1   Cl    Cl    0.618743 0.810074 0.109306 -0.626479
Cl2   Cl    Cl    0.381252 0.189933 0.890692 -0.626471
C15   C     C_R   0.293865 0.740046 0.920613 0.198191
C16   C     C_R   0.135197 0.773774 0.980854 -0.004866
C17   C     C_R   0.021143 0.863647 0.921165 -0.129867
C18   C     C_R   0.069358 0.933225 0.808373 -0.081648
C19   C     C_R   0.231258 0.911037 0.753607 -0.020974
C20   C     C_R   0.345355 0.817740 0.810315 -0.045835
H3    H     H_    0.095382 0.728115 0.071425 0.214069
H4    H     H_    0.894971 0.881074 0.962908 0.231052
H5    H     H_    0.984161 0.009355 0.766321 0.219251
H6    H     H_    0.267433 0.970266 0.669229 0.177332
H7    H     H_    0.471570 0.802821 0.766541 0.139910
C21   C     C_R   0.706133 0.259959 0.079389 0.198187
C22   C     C_R   0.864816 0.226238 0.019160 -0.004862
C23   C     C_R   0.978858 0.136359 0.078860 -0.129864
C24   C     C_R   0.930620 0.066777 0.191652 -0.081659
C25   C     C_R   0.768709 0.088961 0.246404 -0.020955
C26   C     C_R   0.654622 0.182259 0.189684 -0.045842
H8    H     H_    0.904649 0.271902 0.928590 0.214076
H9    H     H_    0.105039 0.118929 0.037128 0.231049
H10   H     H_    0.015808 0.990642 0.233715 0.219251
H11   H     H_    0.732521 0.029728 0.330783 0.177317
H12   H     H_    0.528400 0.197174 0.233448 0.139920
Cl3   Cl    Cl    0.135546 0.446132 0.122397 -0.607828
Cl4   Cl    Cl    0.864455 0.553879 0.877602 -0.607818
Cl5   Cl    Cl    0.720042 0.012051 0.619516 -0.619235
Cl6   Cl    Cl    0.279956 0.987949 0.380491 -0.619248

loop_
_geom_bond_atom_site_label_1
_geom_bond_atom_site_label_2
_geom_bond_distance
_ccdc_geom_bond_type
C23   H9    1.075298 S    
O7    Zn2   2.026005 S    
C11   Cl3   1.773538 S    
C26   H12   1.080366 S    
C6    C9    1.545105 S    
C22   H8    1.076047 S    
C3    C10   1.436532 S    
C5    C10   1.545100 S    
C5    C11   1.541973 S    
C8    C11   1.542685 S    
C1    C13   1.422008 S    
O6    C4    1.287729 A    
C16   C17   1.394569 A    
C9    C11   1.528897 S    
C19   H6    1.066203 S    
C14   Cl6   1.768312 S    
C15   C20   1.402192 A    
C8    Cl2   1.763417 S    
C24   C25   1.384082 A    
O5    C3    1.287728 A    
O7    C3    1.297211 A    
C20   H7    1.080355 S    
O2    C2    1.290938 A    
O3    Zn2   2.021459 S    
O8    C4    1.297214 A    
C24   H10   1.076931 S    
C6    C12   1.541973 S    
N1    N2    1.313843 D    
C25   H11   1.066248 S    
C10   C12   1.528899 S    
C5    C7    1.530966 S    
C5    C15   1.509745 S    
C8    C10   1.534039 S    
C17   C18   1.384670 A    
C6    C8    1.530966 S    
C21   C26   1.402237 A    
C6    C21   1.509742 S    
C22   C23   1.394599 A    
N2    H2    1.029353 S    
O2    Zn2   2.036692 S    
O1    C1    1.290937 A    
N1    H1    1.029353 S    
O1    Zn1   2.036692 S    
C21   C22   1.401688 A    
C13   Cl5   1.768305 S    
C12   Cl4   1.773542 S    
C18   H5    1.076903 S    
C7    Cl1   1.763413 S    
O5    Zn1   1.998342 S    
C23   C24   1.384728 A    
O4    C2    1.299412 A    
C18   C19   1.384062 A    
Zn1   N2    2.040622 S    
C13   C14   1.344675 D    
Zn2   N1    2.040622 S    
C17   H4    1.075270 S    
O6    Zn2   1.998340 S    
C16   H3    1.076008 S    
C7    C9    1.534038 S    
C25   C26   1.396993 A    
C7    C12   1.542686 S    
C4    C9    1.436540 S    
C15   C16   1.401645 A    
C2    C14   1.422006 S    
C19   C20   1.396976 A    
O4    Zn1   2.021459 S    
O3    C1    1.299414 A    
O8    Zn1   2.026005 S    
