data_mof_unit_30258.cif
_audit_creation_date              2012-12-11T18:09:25-0500
_audit_creation_method            fapswitch 2.2
_symmetry_space_group_name_H-M    P1
_symmetry_Int_Tables_number       1
_space_group_crystal_system       triclinic
_cell_length_a                    8.313935
_cell_length_b                    12.642581
_cell_length_c                    19.05821
_cell_angle_alpha                 99.573074
_cell_angle_beta                  91.653226
_cell_angle_gamma                 98.191693
_cell_volume                      1952.31500381

loop_
_atom_site_label
_atom_site_type_symbol
_atom_type_description
_atom_site_fract_x
_atom_site_fract_y
_atom_site_fract_z
_atom_type_partial_charge
Ba1   Ba    Ba6+2 0.853180 0.547790 0.465300 1.712618
Ba2   Ba    Ba6+2 0.336650 0.452300 0.534710 1.702897
C1    C     C_3   0.676604 0.829626 0.161835 -0.312950
C2    C     C_3   0.651263 0.797162 0.234746 0.876010
C3    C     C_3   0.596204 0.252789 0.311587 0.312864
C4    C     C_3   0.576043 0.214349 0.231398 -0.361261
C5    C     C_3   0.064536 0.227326 0.726377 0.368114
C6    C     C_3   0.085679 0.196773 0.799516 -0.375533
C7    C     C_3   0.544034 0.172602 0.699335 0.292654
C8    C     C_3   0.595827 0.097407 0.747171 -0.341294
C9    C     C_R   0.053111 0.558446 0.803365 -0.141795
C10   C     C_R   0.015716 0.545871 0.728539 0.023923
C11   C     C_R   0.843323 0.409032 0.809775 -0.163340
C12   C     C_3   0.165938 0.790691 0.273804 0.379831
C13   C     C_R   0.775572 0.424689 0.745252 0.017455
C14   C     C_R   0.335883 0.584589 0.187147 -0.171982
C15   C     C_R   0.406564 0.572862 0.252758 -0.013118
C16   C     C_R   0.119959 0.441495 0.198798 -0.150262
C17   C     C_R   0.167922 0.453600 0.271817 0.025670
C18   C     C_R   0.973213 0.484081 0.845654 -0.003695
C19   C     C_R   0.868548 0.484235 0.701999 -0.250877
C20   C     C_R   0.199758 0.511283 0.154288 0.012795
C21   C     C_R   0.316541 0.513556 0.296545 -0.219504
C22   C     C_R   0.752089 0.414519 0.963415 -0.077226
C23   C     C_3   0.193386 0.848828 0.210435 -0.335699
C24   C     C_R   0.653078 0.381121 0.015579 -0.081403
C25   C     C_R   0.702394 0.416002 0.086316 -0.078202
C26   C     C_R   0.855711 0.475651 0.103734 -0.081604
C27   C     C_R   0.974448 0.479944 0.052708 0.014313
C28   C     C_R   0.918661 0.459032 0.978738 0.042691
C29   C     C_R   0.142706 0.507629 0.075289 -0.012760
C30   C     C_R   0.253631 0.524765 0.020446 0.040812
C31   C     C_R   0.196771 0.508661 0.946913 -0.003498
C32   C     C_R   0.028463 0.482847 0.924428 -0.017179
C33   C     C_R   0.423673 0.555657 0.035201 -0.098852
C34   C     C_3   0.235496 0.784475 0.612263 0.316366
C35   C     C_R   0.526960 0.586020 0.983899 -0.087630
C36   C     C_R   0.474927 0.557311 0.913317 0.029749
C37   C     C_R   0.314466 0.510568 0.895545 -0.053867
C38   C     C_R   0.770677 0.178893 0.516311 -0.254543
C39   C     C_R   0.432300 0.805450 0.468445 -0.243701
C40   C     C_R   0.401541 0.983024 0.444776 -0.000544
C41   C     C_R   0.340110 0.874237 0.441290 -0.048585
C42   C     C_R   0.579548 0.846909 0.506914 0.119296
C43   C     C_R   0.642572 0.959503 0.513636 -0.022497
C44   C     C_R   0.553909 0.026960 0.479513 0.000457
C45   C     C_3   0.245918 0.907203 0.623778 -0.341013
C46   C     C_R   0.619447 0.136798 0.481616 0.035833
C47   C     C_R   0.858519 0.114656 0.550214 0.001979
C48   C     C_R   0.792868 0.006410 0.551008 -0.079987
C49   C     C_3   0.134778 0.206095 0.295066 0.291887
C50   C     C_3   0.090494 0.159223 0.216638 -0.382474
C51   C     C_3   0.784034 0.778374 0.694095 0.776351
C52   C     C_3   0.690870 0.705676 0.741225 0.488306
H1    H     H_    0.323141 0.944664 0.672262 0.145791
H2    H     H_    0.299230 0.940292 0.578257 0.044316
H3    H     H_    0.122301 0.929661 0.629861 0.136574
H4    H     H_    0.160292 0.139224 0.322742 0.100752
H5    H     H_    0.249967 0.263778 0.299737 -0.009973
H6    H     H_    0.958756 0.127238 0.207954 0.171521
H7    H     H_    0.161608 0.092620 0.198852 0.100779
H8    H     H_    0.120965 0.222035 0.183155 0.062382
H9    H     H_    0.874841 0.735253 0.664066 -0.233895
H10   H     H_    0.601463 0.893221 0.154213 0.086006
H11   H     H_    0.775419 0.676909 0.777249 -0.188172
H12   H     H_    0.623143 0.633347 0.706202 -0.029649
H13   H     H_    0.519768 0.774705 0.238737 -0.227333
H14   H     H_    0.639308 0.758040 0.119411 0.040826
H15   H     H_    0.580461 0.339773 0.323004 0.053583
H16   H     H_    0.718421 0.240586 0.329495 0.092566
H17   H     H_    0.456992 0.229613 0.210587 0.078002
H18   H     H_    0.674599 0.259223 0.204970 0.084843
H19   H     H_    0.583366 0.126293 0.218403 0.164149
H20   H     H_    0.806098 0.861054 0.156322 0.117881
H21   H     H_    0.248537 0.797947 0.167358 0.055031
H22   H     H_    0.148346 0.303773 0.725084 0.079568
H23   H     H_    0.936333 0.239715 0.718013 -0.069151
H24   H     H_    0.209668 0.176405 0.807567 0.147098
H25   H     H_    0.067955 0.265187 0.841741 0.068086
H26   H     H_    0.994484 0.125633 0.803882 0.122691
H27   H     H_    0.652419 0.200378 0.670401 -0.071146
H28   H     H_    0.450625 0.126329 0.658683 0.075030
H29   H     H_    0.692723 0.142006 0.786785 0.100107
H30   H     H_    0.643945 0.028946 0.714412 0.156579
H31   H     H_    0.089346 0.710634 0.255893 0.048161
H32   H     H_    0.490230 0.065815 0.775969 0.155237
H33   H     H_    0.146248 0.622442 0.827943 0.133852
H34   H     H_    0.794129 0.337178 0.829977 0.061274
H35   H     H_    0.389566 0.648785 0.161076 0.055769
H36   H     H_    0.017365 0.380568 0.178596 0.063843
H37   H     H_    0.822991 0.486011 0.648507 0.059985
H38   H     H_    0.365213 0.511104 0.349464 0.057001
H39   H     H_    0.687226 0.410366 0.913955 0.064312
H40   H     H_    0.529149 0.341924 0.001465 0.075918
H41   H     H_    0.617131 0.403261 0.126940 0.094840
H42   H     H_    0.286739 0.777880 0.294414 -0.044807
H43   H     H_    0.883219 0.516503 0.157674 0.130013
H44   H     H_    0.486010 0.549849 0.083651 0.073425
H45   H     H_    0.654084 0.616800 0.998120 0.086297
H46   H     H_    0.562276 0.565372 0.872915 0.130446
H47   H     H_    0.281001 0.474573 0.841453 0.124982
H48   H     H_    0.327402 0.031976 0.420508 0.095410
H49   H     H_    0.862333 0.960183 0.579758 0.100156
H50   H     H_    0.822137 0.262446 0.516063 0.067474
H51   H     H_    0.382320 0.720748 0.464820 0.040825
H52   H     H_    0.076251 0.866030 0.189263 0.138247
H53   H     H_    0.276341 0.926569 0.227098 0.142492
H54   H     H_    0.355789 0.761664 0.599901 0.016050
H55   H     H_    0.146492 0.750287 0.566877 0.053447
O1    O     O_2   0.875110 0.423180 0.326290 -0.469174
O2    O     O_3   0.667311 0.805190 0.647794 -0.645219
O3    O     O_3   0.084997 0.853761 0.324941 -0.524996
O4    O     O_2   0.314600 0.576860 0.673750 -0.407512
O5    O     O_3   0.066300 0.567050 0.585060 -0.511780
O6    O     O_3   0.528700 0.375020 0.630330 -0.462961
O7    O     O_3   0.188397 0.749188 0.675349 -0.600723
O8    O     O_3   0.611760 0.365720 0.463870 -0.493074
O9    O     O_3   0.107460 0.315620 0.594570 -0.489030
O10   O     O_2   0.193063 0.122359 0.545946 -0.481194
O11   O     O_3   0.101871 0.143096 0.674663 -0.604243
O12   O     O_3   0.123410 0.433040 0.414950 -0.467326
O13   O     O_3   0.577950 0.634370 0.536140 -0.500174
O14   O     O_2   0.341900 0.231310 0.465740 -0.450251
O15   O     O_3   0.479974 0.191562 0.345581 -0.635239
O16   O     O_2   0.456191 0.464900 0.753001 -0.484528
O17   O     O_3   0.474990 0.255979 0.741001 -0.596913
O18   O     O_3   0.661010 0.625070 0.369680 -0.428219
O19   O     O_2   0.700966 0.507765 0.249670 -0.517156
O20   O     O_3   0.004013 0.250841 0.327808 -0.639287
O21   O     O_3   0.743756 0.714109 0.243237 -0.611074
O22   O     O_2   0.847800 0.768730 0.534310 -0.479877
O23   O     O_3   0.082250 0.684470 0.405440 -0.492056
O24   O     O_2   0.012486 0.880388 0.457989 -0.437628
P1    P     P_3+3 0.042930 0.392230 0.337410 0.982685
P2    P     P_3+3 0.672230 0.754900 0.555730 0.977037
P3    P     P_3+3 0.130079 0.823703 0.408701 1.028684
P4    P     P_3+3 0.146790 0.607860 0.662600 1.039699
P5    P     P_3+3 0.063289 0.174306 0.590349 0.966343
P6    P     P_3+3 0.625222 0.609831 0.277682 0.982273
P7    P     P_3+3 0.517947 0.229805 0.437688 0.956997
P8    P     P_3+3 0.560233 0.380342 0.720083 0.947889
S1    S     S_3+6 0.706794 0.910578 0.303648 -0.097712
O25   O     O_2   0.572164 0.978440 0.309600 -0.375485
O26   O     O_2   0.730617 0.869381 0.371874 -0.300428
O27   O     O_3   0.878810 0.986429 0.287268 -0.540706
H56   H     H_    0.911990 0.034287 0.333505 0.362028
O28   O     O_3   0.858131 0.876644 0.737969 -0.646450
C53   C     C_3   0.001772 0.865106 0.776267 0.274782
H57   H     H_    0.105586 0.911649 0.754232 0.118484
H58   H     H_    0.023317 0.779899 0.773174 0.021865
C54   C     C_3   0.997390 0.911374 0.855591 -0.182191
H59   H     H_    0.932759 0.983067 0.863285 0.160500
H60   H     H_    0.931922 0.848423 0.882839 0.168074
C55   C     C_3   0.168761 0.943008 0.890796 -0.503902
H61   H     H_    0.233907 0.871405 0.884466 0.184224
H62   H     H_    0.161294 0.973379 0.948547 0.138023
H63   H     H_    0.238683 0.008104 0.866585 0.147368
S2    S     S_3+6 0.550201 0.774226 0.795193 -0.074619
O29   O     O_2   0.484829 0.856655 0.758698 -0.312813
O30   O     O_2   0.411401 0.692039 0.807603 -0.340547
O31   O     O_3   0.638389 0.835829 0.874592 -0.556061
H64   H     H_    0.550742 0.867516 0.900938 0.348106

loop_
_geom_bond_atom_site_label_1
_geom_bond_atom_site_label_2
_ccdc_geom_bond_type
C26   H43   S    
C24   H40   S    
C6    H24   S    
O6    P8    S    
C34   H54   S    
C51   H9    S    
C25   H41   S    
O28   C53   S    
C53   C54   S    
Ba1   O23   S    
O27   H56   S    
C49   O20   S    
C5    C6    S    
C52   H11   S    
C51   C52   S    
C17   P1    S    
C4    H18   S    
C3    O15   S    
C24   C25   A    
C31   C37   A    
C39   H51   S    
C10   P4    S    
C26   C27   A    
C33   C35   A    
O19   P6    D    
C22   C24   A    
C16   C17   A    
O9    P5    S    
O22   P2    D    
C50   H7    S    
C2    S1    S    
C36   C37   A    
Ba2   O4    S    
C54   C55   S    
C52   S2    S    
C38   C47   A    
C8    H29   S    
C51   O28   S    
C34   C45   S    
Ba1   Ba2   S    
C40   C44   A    
O5    P4    S    
C1    H20   S    
Ba1   O13   S    
C3    H15   S    
C50   H6    S    
S2    O31   S    
C13   P8    S    
C1    H14   S    
C9    H33   S    
C14   C15   A    
O24   P3    D    
C54   H59   S    
O12   P1    S    
C33   H44   S    
C7    C8    S    
C55   H62   S    
C7    H28   S    
C5    H23   S    
C18   C32   S    
C51   O2    S    
C42   P2    S    
C12   O3    S    
C48   H49   S    
C47   P5    S    
S2    O30   D    
C39   C41   A    
S1    O27   S    
O18   P6    S    
O3    P3    S    
O21   P6    S    
C40   H48   S    
C12   H42   S    
Ba2   O8    S    
C23   H52   S    
C37   H47   S    
Ba1   O12   S    
Ba2   O13   S    
Ba2   O9    S    
C4    H17   S    
C44   C46   A    
C9    C18   A    
C20   C29   S    
C46   P7    S    
C49   C50   S    
C16   H36   S    
C30   C33   A    
C53   H57   S    
C55   H63   S    
C36   H46   S    
O16   P8    D    
C28   C32   A    
C2    O21   S    
C1    H10   S    
O14   P7    D    
C23   H21   S    
C17   C21   A    
C35   C36   A    
Ba1   O1    S    
C38   H50   S    
Ba2   O6    S    
C29   C30   A    
C13   C19   A    
O23   P3    S    
C6    H26   S    
C31   C32   A    
C15   P6    S    
C49   H4    S    
C15   C21   A    
C55   H61   S    
C11   C13   A    
S2    O29   D    
C39   C42   A    
O4    P4    D    
O1    P1    D    
O8    P7    S    
O11   P5    S    
C40   C41   A    
Ba1   P1    S    
C34   O7    S    
C34   H55   S    
C35   H45   S    
C42   C43   A    
C23   H53   S    
C4    H19   S    
C45   H1    S    
O7    P4    S    
C19   H37   S    
Ba2   O12   S    
C38   C46   A    
C8    H32   S    
C14   C20   A    
C11   C18   A    
C16   C20   A    
O10   P5    D    
C5    O11   S    
O15   P7    S    
Ba1   O18   S    
C12   H31   S    
C53   H58   S    
Ba1   O22   S    
C3    H16   S    
C2    H13   S    
C9    C10   A    
C5    H22   S    
C52   H12   S    
Ba2   P4    S    
O17   P8    S    
C7    O17   S    
C30   C31   A    
C27   C29   A    
C6    H25   S    
O31   H64   S    
C22   H39   S    
Ba2   O5    S    
O2    P2    S    
C3    C4    S    
C43   C48   A    
C10   C19   A    
C11   H34   S    
C8    H30   S    
S1    O26   D    
C54   H60   S    
C12   C23   S    
C41   P3    S    
C22   C28   A    
O13   P2    S    
C27   C28   A    
O20   P1    S    
C43   C44   A    
C14   H35   S    
C49   H5    S    
C47   C48   A    
Ba1   O5    S    
C45   H3    S    
S1    O25   D    
C21   H38   S    
C50   H8    S    
Ba1   O8    S    
Ba1   P2    S    
Ba2   O14   S    
C1    C2    S    
C7    H27   S    
C45   H2    S    
C25   C26   A    
