data_mof_unit_39025.cif
_audit_creation_date              2013-03-05T16:02:29-0500
_audit_creation_method            fapswitch 2.2
_symmetry_space_group_name_H-M    P1
_symmetry_Int_Tables_number       1
_space_group_crystal_system       triclinic
_cell_length_a                    16.87778
_cell_length_b                    7.24696
_cell_length_c                    15.015694
_cell_angle_alpha                 91.057253
_cell_angle_beta                  94.187769
_cell_angle_gamma                 91.045595
_cell_volume                      1831.039453

loop_
_atom_site_label
_atom_site_type_symbol
_atom_site_description
_atom_site_fract_x
_atom_site_fract_y
_atom_site_fract_z
_atom_type_partial_charge
O1    O     O_R   0.663460 0.361760 0.165970 -0.543594
O2    O     O_R   0.336540 0.638240 0.834030 -0.591521
O3    O     O_R   0.836540 0.861760 0.334030 -0.587733
O4    O     O_R   0.163460 0.138240 0.665970 -0.590493
O5    O     O_R   0.827100 0.689870 0.163730 -0.563873
O6    O     O_R   0.172900 0.310130 0.836270 -0.570304
O7    O     O_R   0.672900 0.189870 0.336270 -0.510988
O8    O     O_R   0.327100 0.810130 0.663730 -0.551543
C1    C     C_R   0.855552 0.523747 0.146522 1.072440
C2    C     C_R   0.144392 0.476182 0.853398 1.070808
C3    C     C_R   0.647089 0.022724 0.356948 1.008161
C4    C     C_R   0.352916 0.976978 0.643049 1.004036
O9    O     O_R   0.663490 0.691370 0.155500 -0.589774
O10   O     O_R   0.336510 0.308630 0.844500 -0.542608
O11   O     O_R   0.836510 0.191370 0.344500 -0.524929
O12   O     O_R   0.163490 0.808630 0.655500 -0.522111
O13   O     O_R   0.671770 0.863320 0.325740 -0.589424
O14   O     O_R   0.328230 0.136680 0.674260 -0.546976
O15   O     O_R   0.828230 0.363320 0.174260 -0.533895
O16   O     O_R   0.171770 0.636680 0.825740 -0.527413
C5    C     C_R   0.637810 0.521007 0.131471 0.979552
C6    C     C_R   0.361780 0.479623 0.869034 0.979331
C7    C     C_R   0.862607 0.026725 0.369099 0.913999
C8    C     C_R   0.137430 0.973266 0.630857 0.913987
H1    H     H_    0.109256 0.938308 0.216371 0.196323
H2    H     H_    0.890581 0.060043 0.783395 0.197131
H3    H     H_    0.396188 0.587200 0.286474 0.195689
H4    H     H_    0.602547 0.558570 0.712740 0.193988
O17   O     O_3   0.752910 0.528800 0.305860 -0.246931
O18   O     O_3   0.247090 0.471200 0.694140 -0.246188
O19   O     O_3   0.747090 0.028800 0.194140 -0.262985
O20   O     O_3   0.252910 0.971200 0.805860 -0.262064
V1    V     V_3+5 0.749460 0.803010 0.239640 1.319411
V2    V     V_3+5 0.250540 0.196990 0.760360 1.344406
V3    V     V_3+5 0.750540 0.303010 0.260360 1.400548
V4    V     V_3+5 0.249460 0.696990 0.739640 1.377477
C9    C     C_1   0.468646 0.994192 0.529827 0.107538
C10   C     C_1   0.531251 0.004600 0.469997 0.106363
C11   C     C_1   0.030144 0.494003 0.968646 0.119582
C12   C     C_1   0.969762 0.505419 0.031249 0.120221
H5    H     H_    0.796422 0.211636 0.680069 0.189887
H6    H     H_    0.203583 0.787603 0.319809 0.179049
H7    H     H_    0.715454 0.620798 0.818007 0.189163
H8    H     H_    0.283674 0.628365 0.179806 0.176948
C13   C     C_R   0.026802 0.999523 0.315174 0.313285
C14   C     C_R   0.973169 0.999582 0.684644 0.312408
C15   C     C_R   0.476892 0.519149 0.187001 0.301337
C16   C     C_R   0.522484 0.495317 0.813380 0.306484
C17   C     C_R   0.097023 0.930244 0.286039 -0.222797
C18   C     C_R   0.902896 0.068590 0.713769 -0.226911
C19   C     C_R   0.404824 0.576152 0.215782 -0.233525
C20   C     C_R   0.594137 0.556163 0.783569 -0.234862
C21   C     C_R   0.152127 0.851544 0.345432 -0.205512
C22   C     C_R   0.847877 0.147743 0.654425 -0.206969
C23   C     C_R   0.340801 0.596728 0.155259 -0.189069
C24   C     C_R   0.658428 0.589125 0.843499 -0.198958
C25   C     C_R   0.140983 0.849247 0.436640 0.292897
C26   C     C_R   0.859132 0.150597 0.563253 0.288862
C27   C     C_R   0.346705 0.555288 0.065043 0.352879
C28   C     C_R   0.653071 0.556619 0.934133 0.349227
C29   C     C_R   0.073145 0.934536 0.470446 -0.046799
C30   C     C_R   0.926953 0.065303 0.529438 -0.045165
C31   C     C_R   0.421841 0.518544 0.030596 -0.061030
C32   C     C_R   0.577838 0.520491 0.969427 -0.054852
C33   C     C_R   0.010521 0.988429 0.406977 -0.023247
C34   C     C_R   0.989534 0.011203 0.592890 -0.022524
C35   C     C_R   0.489699 0.511451 0.093712 -0.034257
C36   C     C_R   0.509914 0.499391 0.906650 -0.031364
C37   C     C_R   0.065654 0.967087 0.563896 -0.163077
C38   C     C_R   0.934429 0.032824 0.435994 -0.162791
C39   C     C_R   0.431687 0.493309 0.936973 -0.216710
C40   C     C_R   0.568012 0.508602 0.063444 -0.212423
C41   C     C_1   0.415658 0.985779 0.580934 -0.106338
C42   C     C_1   0.584272 0.013249 0.418941 -0.110143
C43   C     C_1   0.081712 0.484929 0.915766 -0.061956
C44   C     C_1   0.918202 0.514632 0.084133 -0.063414
N1    N     N_R   0.190703 0.728768 0.489087 0.226118
O21   O     O_R   0.267138 0.736498 0.482637 -0.433493
O22   O     O_R   0.159179 0.577390 0.517276 -0.348400
N2    N     N_R   0.809610 0.271663 0.510908 0.225132
O23   O     O_R   0.733161 0.264511 0.517272 -0.429344
O24   O     O_R   0.841380 0.422754 0.482727 -0.350223
N3    N     N_R   0.273637 0.539282 0.012610 0.180472
O25   O     O_R   0.238023 0.378453 0.009878 -0.435267
O26   O     O_R   0.231147 0.686468 0.002630 -0.418717
N4    N     N_R   0.726535 0.544276 0.985639 0.184528
O27   O     O_R   0.777021 0.681828 0.983987 -0.420075
O28   O     O_R   0.753131 0.379627 0.000743 -0.438783
N5    N     N_R   0.979577 0.107346 0.253494 0.217845
O29   O     O_R   0.957735 0.040060 0.174358 -0.394344
O30   O     O_R   0.976692 0.284579 0.267870 -0.416170
N6    N     N_R   0.020353 0.891464 0.746232 0.218041
O31   O     O_R   0.042128 0.958358 0.825461 -0.393364
O32   O     O_R   0.023264 0.714296 0.731646 -0.416025
N7    N     N_R   0.529093 0.434257 0.252188 0.221684
O33   O     O_R   0.554507 0.526316 0.324210 -0.392133
O34   O     O_R   0.529266 0.254913 0.252557 -0.423668
N8    N     N_R   0.471062 0.393724 0.750117 0.218809
O35   O     O_R   0.445205 0.470562 0.676163 -0.390489
O36   O     O_R   0.472227 0.214667 0.753786 -0.425509

loop_
_geom_bond_atom_site_label_1
_geom_bond_atom_site_label_2
_geom_bond_distance
_ccdc_geom_bond_type
C26   C30   1.431527 A    
O1    C5    1.339833 A    
C23   C27   1.393200 A    
O3    C7    1.350478 A    
N7    O33   1.301461 A    
N1    O21   1.300986 A    
O7    C3    1.329585 A    
O5    C1    1.332085 A    
C18   C22   1.379437 A    
C32   C36   1.434104 A    
C27   N3    1.415545 S    
C14   C34   1.428490 A    
H2    C18   1.083374 S    
H6    C21   1.083457 S    
C10   C42   1.221637 T    
O4    C8    1.350594 A    
N4    O28   1.300508 A    
C34   C37   1.426129 A    
C14   N6    1.430131 S    
O3    V1    2.000207 S    
O2    V4    2.022632 S    
C33   C38   1.426287 A    
C30   C38   1.433480 A    
C35   C40   1.429132 A    
O8    V4    1.975360 S    
O11   V3    2.041806 S    
C1    O15   1.328213 A    
C2    O16   1.328565 A    
O5    V1    1.977752 S    
O2    C6    1.336616 A    
O19   V1    1.784791 S    
C1    C44   1.464574 S    
C11   C43   1.222045 T    
N5    O30   1.300867 A    
C13   N5    1.430131 S    
C26   N2    1.429133 S    
O11   C7    1.328828 A    
O12   C8    1.328743 A    
C4    C41   1.462652 S    
C7    C38   1.516224 S    
O13   V1    1.956907 S    
C15   C35   1.433127 A    
H3    C19   1.083650 S    
C8    C37   1.516237 S    
O4    V2    2.000205 S    
N1    O22   1.301710 A    
C31   C35   1.434547 A    
C30   C34   1.434933 A    
C5    C40   1.502080 S    
C25   N1    1.429098 S    
N2    O24   1.301652 A    
C11   C12   1.438476 S    
C21   C25   1.396315 A    
N4    O27   1.301290 A    
C15   C19   1.387600 A    
O6    V2    1.977752 S    
O20   V2    1.784792 S    
O9    V1    2.001959 S    
C9    C10   1.437876 S    
C2    C43   1.464646 S    
N3    O25   1.300188 A    
C13   C17   1.391919 A    
O8    C4    1.327667 A    
N6    O32   1.300909 A    
O9    C5    1.335474 A    
C16   C36   1.431577 A    
O14   V2    1.956907 S    
N3    O26   1.301001 A    
C31   C39   1.436359 A    
N8    O36   1.300245 A    
C13   C33   1.428558 A    
C6    C39   1.502948 S    
O1    V3    2.022632 S    
C22   C26   1.396278 A    
C29   C37   1.433676 A    
C9    C41   1.221642 T    
C3    O13   1.324268 A    
C28   N4    1.417771 S    
O7    V3    1.975363 S    
N2    O23   1.300931 A    
C3    C42   1.462581 S    
O10   V2    2.001960 S    
N7    O34   1.299865 A    
C25   C29   1.431688 A    
C16   N8    1.424115 S    
O17   V3    1.760169 S    
C14   C18   1.391906 A    
C27   C31   1.431662 A    
O18   V4    1.760168 S    
C28   C32   1.432820 A    
O10   C6    1.339439 A    
O15   V3    1.956874 S    
O12   V4    2.041806 S    
H4    C20   1.083607 S    
H8    C23   1.083934 S    
C36   C39   1.427884 A    
C17   C21   1.379343 A    
N6    O31   1.301447 A    
C19   C23   1.372316 A    
C32   C40   1.437388 A    
H1    C17   1.083394 S    
H5    C22   1.083426 S    
O6    C2    1.331740 A    
O16   V4    1.956873 S    
C29   C33   1.435153 A    
H7    C24   1.083775 S    
C16   C20   1.387160 A    
C24   C28   1.394573 A    
N8    O35   1.301761 A    
C12   C44   1.222054 T    
C4    O14   1.326195 A    
C15   N7    1.424374 S    
N5    O29   1.301446 A    
C20   C24   1.372690 A    
