data_mof_unit_25811.cif
_audit_creation_date              2012-12-11T15:41:31-0500
_audit_creation_method            fapswitch 2.2
_symmetry_space_group_name_H-M    P1
_symmetry_Int_Tables_number       1
_space_group_crystal_system       triclinic
_cell_length_a                    14.883121
_cell_length_b                    15.047885
_cell_length_c                    14.860174
_cell_angle_alpha                 109.015214
_cell_angle_beta                  109.72399
_cell_angle_gamma                 109.875395
_cell_volume                      2555.45915743

loop_
_atom_site_label
_atom_site_type_symbol
_atom_type_description
_atom_site_fract_x
_atom_site_fract_y
_atom_site_fract_z
_atom_type_partial_charge
C1    C     C_R   0.247267 0.061514 0.971659 -0.123342
C2    C     C_R   0.802878 0.001302 0.093912 -0.126373
C3    C     C_R   0.775258 0.324169 0.326258 0.040809
C4    C     C_R   0.131959 0.696412 0.697263 0.045834
C5    C     C_R   0.500540 0.934403 0.302653 0.051315
C6    C     C_R   0.500371 0.948473 0.674791 0.039135
C7    C     C_R   0.496335 0.316399 0.971105 0.061114
C8    C     C_R   0.500963 0.703760 0.073432 0.065655
C9    C     C_R   0.189047 0.212061 0.663891 0.099597
C10   C     C_R   0.815892 0.830415 0.434704 0.085909
C11   C     C_R   0.288762 0.294201 0.762431 -0.196603
C12   C     C_R   0.711248 0.752994 0.340114 -0.196165
C13   C     C_R   0.290530 0.332191 0.863237 0.102721
C14   C     C_R   0.702023 0.706049 0.236443 0.103853
C15   C     C_R   0.191385 0.288705 0.864449 -0.192388
C16   C     C_R   0.797869 0.739723 0.227969 -0.187430
C17   C     C_R   0.092361 0.207379 0.766709 -0.139157
C18   C     C_R   0.901065 0.819627 0.321385 -0.152661
C19   C     C_R   0.091071 0.169436 0.666833 -0.121287
C20   C     C_R   0.910231 0.863948 0.424626 -0.115134
C21   C     C_R   0.397172 0.515550 0.021354 -0.230677
C22   C     C_R   0.592492 0.512573 0.096250 -0.232997
C23   C     C_R   0.748623 0.221719 0.314937 -0.123406
C24   C     C_R   0.194954 0.789999 0.699206 -0.141456
C25   C     C_R   0.498163 0.613647 0.092164 0.050758
C26   C     C_R   0.494892 0.418179 0.005418 0.060718
C27   C     C_R   0.595855 0.610972 0.140071 0.036390
C28   C     C_R   0.395216 0.420403 0.966760 0.038306
C29   C     C_R   0.868555 0.525578 0.429345 -0.165554
C30   C     C_R   0.965537 0.521000 0.623051 -0.168089
C31   C     C_R   0.960539 0.619340 0.522523 -0.170056
C32   C     C_R   0.874048 0.427289 0.529796 -0.165968
C33   C     C_R   0.016110 0.614073 0.616127 0.137367
C34   C     C_R   0.833672 0.426531 0.429552 0.139293
C35   C     C_R   0.601548 0.945685 0.572936 -0.179799
C36   C     C_R   0.401367 0.839318 0.377262 -0.177842
C37   C     C_R   0.601509 0.945455 0.479893 -0.190077
C38   C     C_R   0.401394 0.841008 0.471027 -0.171101
C39   C     C_R   0.501171 0.901137 0.384656 0.148063
C40   C     C_R   0.501180 0.904756 0.571894 0.151789
C41   C     C_R   0.125482 0.051397 0.155622 -0.171910
C42   C     C_R   0.038693 0.157951 0.062961 -0.174706
C43   C     C_R   0.034605 0.054438 0.158297 -0.170327
C44   C     C_R   0.129970 0.155340 0.060889 -0.170151
C45   C     C_R   0.408608 0.904879 0.209048 -0.143034
C46   C     C_R   0.592658 0.026243 0.778175 -0.125287
C47   C     C_R   0.983809 0.097420 0.101195 0.145702
C48   C     C_R   0.164882 0.090754 0.095311 0.146856
C49   C     C_R   0.589709 0.307504 0.012802 -0.138750
C50   C     C_R   0.408947 0.704269 0.008876 -0.113450
C51   C     C_R   0.592019 0.996389 0.300598 -0.139928
C52   C     C_R   0.407685 0.933512 0.685249 -0.128275
C53   C     C_R   0.406139 0.214779 0.923303 -0.143986
C54   C     C_R   0.592403 0.793912 0.098037 -0.134274
C55   C     C_R   0.750687 0.313868 0.223366 -0.120667
C56   C     C_R   0.197272 0.698710 0.790644 -0.119202
C57   C     C_R   0.250603 0.971904 0.065599 -0.127160
C58   C     C_R   0.805076 0.095007 0.004917 -0.142171
C59   C     C_R   0.223052 0.047031 0.049986 0.040433
C60   C     C_R   0.868111 0.064275 0.066280 0.045320
H1    H     H_    0.229972 0.109178 0.935598 0.096987
H2    H     H_    0.828491 0.974843 0.152486 0.090316
H3    H     H_    0.364792 0.328456 0.760978 0.114972
H4    H     H_    0.638520 0.725461 0.348269 0.123009
H5    H     H_    0.191026 0.317635 0.941198 0.113695
H6    H     H_    0.792497 0.703202 0.148950 0.118922
H7    H     H_    0.016360 0.174006 0.768299 0.115115
H8    H     H_    0.974400 0.845233 0.314137 0.112723
H9    H     H_    0.319877 0.514930 0.991558 0.121857
H10   H     H_    0.667475 0.511040 0.134975 0.123896
H11   H     H_    0.833248 0.529508 0.355127 0.113068
H12   H     H_    0.001849 0.515898 0.696228 0.108093
H13   H     H_    0.993087 0.691977 0.516624 0.113701
H14   H     H_    0.843786 0.353786 0.534711 0.108885
H15   H     H_    0.680517 0.989118 0.647768 0.105886
H16   H     H_    0.322454 0.798692 0.303065 0.105295
H17   H     H_    0.680229 0.990006 0.487295 0.106046
H18   H     H_    0.322592 0.802071 0.465934 0.108131
H19   H     H_    0.155989 0.007898 0.190496 0.106284
H20   H     H_    0.005993 0.198322 0.024763 0.104602
H21   H     H_    0.758097 0.199365 0.378071 0.094038
H22   H     H_    0.165956 0.821871 0.647363 0.086349
H23   H     H_    0.998767 0.013209 0.195303 0.108388
H24   H     H_    0.164683 0.194320 0.021828 0.108791
H25   H     H_    0.324074 0.844142 0.175735 0.081795
H26   H     H_    0.678597 0.059091 0.801291 0.092731
H27   H     H_    0.674112 0.366585 0.043466 0.084762
H28   H     H_    0.323735 0.654494 0.984192 0.081974
H29   H     H_    0.676718 0.019684 0.351364 0.087631
H30   H     H_    0.321867 0.880178 0.621636 0.093522
H31   H     H_    0.320411 0.184988 0.871481 0.115893
H32   H     H_    0.678217 0.826158 0.153997 0.112311
H33   H     H_    0.764996 0.377643 0.202832 0.087470
H34   H     H_    0.171826 0.646861 0.823628 0.084247
H35   H     H_    0.241219 0.939675 0.118904 0.092882
H36   H     H_    0.833934 0.155891 0.982344 0.084907
H37   H     H_    0.013602 0.107136 0.591476 0.109618
H38   H     H_    0.991040 0.922923 0.497133 0.102743
N1    N     N_R   0.293810 0.002730 0.945950 -0.040414
N2    N     N_R   0.706190 0.997270 0.054050 -0.039158
N3    N     N_R   0.706160 0.152130 0.208910 -0.040920
N4    N     N_R   0.293840 0.847870 0.791090 -0.038771
N5    N     N_R   0.443140 0.945920 0.152090 -0.036243
N6    N     N_R   0.556860 0.054080 0.847910 -0.040849
N7    N     N_R   0.556830 0.208940 0.002760 -0.037002
N8    N     N_R   0.443170 0.791060 0.997240 -0.040500
N9    N     N_R   0.556790 0.002750 0.208910 -0.036811
N10   N     N_R   0.443210 0.997250 0.791090 -0.040659
N11   N     N_R   0.443180 0.152110 0.945950 -0.039696
N12   N     N_R   0.556820 0.847890 0.054050 -0.041555
N13   N     N_R   0.706170 0.208950 0.152090 -0.040294
N14   N     N_R   0.293830 0.791050 0.847910 -0.039702
N15   N     N_R   0.293800 0.945910 0.002760 -0.040698
N16   N     N_R   0.706200 0.054090 0.997240 -0.038542
Ni1   Ni    Ni4+2 0.369690 0.999990 0.869700 0.212725
Ni2   Ni    Ni4+2 0.630310 0.000010 0.130300 0.211813
Ni3   Ni    Ni4+2 0.369670 0.869670 0.000000 0.207078
Ni4   Ni    Ni4+2 0.630330 0.130330 0.000000 0.210885
N17   N     N_3   0.185516 0.172085 0.560209 -0.215852
H39   H     H_    0.164070 0.090440 0.531570 0.087041
H40   H     H_    0.264179 0.213319 0.571194 0.104358
N18   N     N_3   0.828099 0.871842 0.541987 -0.226727
H41   H     H_    0.781838 0.910394 0.544525 0.098104
H42   H     H_    0.794293 0.805699 0.553093 0.114753

loop_
_geom_bond_atom_site_label_1
_geom_bond_atom_site_label_2
_ccdc_geom_bond_type
C38   C40   A    
C42   H20   S    
C8    C50   A    
C43   H23   S    
C49   H27   S    
N4    N14   A    
N2    Ni2   S    
C55   H33   S    
C1    N1    A    
C19   H37   S    
C56   H34   S    
C35   H15   S    
C7    C26   S    
C21   C25   A    
N13   Ni4   S    
N10   Ni1   S    
C35   C37   A    
C11   H3    S    
C1    C59   A    
N1    Ni1   S    
N14   Ni3   S    
C4    C24   A    
C2    C60   A    
C31   H13   S    
C58   C60   A    
C15   H5    S    
C54   N12   A    
C24   H22   S    
C58   H36   S    
N4    Ni1   S    
C45   N5    A    
C47   C60   S    
C3    C23   A    
C9    C19   A    
C10   C20   A    
C53   H31   S    
C31   C33   A    
C13   C28   S    
C14   C27   S    
C36   H16   S    
C18   C20   A    
C50   H28   S    
C2    N2    A    
C4    C56   A    
C46   H26   S    
C8    C25   S    
C41   C43   A    
C6    C46   A    
N5    Ni3   S    
C42   C44   A    
N6    Ni4   S    
N17   H40   S    
C17   H7    S    
N2    N16   A    
C7    C49   A    
C52   H30   S    
C8    C54   A    
C57   N15   A    
C38   H18   S    
C3    C34   S    
C44   H24   S    
C5    C45   A    
C29   C34   A    
C21   H9    S    
C32   C34   A    
C45   H25   S    
C54   H32   S    
C24   N4    A    
C30   H12   S    
C29   C31   A    
C20   H38   S    
C9    C11   A    
N16   Ni4   S    
C10   C12   A    
N15   Ni3   S    
C51   N9    A    
C21   C28   A    
C12   C14   A    
C22   C27   A    
C13   C15   A    
N8    Ni3   S    
C57   H35   S    
C9    N17   S    
C14   C16   A    
N7    Ni4   S    
C16   H6    S    
C7    C53   A    
N18   H42   S    
N12   Ni2   S    
N6    N10   A    
C48   C59   S    
C58   N16   A    
C41   H19   S    
N8    N12   A    
C53   N11   A    
C15   C17   A    
N7    N11   A    
C4    C33   S    
C32   H14   S    
C23   H21   S    
C30   C33   A    
C55   N13   A    
C26   C28   A    
C36   C39   A    
C43   C47   A    
C10   N18   S    
C1    H1    S    
N1    N15   A    
C49   N7    A    
N17   H39   S    
C25   C27   A    
C3    C55   A    
C5    C39   S    
C35   C40   A    
C37   C39   A    
C51   H29   S    
C30   C32   A    
C11   C13   A    
C23   N3    A    
C46   N6    A    
C12   H4    S    
N3    N13   A    
C36   C38   A    
C17   C19   A    
C41   C48   A    
C56   N14   A    
C6    C40   S    
C42   C47   A    
N9    Ni2   S    
C57   C59   A    
N11   Ni1   S    
C2    H2    S    
C37   H17   S    
C52   N10   A    
C16   C18   A    
C22   C26   A    
C50   N8    A    
N3    Ni2   S    
C5    C51   A    
N5    N9    A    
C6    C52   A    
N18   H41   S    
C18   H8    S    
C22   H10   S    
C44   C48   A    
C29   H11   S    
