data_mof_unit_9731.cif
_audit_creation_date              2013-03-05T15:52:31-0500
_audit_creation_method            fapswitch 2.2
_symmetry_space_group_name_H-M    P1
_symmetry_Int_Tables_number       1
_space_group_crystal_system       triclinic
_cell_length_a                    27.844181
_cell_length_b                    10.824939
_cell_length_c                    9.570422
_cell_angle_alpha                 89.956605
_cell_angle_beta                  89.756324
_cell_angle_gamma                 92.450801
_cell_volume                      2881.9699434

loop_
_atom_site_label
_atom_site_type_symbol
_atom_site_description
_atom_site_fract_x
_atom_site_fract_y
_atom_site_fract_z
_atom_type_partial_charge
O1    O     O_R   0.500000 0.319640 0.618810 -0.601453
O2    O     O_R   0.500000 0.319660 0.381240 -0.578698
C1    C     C_R   0.503208 0.262515 0.500731 0.798906
O3    O     O_R   0.430260 0.500010 0.618770 -0.524661
O4    O     O_R   0.430270 0.500030 0.381200 -0.536590
C2    C     C_R   0.407414 0.499304 0.500278 0.876869
Cu1   Cu    Cu3+1 0.500000 0.499990 0.640660 0.978715
Cu2   Cu    Cu3+1 0.500000 0.500010 0.359340 0.990700
O5    O     O_R   0.500000 0.680340 0.618760 -0.564706
O6    O     O_R   0.500000 0.680360 0.381190 -0.615323
O7    O     O_R   0.569730 0.499970 0.618800 -0.624521
O8    O     O_R   0.569740 0.499990 0.381230 -0.537457
C3    C     C_R   0.495939 0.737007 0.500736 0.776288
C4    C     C_R   0.592611 0.500876 0.499603 0.812752
C5    C     C_R   0.175522 0.390533 0.514935 0.616315
O9    O     O_2   0.198994 0.285175 0.532611 -0.437151
N1    N     N_R   0.201601 0.499394 0.499970 -0.479383
C6    C     C_R   0.180035 0.609191 0.482929 0.588579
C7    C     C_R   0.278724 0.545019 0.615424 -0.199664
C8    C     C_R   0.329174 0.545570 0.617107 0.309861
C9    C     C_R   0.327992 0.450076 0.385147 0.331706
C10   C     C_R   0.277562 0.450916 0.386471 -0.198608
C11   C     C_R   0.253119 0.498287 0.500736 0.252066
C12   C     C_R   0.101620 0.501243 0.495486 -0.200644
C13   C     C_R   0.124776 0.388293 0.512034 -0.094191
C14   C     C_R   0.096984 0.276375 0.522842 0.348668
C15   C     C_R   0.129473 0.613300 0.480838 -0.039454
C16   C     C_R   0.354167 0.498333 0.500899 -0.126918
H1    H     H_    0.257059 0.414646 0.298541 0.152773
C17   C     C_R   0.645838 0.503488 0.499309 -0.076476
C18   C     C_R   0.972308 0.396975 0.534411 0.096374
C19   C     C_R   0.976772 0.613832 0.459149 -0.020514
C20   C     C_R   0.949236 0.506444 0.497552 0.050313
C21   C     C_R   0.944172 0.298744 0.593908 -0.116282
C22   C     C_R   0.894428 0.302385 0.600897 -0.154381
C23   C     C_R   0.871018 0.405469 0.551779 -0.004552
C24   C     C_R   0.898284 0.508726 0.500748 -0.094755
C25   C     C_R   0.874659 0.614035 0.453780 -0.136565
C26   C     C_R   0.824016 0.614139 0.464830 0.555559
N2    N     N_R   0.798423 0.511014 0.510287 -0.459839
C27   C     C_R   0.820769 0.408075 0.554071 0.558107
C28   C     C_R   0.720404 0.508467 0.631613 -0.081481
C29   C     C_R   0.670365 0.505715 0.627778 -0.272992
C30   C     C_R   0.672660 0.504629 0.373065 0.397724
C31   C     C_R   0.723129 0.507821 0.378899 -0.198134
C32   C     C_R   0.746886 0.509489 0.507290 0.308381
O10   O     O_2   0.794344 0.308128 0.598615 -0.517616
C33   C     C_R   0.022902 0.391091 0.516493 -0.022317
C34   C     C_R   0.050664 0.502424 0.495148 0.005348
C35   C     C_R   0.027618 0.614799 0.471157 0.064274
C36   C     C_R   0.046319 0.277385 0.513155 0.268177
H2    H     H_    0.960131 0.219898 0.641359 0.204062
O11   O     O_2   0.207780 0.713573 0.466965 -0.439937
C37   C     C_R   0.106284 0.725980 0.465494 0.454022
C38   C     C_R   0.952565 0.716131 0.407402 -0.195927
C39   C     C_R   0.902627 0.715588 0.399597 0.434649
O12   O     O_2   0.800336 0.716807 0.434286 -0.491060
C40   C     C_R   0.056022 0.725276 0.461178 -0.301931
H3    H     H_    0.971742 0.795744 0.363256 0.174408
H4    H     H_    0.744211 0.508159 0.283470 0.136756
H5    H     H_    0.039736 0.813701 0.454937 0.136349
H6    H     H_    0.499547 0.111335 0.278444 0.206618
C41   C     C_R   0.524450 0.113053 0.758112 -0.252328
C42   C     C_R   0.516685 0.051269 0.885877 0.382135
C43   C     C_R   0.489436 0.940429 0.887548 -0.124180
C44   C     C_R   0.474042 0.884988 0.762907 0.348366
C45   C     C_R   0.489783 0.937121 0.632554 -0.023556
C46   C     C_R   0.506836 0.061200 0.631628 0.027800
C47   C     C_R   0.505600 0.127690 0.503713 -0.080222
C48   C     C_R   0.499757 0.063329 0.377694 -0.153601
C49   C     C_R   0.495070 0.935830 0.377654 -0.170713
C50   C     C_R   0.490917 0.871024 0.504091 -0.110721
H7    H     H_    0.447078 0.356605 0.130176 0.167210
C51   C     C_R   0.562563 0.667539 0.143021 -0.263082
C52   C     C_R   0.592753 0.752903 0.070999 0.321616
C53   C     C_R   0.592651 0.752230 0.925091 0.375167
C54   C     C_R   0.562707 0.667172 0.855021 -0.246327
H8    H     H_    0.566275 0.672166 0.744953 0.235933
C55   C     C_R   0.530768 0.582497 0.924813 0.146783
C56   C     C_R   0.530723 0.582577 0.074191 0.168275
N3    N     N_R   0.500460 0.501210 0.147910 -0.184240
C57   C     C_R   0.470887 0.421196 0.074409 -0.008777
H9    H     H_    0.447075 0.356748 0.871133 0.144317
C58   C     C_R   0.470887 0.421268 0.926307 -0.010084
N4    N     N_R   0.500480 0.501290 0.852040 -0.173106
O13   O     O_3   0.352141 0.400471 0.273359 -0.713326
H10   H     H_    0.328553 0.371027 0.202149 0.331671
H11   H     H_    0.259116 0.581267 0.703264 0.153635
O14   O     O_3   0.133039 0.836360 0.455536 -0.639819
H12   H     H_    0.111356 0.905752 0.442731 0.331597
O15   O     O_3   0.649331 0.502120 0.245882 -0.715120
H13   H     H_    0.673445 0.504721 0.169243 0.326131
O16   O     O_3   0.882845 0.815289 0.335644 -0.667996
H14   H     H_    0.858704 0.781927 0.268204 0.353987
H15   H     H_    0.545776 0.198821 0.758530 0.170325
O17   O     O_3   0.533183 0.099699 0.010873 -0.733692
H16   H     H_    0.550849 0.179596 0.992510 0.331338
H17   H     H_    0.479549 0.897723 0.986579 0.164349
O18   O     O_3   0.440295 0.788293 0.773058 -0.665768
H18   H     H_    0.422877 0.781582 0.683054 0.345725
H19   H     H_    0.494603 0.888151 0.278128 0.176873
H20   H     H_    0.565885 0.670773 0.252897 0.218809
O19   O     O_3   0.622905 0.836324 0.141194 -0.702031
H21   H     H_    0.618399 0.825659 0.243386 0.337566
O20   O     O_3   0.621469 0.832629 0.845795 -0.708619
H22   H     H_    0.640305 0.889383 0.907747 0.388229
O21   O     O_3   0.119658 0.166508 0.541829 -0.659506
H23   H     H_    0.097573 0.107649 0.592505 0.329387
H24   H     H_    0.650884 0.505309 0.725996 0.185408
H25   H     H_    0.738660 0.510013 0.731330 0.156998
H26   H     H_    0.874390 0.223984 0.645875 0.200729
O22   O     O_3   0.019659 0.169421 0.485698 -0.745300
H27   H     H_    0.040299 0.109499 0.438873 0.336135
O23   O     O_3   0.354526 0.593596 0.729888 -0.686034
H28   H     H_    0.331662 0.622785 0.801107 0.340521

loop_
_geom_bond_atom_site_label_1
_geom_bond_atom_site_label_2
_geom_bond_distance
_ccdc_geom_bond_type
C38   C39   1.392553 A    
C31   H4    1.083495 S    
C53   O20   1.382518 S    
C10   H1    1.083352 S    
C38   H3    1.079119 S    
C7    C8    1.404655 A    
C12   C15   1.418051 A    
O23   H28   0.991746 S    
C15   C37   1.412145 A    
Cu1   Cu2   2.692351 S    
Cu1   N4    2.023153 S    
C31   C32   1.397750 A    
Cu1   O7    1.951938 S    
O16   H14   0.991019 S    
C23   C24   1.409860 A    
C1    C47   1.464095 S    
C43   H17   1.083510 S    
C21   C22   1.388660 A    
C25   C26   1.413684 A    
O7    C4    1.304078 A    
C5    C13   1.412540 A    
C5    O9    1.349395 S    
C26   O12   1.348761 S    
C41   H15   1.080504 S    
H6    C48   1.082539 S    
Cu1   O5    1.963338 S    
C45   C50   1.423872 A    
C28   C32   1.396912 A    
O5    C3    1.292630 A    
C6    O11   1.349431 S    
C41   C46   1.415439 A    
C33   C36   1.417646 A    
C2    C16   1.482174 S    
O18   H18   0.991524 S    
C46   C47   1.420921 A    
O21   H23   0.991363 S    
C18   C20   1.416954 A    
C12   C13   1.415531 A    
C48   C49   1.380753 A    
C19   C38   1.411273 A    
C51   H20   1.056486 S    
C40   H5    1.078267 S    
C44   C45   1.428300 A    
C49   H19   1.083561 S    
C51   C56   1.414890 A    
C9    C10   1.404609 A    
C52   O19   1.382932 S    
C17   C30   1.417476 A    
C23   C27   1.400719 A    
C4    C17   1.481096 S    
O3    Cu1   1.954019 S    
O22   H27   0.990940 S    
N3    C57   1.366717 A    
C54   C55   1.414742 A    
C39   O16   1.376789 S    
C51   C52   1.401170 A    
C41   C42   1.404756 A    
Cu2   N3    2.023489 S    
C35   C40   1.408223 A    
C58   N4    1.366585 A    
C42   O17   1.379096 S    
C37   O14   1.383795 S    
O3    C2    1.302487 A    
C7    H11   1.083353 S    
O15   H13   0.991846 S    
O13   H10   0.991787 S    
C8    C16   1.416823 A    
C13   C14   1.412891 A    
C54   H8    1.058776 S    
C20   C24   1.420198 A    
C45   C46   1.405339 A    
O1    C1    1.293190 A    
C22   C23   1.398229 A    
C44   O18   1.379483 S    
C7    C11   1.394840 A    
C52   C53   1.396441 A    
C24   C25   1.414266 A    
H9    C58   1.081740 S    
C36   O22   1.383437 S    
Cu2   O8    1.954013 S    
O17   H16   0.991726 S    
N1    C6    1.364328 A    
C27   O10   1.349885 S    
C18   C21   1.411635 A    
N1    C11   1.435094 S    
C53   C54   1.390210 A    
C19   C35   1.420510 A    
C30   O15   1.381845 S    
N2    C27   1.365733 A    
C9    C16   1.416494 A    
O8    C4    1.301806 A    
C43   C44   1.396517 A    
C57   C58   1.417398 A    
C18   C33   1.422557 A    
C17   C29   1.408693 A    
C28   C29   1.392988 A    
N2    C32   1.434778 S    
H7    C57   1.081666 S    
C55   N4    1.382589 A    
C22   H26   1.083403 S    
C30   C31   1.405549 A    
C37   C40   1.399982 A    
C12   C34   1.419469 A    
C5    N1    1.364606 A    
C9    O13   1.382288 S    
C33   C34   1.417847 A    
O1    Cu1   1.963603 S    
O2    Cu2   1.963338 S    
C6    C15   1.410703 A    
C56   N3    1.383530 A    
O6    C3    1.305248 A    
C14   O21   1.382359 S    
O4    Cu2   1.951941 S    
C3    C50   1.463759 S    
O20   H22   0.989798 S    
C21   H2    1.079691 S    
C42   C43   1.391960 A    
O2    C1    1.304963 A    
C28   H25   1.082979 S    
C49   C50   1.400111 A    
C14   C36   1.414651 A    
C19   C20   1.412437 A    
C8    O23   1.381873 S    
O4    C2    1.302774 A    
C47   C48   1.399890 A    
C55   C56   1.429610 A    
C26   N2    1.368158 A    
C25   C39   1.416439 A    
Cu2   O6    1.963603 S    
C34   C35   1.418392 A    
O19   H21   0.991529 S    
C10   C11   1.395138 A    
C29   H24   1.083180 S    
O14   H12   0.991485 S    
