data_mof_unit_37138.cif
_audit_creation_date              2012-12-10T17:04:28-0500
_audit_creation_method            fapswitch 2.2
_symmetry_space_group_name_H-M    P1
_symmetry_Int_Tables_number       1
_space_group_crystal_system       triclinic
_cell_length_a                    14.969235
_cell_length_b                    10.656819
_cell_length_c                    10.042968
_cell_angle_alpha                 89.991669
_cell_angle_beta                  90.165194
_cell_angle_gamma                 90.082865
_cell_volume                      1602.09037484

loop_
_atom_site_label
_atom_site_type_symbol
_atom_type_description
_atom_site_fract_x
_atom_site_fract_y
_atom_site_fract_z
_atom_type_partial_charge
C1    C     C_R   0.505672 0.262323 0.499737 0.928187
C2    C     C_R   0.187707 0.390324 0.454890 0.108594
C3    C     C_R   0.231913 0.499250 0.499825 -0.098963
C4    C     C_R   0.327367 0.500376 0.499943 0.902007
C5    C     C_R   0.186023 0.606713 0.545191 -0.020393
C6    C     C_2   0.564208 0.929689 0.415896 0.222587
C7    C     C_2   0.505489 0.870066 0.495074 -0.384249
C8    C     C_2   0.549904 0.063138 0.393929 0.205296
C9    C     C_2   0.529102 0.132037 0.501966 -0.408454
C10   C     C_2   0.547021 0.578110 0.926933 0.215263
C11   C     C_2   0.557133 0.561982 0.075431 -0.145285
C12   C     C_R   0.905165 0.596709 0.548690 0.136596
C13   C     C_R   0.502056 0.737376 0.499605 0.934007
C14   C     C_R   0.672640 0.498216 0.500197 0.885451
C15   C     C_R   0.813079 0.594555 0.549934 -0.331618
C16   C     C_R   0.767634 0.490997 0.500680 -0.050942
C17   C     C_R   0.812339 0.384509 0.451582 0.134601
C18   C     C_R   0.906248 0.386648 0.448773 0.111112
C19   C     C_R   0.952702 0.493108 0.498154 0.036632
C20   C     C_3   0.550717 0.111621 0.252071 -0.820572
C21   C     C_3   0.593441 0.689645 0.866727 -0.787949
C22   C     C_3   0.761252 0.268541 0.406999 -0.919990
C23   C     C_R   0.954846 0.285090 0.398194 -0.224331
C24   C     C_3   0.239279 0.272516 0.415903 -0.906482
C25   C     C_3   0.237761 0.723830 0.589485 -0.402561
C26   C     C_3   0.247819 0.728454 0.741753 -0.305358
C27   C     C_3   0.301936 0.842667 0.785703 -0.892819
C28   C     C_3   0.641700 0.864430 0.348542 -0.864099
C29   C     C_R   0.047017 0.286893 0.399054 -0.212525
C30   C     C_R   0.094216 0.390574 0.450005 0.107558
C31   C     C_R   0.046608 0.495897 0.498079 -0.009248
C32   C     C_R   0.092110 0.603653 0.546974 0.096602
C33   C     C_R   0.042117 0.705744 0.595859 -0.218348
C34   C     C_R   0.949879 0.701851 0.596928 -0.209024
H1    H     H_    0.776100 0.674557 0.587780 0.139059
H2    H     H_    0.913355 0.781664 0.635628 0.144892
H3    H     H_    0.567228 0.036050 0.180215 0.224923
H4    H     H_    0.483493 0.146922 0.224077 0.244453
H5    H     H_    0.601373 0.186868 0.240528 0.246879
H6    H     H_    0.635678 0.738910 0.941339 0.186306
H7    H     H_    0.637802 0.660943 0.784448 0.261454
H8    H     H_    0.543087 0.758333 0.831605 0.241861
H9    H     H_    0.771785 0.252656 0.298931 0.239878
H10   H     H_    0.784513 0.185418 0.463981 0.236698
H11   H     H_    0.688648 0.274847 0.424337 0.247043
H12   H     H_    0.452160 0.919026 0.546542 0.111001
H13   H     H_    0.311929 0.277076 0.435574 0.242141
H14   H     H_    0.214597 0.191167 0.474410 0.228968
H15   H     H_    0.230182 0.253772 0.307961 0.239671
H16   H     H_    0.370761 0.837581 0.745262 0.266677
H17   H     H_    0.269469 0.930393 0.750711 0.257400
H18   H     H_    0.306154 0.844928 0.896080 0.251795
H19   H     H_    0.181244 0.732084 0.789957 0.213584
H20   H     H_    0.282093 0.642488 0.777727 0.246152
H21   H     H_    0.305054 0.727854 0.543752 0.191715
H22   H     H_    0.205183 0.810212 0.551388 0.186825
H23   H     H_    0.533547 0.090519 0.600820 0.139181
H24   H     H_    0.690215 0.934036 0.309199 0.232457
H25   H     H_    0.677791 0.804220 0.421094 0.220499
H26   H     H_    0.617423 0.806553 0.264091 0.247828
H27   H     H_    0.475228 0.422675 0.897368 0.138300
H28   H     H_    0.611239 0.610722 0.125641 0.165663
H29   H     H_    0.445529 0.464782 0.101193 0.159626
H30   H     H_    0.922633 0.202717 0.357321 0.162086
H31   H     H_    0.080318 0.205514 0.358552 0.160582
H32   H     H_    0.072625 0.789750 0.635148 0.152228
N1    N     N_2   0.500970 0.501330 0.852150 -0.192491
N2    N     N_2   0.500990 0.501360 0.147810 -0.208776
O1    O     O_R   0.499990 0.319060 0.613040 -0.615425
O2    O     O_R   0.500010 0.319100 0.386900 -0.606365
O3    O     O_R   0.367830 0.499950 0.613080 -0.617639
O4    O     O_R   0.367860 0.499990 0.386940 -0.612253
O5    O     O_R   0.499990 0.680900 0.613100 -0.623880
O6    O     O_R   0.500010 0.680940 0.386960 -0.595981
O7    O     O_R   0.632140 0.500010 0.613060 -0.620061
O8    O     O_R   0.632170 0.500050 0.386920 -0.612794
Zn1   Zn    Zn3+2 0.499980 0.499970 0.650990 0.931780
Zn2   Zn    Zn3+2 0.500020 0.500030 0.349010 0.934778

loop_
_geom_bond_atom_site_label_1
_geom_bond_atom_site_label_2
_ccdc_geom_bond_type
O2    Zn2   S    
O1    Zn1   S    
N1    Zn1   S    
C25   H22   S    
C4    O4    A    
C11   H28   S    
C19   C31   A    
C10   N1    D    
C27   H18   S    
C26   C27   S    
C8    C20   S    
C23   C29   A    
O8    Zn2   S    
C30   C31   A    
C15   C16   A    
C18   C19   A    
O4    Zn2   S    
C6    C28   S    
C31   C32   A    
C8    C9    D    
C29   H31   S    
C9    H23   S    
C27   H16   S    
C5    C32   A    
C26   H20   S    
C15   H1    S    
C27   H17   S    
C33   H32   S    
C33   C34   A    
C28   H26   S    
C10   C21   S    
N2    Zn2   S    
C22   H10   S    
C18   C23   A    
C24   H14   S    
C7    H12   S    
C1    C9    S    
C21   H7    S    
C20   H5    S    
C16   C17   A    
C6    C8    S    
C25   C26   S    
C1    O1    A    
C14   O8    A    
C29   C30   A    
C20   H4    S    
H27   N1    S    
C22   H9    S    
C12   C15   A    
C17   C18   A    
C1    O2    A    
O7    Zn1   S    
C5    C25   S    
C23   H30   S    
C13   O5    A    
C2    C24   S    
C14   C16   S    
C12   C34   A    
C3    C4    S    
C26   H19   S    
O3    Zn1   S    
C11   N2    D    
C28   H25   S    
C24   H15   S    
H29   N2    S    
C24   H13   S    
C25   H21   S    
C3    C5    A    
C6    C7    D    
C28   H24   S    
C17   C22   S    
C2    C30   A    
C14   O7    A    
C2    C3    A    
C32   C33   A    
C20   H3    S    
C21   H6    S    
C12   C19   A    
C34   H2    S    
C10   C11   S    
C21   H8    S    
C7    C13   S    
C22   H11   S    
C13   O6    A    
O6    Zn2   S    
O5    Zn1   S    
C4    O3    A    
