data_mof_unit_48498.cif
_audit_creation_date              2012-12-11T15:10:52-0500
_audit_creation_method            fapswitch 2.2
_symmetry_space_group_name_H-M    P1
_symmetry_Int_Tables_number       1
_space_group_crystal_system       triclinic
_cell_length_a                    21.13179
_cell_length_b                    7.238368
_cell_length_c                    18.283676
_cell_angle_alpha                 90.005753
_cell_angle_beta                  93.402712
_cell_angle_gamma                 90.001838
_cell_volume                      2791.73461166

loop_
_atom_site_label
_atom_site_type_symbol
_atom_type_description
_atom_site_fract_x
_atom_site_fract_y
_atom_site_fract_z
_atom_type_partial_charge
O1    O     O_R   0.448880 0.506250 0.415280 -0.532286
O2    O     O_R   0.551120 0.006250 0.584720 -0.532338
O3    O     O_R   0.434830 0.174000 0.557310 -0.526083
O4    O     O_R   0.565170 0.674000 0.442690 -0.526054
C1    C     C_R   0.417139 0.344535 0.579858 0.774894
C2    C     C_R   0.582861 0.844529 0.420141 0.774931
O5    O     O_R   0.441680 0.176440 0.414130 -0.533238
O6    O     O_R   0.558320 0.676440 0.585870 -0.533209
O7    O     O_R   0.558020 0.007570 0.440520 -0.515421
O8    O     O_R   0.441980 0.507570 0.559480 -0.515371
C3    C     C_R   0.427795 0.344990 0.388519 0.908176
C4    C     C_R   0.572203 0.845009 0.611482 0.908206
O9    O     O_3   0.538160 0.339670 0.508820 -0.378972
O10   O     O_3   0.461840 0.839670 0.491180 -0.378936
V1    V     V_3+5 0.492920 0.064260 0.498360 1.576095
V2    V     V_3+5 0.507080 0.564260 0.501640 1.576175
C5    C     C_R   0.878669 0.014512 0.687943 0.058576
C6    C     C_R   0.121385 0.515178 0.312020 0.058604
C7    C     C_R   0.888553 0.945786 0.818538 -0.325718
C8    C     C_R   0.111451 0.445888 0.181465 -0.325724
C9    C     C_R   0.583417 0.842001 0.745873 0.505630
C10   C     C_R   0.416563 0.341537 0.254129 0.505640
C11   C     C_R   0.617303 0.871026 0.812215 -0.242063
C12   C     C_R   0.382676 0.370375 0.187776 -0.242071
C13   C     C_R   0.682274 0.904642 0.814885 0.691102
C14   C     C_R   0.317715 0.404155 0.185099 0.691088
C15   C     C_R   0.716494 0.897187 0.750392 -0.084136
C16   C     C_R   0.283504 0.397071 0.249604 -0.084144
C17   C     C_R   0.680560 0.883701 0.681560 -0.299094
C18   C     C_R   0.319444 0.383781 0.318437 -0.299100
C19   C     C_R   0.784353 0.917619 0.751729 -0.102741
C20   C     C_R   0.215652 0.417679 0.248270 -0.102749
C21   C     C_R   0.813329 0.962219 0.685341 -0.255122
C22   C     C_R   0.186702 0.462651 0.314639 -0.255124
C23   C     C_R   0.776241 0.951482 0.618450 0.614437
C24   C     C_R   0.223793 0.452051 0.381530 0.614422
C25   C     C_R   0.712241 0.906103 0.616641 0.561858
C26   C     C_R   0.287778 0.406513 0.383351 0.561868
C27   C     C_R   0.824761 0.891301 0.816273 0.622745
C28   C     C_R   0.175222 0.391200 0.183750 0.622756
C29   C     C_R   0.914449 0.011940 0.755233 0.520744
C30   C     C_R   0.085594 0.512422 0.244739 0.520791
C31   C     C_R   0.613509 0.853982 0.679920 -0.188515
C32   C     C_R   0.386485 0.353886 0.320082 -0.188516
H1    H     H_    0.592354 0.875073 0.862241 0.196866
H2    H     H_    0.407618 0.374135 0.137742 0.196867
C33   C     C_1   0.864602 0.938944 0.132191 -0.119386
C34   C     C_1   0.135397 0.438929 0.867809 -0.119388
C35   C     C_1   0.821774 0.924871 0.175980 0.053311
C36   C     C_1   0.178225 0.424858 0.824020 0.053329
C37   C     C_1   0.771216 0.905725 0.228105 0.046647
C38   C     C_1   0.228783 0.405721 0.771894 0.046659
C39   C     C_1   0.728631 0.889071 0.272074 0.051482
C40   C     C_1   0.271369 0.389075 0.727926 0.051486
C41   C     C_1   0.678034 0.869926 0.324146 0.064753
C42   C     C_1   0.321967 0.369938 0.675854 0.064750
C43   C     C_1   0.635148 0.855864 0.367854 -0.084026
C44   C     C_1   0.364853 0.355879 0.632146 -0.084043
O11   O     O_R   0.058070 0.289240 0.940580 -0.513753
O12   O     O_R   0.941930 0.789240 0.059420 -0.513738
O13   O     O_R   0.058330 0.616740 0.085880 -0.527660
O14   O     O_R   0.941670 0.116740 0.914120 -0.527711
C45   C     C_R   0.071882 0.448958 0.111866 0.856362
C46   C     C_R   0.928117 0.948938 0.888137 0.856437
O15   O     O_R   0.065180 0.619040 0.942700 -0.531343
O16   O     O_R   0.934820 0.119040 0.057300 -0.531363
O17   O     O_R   0.948870 0.787780 0.915270 -0.527573
O18   O     O_R   0.051130 0.287780 0.084730 -0.527525
C47   C     C_R   0.083170 0.450324 0.920177 0.722578
C48   C     C_R   0.916830 0.950330 0.079823 0.722661
O19   O     O_3   0.961870 0.453310 0.991210 -0.372475
O20   O     O_3   0.038130 0.953310 0.008790 -0.372426
V3    V     V_3+5 0.007070 0.728770 0.001630 1.584853
V4    V     V_3+5 0.992930 0.228770 0.998370 1.584785
F1    F     F_    0.976085 0.067352 0.759092 -0.688660
F2    F     F_    0.023981 0.568039 0.240862 -0.688656
F3    F     F_    0.801318 0.978533 0.552698 -0.654062
F4    F     F_    0.198726 0.479368 0.447272 -0.654054
C49   C     C_3   0.911067 0.078650 0.620786 -0.499071
H3    H     H_    0.913746 0.963096 0.581183 0.233929
H4    H     H_    0.884828 0.197237 0.595167 0.223536
H5    H     H_    0.960376 0.126397 0.633467 0.226861
C50   C     C_3   0.089033 0.579807 0.379142 -0.499075
H6    H     H_    0.086273 0.464446 0.418812 0.233950
H7    H     H_    0.115355 0.698344 0.404698 0.223493
H8    H     H_    0.039759 0.627820 0.366434 0.226839
F5    F     F_    0.804725 0.799263 0.875294 -0.624008
F6    F     F_    0.195217 0.298855 0.124775 -0.623983
F7    F     F_    0.519847 0.813873 0.745722 -0.672871
F8    F     F_    0.480122 0.313218 0.254282 -0.672878
F9    F     F_    0.708756 0.967186 0.879557 -0.608109
F10   F     F_    0.291243 0.466477 0.120395 -0.608118
F11   F     F_    0.681279 0.891344 0.549748 -0.689260
F12   F     F_    0.318743 0.391921 0.450247 -0.689232

loop_
_geom_bond_atom_site_label_1
_geom_bond_atom_site_label_2
_ccdc_geom_bond_type
C11   H1    S    
C15   C17   A    
O1    C3    A    
C27   F5    S    
C34   C47   S    
O2    C4    A    
C2    O7    A    
C33   C35   T    
C9    F7    S    
O5    C3    A    
C1    C44   S    
C23   C25   A    
C12   C14   A    
C4    C31   S    
C6    C30   A    
C8    C28   A    
O18   V4    S    
O16   V4    S    
O12   V3    S    
C5    C49   S    
O15   V3    S    
C18   C26   A    
O13   C45   A    
O14   C46   A    
O19   V4    S    
C9    C31   A    
C10   C32   A    
C42   C44   T    
C16   C18   A    
C35   C37   S    
C36   C38   S    
C19   C21   A    
O17   V3    S    
C34   C36   T    
O6    V2    S    
C17   C31   A    
C2    C43   S    
C18   C32   A    
C5    C21   A    
C38   C40   T    
C39   C41   S    
C40   C42   S    
C13   F9    S    
C15   C19   A    
C46   O17   A    
C16   C20   A    
O4    C2    A    
C49   H4    S    
O13   V3    S    
C23   F3    S    
C37   C39   T    
C20   C22   A    
O4    V2    S    
C33   C48   S    
C41   C43   T    
C29   F1    S    
C50   H6    S    
O12   C48   A    
C7    C46   S    
O6    C4    A    
C26   F12   S    
C6    C50   S    
C10   F8    S    
C25   F11   S    
C3    C32   S    
O1    V2    S    
O2    V1    S    
C6    C22   A    
O11   V4    S    
C7    C27   A    
O11   C47   A    
C50   H7    S    
C9    C11   A    
C10   C12   A    
C20   C28   A    
O3    V1    S    
C45   O18   A    
C14   C16   A    
O20   V3    S    
O3    C1    A    
C49   H5    S    
C8    C30   A    
C13   C15   A    
C30   F2    S    
C12   H2    S    
C28   F6    S    
C8    C45   S    
C24   C26   A    
O7    V1    S    
C1    O8    A    
O8    V2    S    
O16   C48   A    
O15   C47   A    
O5    V1    S    
C21   C23   A    
C19   C27   A    
C22   C24   A    
C11   C13   A    
C5    C29   A    
C49   H3    S    
C50   H8    S    
O9    V2    S    
C17   C25   A    
O10   V1    S    
O14   V4    S    
C24   F4    S    
C14   F10   S    
C7    C29   A    
