data_mof_unit_65903.cif
_audit_creation_date              2012-12-10T17:55:59-0500
_audit_creation_method            fapswitch 2.2
_symmetry_space_group_name_H-M    P1
_symmetry_Int_Tables_number       1
_space_group_crystal_system       triclinic
_cell_length_a                    18.331438
_cell_length_b                    18.424976
_cell_length_c                    25.971419
_cell_angle_alpha                 90.207308
_cell_angle_beta                  89.862522
_cell_angle_gamma                 89.964644
_cell_volume                      8771.92613416

loop_
_atom_site_label
_atom_site_type_symbol
_atom_type_description
_atom_site_fract_x
_atom_site_fract_y
_atom_site_fract_z
_atom_type_partial_charge
C1    C     C_R   0.140322 0.859939 0.249830 0.533053
C2    C     C_R   0.256897 0.808665 0.216156 0.372957
C3    C     C_2   0.075645 0.885756 0.943410 0.648105
C4    C     C_2   0.424094 0.614050 0.556578 0.648686
C5    C     C_2   0.425840 0.614640 0.444926 0.610570
C6    C     C_2   0.574116 0.385287 0.555068 0.609009
C7    C     C_2   0.575970 0.385937 0.443421 0.648126
C8    C     C_R   0.745327 0.806825 0.785844 0.383118
C9    C     C_R   0.745805 0.806219 0.213936 0.382393
C10   C     C_R   0.748444 0.301061 0.290106 0.377991
C11   C     C_R   0.756288 0.308043 0.715546 0.372265
C12   C     C_R   0.242422 0.309691 0.283134 0.384537
C13   C     C_R   0.242771 0.309223 0.716727 0.382410
C14   C     C_R   0.801781 0.247671 0.289412 -0.128003
C15   C     C_R   0.809096 0.254225 0.716067 -0.125821
C16   C     C_R   0.189612 0.255921 0.282668 -0.130126
C17   C     C_R   0.140106 0.859714 0.750236 0.535099
C18   C     C_R   0.189960 0.255438 0.717211 -0.129974
C19   C     C_R   0.302850 0.748736 0.788686 -0.128828
C20   C     C_R   0.309718 0.754866 0.216697 -0.128552
C21   C     C_R   0.692416 0.753140 0.785303 -0.129730
C22   C     C_R   0.692889 0.752519 0.214492 -0.126833
C23   C     C_R   0.803651 0.196205 0.249597 -0.025773
C24   C     C_R   0.803299 0.195857 0.750294 -0.020562
C25   C     C_R   0.196648 0.195959 0.249699 -0.022508
C26   C     C_R   0.196636 0.195925 0.750316 -0.021455
C27   C     C_R   0.303707 0.696268 0.749520 -0.026766
C28   C     C_R   0.859759 0.859885 0.249817 0.540248
C29   C     C_R   0.303352 0.695920 0.250370 -0.023219
C30   C     C_R   0.696646 0.695953 0.749717 -0.021893
C31   C     C_R   0.696611 0.695941 0.250309 -0.019230
C32   C     C_R   0.962618 0.055374 0.027563 0.009747
C33   C     C_R   0.961472 0.054467 0.973180 0.011800
C34   C     C_R   0.038545 0.945520 0.026822 0.012160
C35   C     C_R   0.037379 0.944600 0.972439 0.009957
C36   C     C_R   0.462486 0.555279 0.527557 0.009839
C37   C     C_R   0.461322 0.554347 0.473176 0.011655
C38   C     C_R   0.538675 0.445605 0.526822 0.012382
C39   C     C_R   0.859724 0.859816 0.750173 0.541453
C40   C     C_R   0.537534 0.444687 0.472440 0.010302
C41   C     C_R   0.998822 0.999263 0.945752 -0.026260
C42   C     C_R   0.001180 0.000715 0.054249 -0.025954
C43   C     C_R   0.498829 0.499245 0.445751 -0.026315
C44   C     C_R   0.501177 0.500714 0.554247 -0.025885
C45   C     C_R   0.859885 0.140250 0.249818 0.544944
C46   C     C_R   0.859669 0.140022 0.750114 0.536654
C47   C     C_R   0.140336 0.140100 0.249923 0.541684
C48   C     C_R   0.140294 0.140035 0.750090 0.536644
C49   C     C_R   0.359900 0.640269 0.749794 0.535232
C50   C     C_R   0.640311 0.359926 0.749814 0.536015
C51   C     C_R   0.359684 0.640041 0.250136 0.533020
C52   C     C_R   0.640311 0.640121 0.749905 0.551935
C53   C     C_R   0.640260 0.640065 0.250113 0.540905
C54   C     C_R   0.000236 0.999531 0.110995 0.543127
C55   C     C_R   0.999764 0.000447 0.889006 0.544020
C56   C     C_R   0.500236 0.499534 0.610994 0.542871
C57   C     C_R   0.499765 0.500432 0.389005 0.544219
C58   C     C_R   0.999740 0.000367 0.388441 0.581011
C59   C     C_R   0.996195 0.999795 0.611388 0.545405
C60   C     C_R   0.500256 0.500364 0.888438 0.580822
C61   C     C_R   0.640081 0.359688 0.250258 0.534668
C62   C     C_R   0.503779 0.499791 0.111375 0.545338
C63   C     C_2   0.965548 0.054922 0.526517 0.038028
C64   C     C_2   0.952043 0.042777 0.471141 0.036783
C65   C     C_2   0.534309 0.554889 0.026391 0.038402
C66   C     C_2   0.547878 0.542712 0.970988 0.036842
C67   C     C_2   0.978388 0.996602 0.556680 0.410841
C68   C     C_2   0.001142 0.002985 0.443943 0.431989
C69   C     C_2   0.521572 0.496578 0.056608 0.410805
C70   C     C_2   0.498811 0.502975 0.943940 0.432023
C71   C     C_R   0.751365 0.198718 0.210113 0.379389
C72   C     C_R   0.359700 0.359946 0.749877 0.536717
C73   C     C_R   0.743574 0.191774 0.784216 0.371924
C74   C     C_R   0.257586 0.190278 0.216917 0.385255
C75   C     C_R   0.257236 0.190744 0.783214 0.382874
C76   C     C_R   0.250463 0.697853 0.710647 0.381192
C77   C     C_R   0.243092 0.691299 0.283781 0.373275
C78   C     C_R   0.754869 0.692946 0.714406 0.384836
C79   C     C_R   0.754330 0.693604 0.285842 0.382156
C80   C     C_R   0.197150 0.751240 0.711356 -0.127363
C81   C     C_R   0.190272 0.745095 0.283238 -0.125786
C82   C     C_R   0.807785 0.746617 0.714956 -0.128225
C83   C     C_R   0.359658 0.359882 0.250108 0.541595
C84   C     C_R   0.807250 0.747287 0.285272 -0.127909
C85   C     C_R   0.698020 0.252086 0.210819 -0.127165
C86   C     C_R   0.690758 0.245571 0.783678 -0.126657
C87   C     C_R   0.310395 0.244047 0.217383 -0.128325
C88   C     C_R   0.310046 0.244526 0.782728 -0.127215
C89   C     C_R   0.196295 0.803710 0.750519 -0.027088
C90   C     C_R   0.196644 0.804049 0.249575 -0.022397
C91   C     C_R   0.803496 0.803869 0.750483 -0.022706
C92   C     C_R   0.803484 0.803921 0.249510 -0.020256
C93   C     C_R   0.696210 0.303623 0.250586 -0.026394
C94   C     C_R   0.249537 0.802125 0.789394 0.380772
C95   C     C_R   0.696602 0.303998 0.749513 -0.021640
C96   C     C_R   0.303355 0.304014 0.250347 -0.022694
C97   C     C_R   0.303365 0.304046 0.749631 -0.020580
C98   C     C_2   0.964252 0.130930 0.545626 0.610476
C99   C     C_2   0.883412 0.073139 0.448303 0.561375
C100  C     C_2   0.535391 0.630918 0.045451 0.610095
C101  C     C_2   0.616548 0.572961 0.947968 0.562138
C102  C     C_2   0.924324 0.114203 0.056591 0.648766
C103  C     C_2   0.926193 0.114882 0.944936 0.609744
C104  C     C_2   0.073875 0.885136 0.055070 0.609760
F1    F     F_    0.970316 0.928611 0.536482 -0.553674
F2    F     F_    0.234822 0.635162 0.317014 -0.550500
F3    F     F_    0.760837 0.638685 0.679124 -0.540035
F4    F     F_    0.759778 0.640017 0.321384 -0.547089
F5    F     F_    0.249820 0.851289 0.828474 -0.541740
F6    F     F_    0.265159 0.864799 0.182920 -0.550982
F7    F     F_    0.739385 0.861074 0.821137 -0.541990
F8    F     F_    0.740381 0.859799 0.178386 -0.549778
F9    F     F_    0.747636 0.349221 0.329809 -0.545015
F10   F     F_    0.763984 0.363616 0.681775 -0.555340
F11   F     F_    0.233463 0.366878 0.315669 -0.540278
F12   F     F_    0.061191 0.974136 0.466932 -0.571327
F13   F     F_    0.234152 0.365914 0.684033 -0.546840
F14   F     F_    0.529738 0.428583 0.036391 -0.553588
F15   F     F_    0.438760 0.474177 0.967116 -0.571597
F16   F     F_    0.752147 0.150554 0.170413 -0.543017
F17   F     F_    0.735867 0.136202 0.817988 -0.552792
F18   F     F_    0.266549 0.133091 0.184383 -0.539255
F19   F     F_    0.265861 0.134053 0.815907 -0.545921
F20   F     F_    0.250178 0.648691 0.671565 -0.540889
H1    H     H_    0.156886 0.751782 0.680894 0.201731
H2    H     H_    0.854558 0.258402 0.689516 0.190811
H3    H     H_    0.143141 0.261415 0.308235 0.197874
H4    H     H_    0.143777 0.260567 0.691531 0.197278
H5    H     H_    0.343113 0.748192 0.819149 0.198716
H6    H     H_    0.355648 0.759522 0.190596 0.198240
H7    H     H_    0.648189 0.756394 0.812959 0.198268
H8    H     H_    0.649077 0.755268 0.186645 0.190366
H9    H     H_    0.919343 0.204706 0.593803 0.361360
H10   H     H_    0.798126 0.141772 0.456147 0.369881
H11   H     H_    0.580109 0.704828 0.093413 0.361083
H12   H     H_    0.144342 0.740434 0.309336 0.200980
H13   H     H_    0.701919 0.641349 0.955643 0.367893
H14   H     H_    0.927519 0.187575 0.114435 0.354672
H15   H     H_    0.842650 0.148106 0.900507 0.374719
H16   H     H_    0.157458 0.851991 0.099500 0.373382
H17   H     H_    0.072398 0.812363 0.885581 0.354173
H18   H     H_    0.427195 0.687482 0.614386 0.354517
H19   H     H_    0.342080 0.647610 0.400598 0.374608
H20   H     H_    0.657879 0.352231 0.599350 0.374368
H21   H     H_    0.572949 0.312531 0.385595 0.354205
H22   H     H_    0.852032 0.743333 0.687321 0.201096
H23   H     H_    0.851080 0.744505 0.313100 0.199211
H24   H     H_    0.658536 0.253414 0.179865 0.201728
H25   H     H_    0.645274 0.241358 0.810203 0.199765
H26   H     H_    0.356867 0.238552 0.191817 0.200363
H27   H     H_    0.356231 0.239393 0.808404 0.199972
H28   H     H_    0.841239 0.246300 0.320385 0.198795
O1    O     O_3   0.000000 0.000000 0.250030 -0.507214
O2    O     O_R   0.585480 0.353820 0.219950 -0.554988
O3    O     O_R   0.414520 0.353820 0.780050 -0.557204
O4    O     O_R   0.414520 0.353820 0.219950 -0.555836
O5    O     O_R   0.914530 0.146170 0.280090 -0.547570
O6    O     O_R   0.914530 0.146170 0.719910 -0.550462
O7    O     O_R   0.085470 0.146170 0.280090 -0.559357
O8    O     O_R   0.085470 0.146170 0.719910 -0.558374
O9    O     O_R   0.414530 0.646170 0.780090 -0.558012
O10   O     O_R   0.414530 0.646170 0.219910 -0.557729
O11   O     O_R   0.585470 0.646170 0.780090 -0.548707
O12   O     O_3   0.000000 0.000000 0.749970 -0.506910
O13   O     O_R   0.585470 0.646170 0.219910 -0.550617
O14   O     O_R   0.146180 0.085440 0.219990 -0.441235
O15   O     O_R   0.146180 0.085440 0.780010 -0.450434
O16   O     O_R   0.853820 0.085440 0.219990 -0.446749
O17   O     O_R   0.853820 0.085440 0.780010 -0.450546
O18   O     O_R   0.646180 0.585440 0.719990 -0.440565
O19   O     O_R   0.646180 0.585440 0.280010 -0.451947
O20   O     O_R   0.353820 0.585440 0.719990 -0.446258
O21   O     O_R   0.353820 0.585440 0.280010 -0.448586
O22   O     O_R   0.853820 0.914550 0.219980 -0.450492
O23   O     O_3   0.500000 0.500000 0.750030 -0.507252
O24   O     O_R   0.853820 0.914550 0.780020 -0.442186
O25   O     O_R   0.146180 0.914550 0.219980 -0.449814
O26   O     O_R   0.146180 0.914550 0.780020 -0.446655
O27   O     O_R   0.353820 0.414550 0.719980 -0.451861
O28   O     O_R   0.353820 0.414550 0.280020 -0.441767
O29   O     O_R   0.646180 0.414550 0.719980 -0.448994
O30   O     O_R   0.646180 0.414550 0.280020 -0.448309
O31   O     O_R   0.060720 0.999990 0.135450 -0.480648
O32   O     O_R   0.060720 0.999990 0.864550 -0.504437
O33   O     O_R   0.939280 0.999990 0.135450 -0.504776
O34   O     O_3   0.500000 0.500000 0.249970 -0.506925
O35   O     O_R   0.939280 0.999990 0.864550 -0.478803
O36   O     O_R   0.560720 0.499990 0.635450 -0.480118
O37   O     O_R   0.560720 0.499990 0.364550 -0.502709
O38   O     O_R   0.439280 0.499990 0.635450 -0.505620
O39   O     O_R   0.439280 0.499990 0.364550 -0.480434
O40   O     O_R   0.000000 0.939270 0.364600 -0.496721
O41   O     O_R   1.000000 0.939270 0.635400 -0.479092
O42   O     O_R   0.500000 0.439270 0.864600 -0.496483
O43   O     O_R   0.500000 0.439270 0.135400 -0.478924
O44   O     O_R   0.000000 0.060730 0.364620 -0.540814
O45   O     O_R   0.085480 0.853820 0.280050 -0.556633
O46   O     O_R   1.000000 0.060730 0.635380 -0.544077
O47   O     O_R   0.500000 0.560730 0.864620 -0.541045
O48   O     O_R   0.500000 0.560730 0.135380 -0.544075
O49   O     O_2   0.002488 0.176585 0.524771 -0.443564
O50   O     O_R   0.915935 0.151198 0.584894 -0.637266
O51   O     O_2   0.859847 0.050101 0.407364 -0.512177
O52   O     O_R   0.843794 0.126134 0.475073 -0.630724
O53   O     O_2   0.496997 0.676479 0.024716 -0.442756
O54   O     O_R   0.583679 0.651317 0.084522 -0.637777
O55   O     O_2   0.640116 0.549959 0.906931 -0.510303
O56   O     O_R   0.085480 0.853820 0.719950 -0.554678
O57   O     O_R   0.656207 0.625797 0.974681 -0.632889
O58   O     O_2   0.862191 0.131673 0.044838 -0.400774
O59   O     O_R   0.959383 0.149352 0.097436 -0.676780
O60   O     O_2   0.953345 0.175452 0.946140 -0.473788
O61   O     O_R   0.861342 0.102733 0.918086 -0.581101
O62   O     O_2   0.046754 0.824551 0.053891 -0.475006
O63   O     O_R   0.138736 0.897335 0.081899 -0.581763
O64   O     O_2   0.137782 0.868279 0.955147 -0.402465
O65   O     O_R   0.040554 0.850603 0.902581 -0.676562
O66   O     O_2   0.361911 0.631377 0.544849 -0.401027
O67   O     O_R   0.914520 0.853820 0.280050 -0.557192
O68   O     O_R   0.459121 0.649309 0.597389 -0.675784
O69   O     O_2   0.452904 0.675253 0.446002 -0.472658
O70   O     O_R   0.360906 0.602320 0.418214 -0.581294
O71   O     O_2   0.547017 0.324689 0.553980 -0.476470
O72   O     O_R   0.639061 0.397556 0.581776 -0.581515
O73   O     O_2   0.638144 0.368615 0.455178 -0.404348
O74   O     O_R   0.540994 0.350689 0.402584 -0.677161
O75   O     O_R   0.914520 0.853820 0.719950 -0.556061
O76   O     O_R   0.585480 0.353820 0.780050 -0.557030
Zn1   Zn    Zn3+2 0.000000 0.086760 0.292960 0.997619
Zn2   Zn    Zn3+2 0.586770 0.499990 0.292890 1.077678
Zn3   Zn    Zn3+2 0.413230 0.499990 0.707110 1.077066
Zn4   Zn    Zn3+2 0.413230 0.499990 0.292890 1.089906
Zn5   Zn    Zn3+2 0.000000 0.913240 0.292940 1.000882
Zn6   Zn    Zn3+2 0.000000 0.913240 0.707060 1.002986
Zn7   Zn    Zn3+2 0.500000 0.413240 0.792940 1.000461
Zn8   Zn    Zn3+2 0.500000 0.413240 0.207060 1.002741
Zn9   Zn    Zn3+2 0.000000 0.086760 0.707040 0.973077
Zn10  Zn    Zn3+2 0.500000 0.586760 0.792960 0.997930
Zn11  Zn    Zn3+2 0.500000 0.586760 0.207040 0.973700
Zn12  Zn    Zn3+2 0.086770 0.999990 0.207110 1.089970
Zn13  Zn    Zn3+2 0.086770 0.999990 0.792890 1.077611
Zn14  Zn    Zn3+2 0.913230 0.999990 0.207110 1.084291
Zn15  Zn    Zn3+2 0.913230 0.999990 0.792890 1.090014
Zn16  Zn    Zn3+2 0.586770 0.499990 0.707110 1.097197

loop_
_geom_bond_atom_site_label_1
_geom_bond_atom_site_label_2
_ccdc_geom_bond_type
C17   O26   A    
C19   H5    S    
C5    O69   D    
C4    C36   S    
C1    C90   S    
C23   C45   S    
C5    C37   S    
C99   O52   S    
C29   C77   A    
O67   Zn5   S    
C98   O49   D    
C85   C93   A    
C34   C42   A    
C85   H24   S    
O42   Zn7   S    
C18   H4    S    
C61   O2    A    
H19   O70   S    
C50   C95   S    
C60   O42   A    
O40   Zn5   S    
C28   O22   A    
C47   O7    A    
C59   O41   A    
C38   C44   A    
C48   O8    A    
C21   H7    S    
C61   O30   A    
C83   O28   A    
C75   F19   S    
C39   O75   A    
C64   C68   D    
O18   Zn16  S    
C77   F2    S    
O21   Zn4   S    
O4    Zn8   S    
O10   Zn11  S    
C57   O39   A    
C63   C98   S    
C22   H8    S    
C79   C84   A    
C61   C93   S    
C102  O59   S    
O34   Zn4   S    
C80   H1    S    
C59   O46   A    
O14   Zn12  S    
C46   O6    A    
C69   F14   S    
C80   C89   A    
C51   O10   A    
C13   C18   A    
C34   C35   A    
C89   C94   A    
C51   O21   A    
C11   F10   S    
C78   C82   A    
C41   C55   S    
O76   Zn7   S    
C101  O55   D    
H16   O63   S    
C59   C67   S    
C71   C85   A    
C11   C15   A    
O30   Zn2   S    
C64   C99   S    
C2    F6    S    
C12   C16   A    
O39   Zn4   S    
O15   Zn13  S    
C87   H26   S    
C18   C26   A    
C36   C37   A    
C7    C40   S    
C6    C38   S    
O3    Zn7   S    
C74   C87   A    
C19   C27   A    
C103  O61   S    
O34   Zn8   S    
C88   C97   A    
C60   O47   A    
O29   Zn16  S    
C26   C48   S    
C72   C97   S    
O26   Zn13  S    
H17   O65   S    
C9    F8    S    
C5    O70   S    
O19   Zn2   S    
O1    Zn5   S    
C83   O4    A    
C72   O3    A    
O1    Zn14  S    
O24   Zn15  S    
C66   C101  S    
O1    Zn1   S    
C60   C70   S    
C1    O25   A    
C62   O43   A    
O17   Zn15  S    
C35   C41   A    
O12   Zn13  S    
C9    C92   A    
C39   C91   S    
C82   H22   S    
O20   Zn3   S    
C14   H28   S    
C8    C21   A    
C6    O72   S    
C20   C29   A    
C40   C43   A    
O23   Zn16  S    
C25   C74   A    
O36   Zn16  S    
C63   C67   D    
O13   Zn11  S    
O23   Zn3   S    
C22   C31   A    
C2    C20   A    
C76   F20   S    
C23   C71   A    
C53   O13   A    
C45   O5    A    
C65   C100  S    
O35   Zn15  S    
C10   C14   A    
C8    F7    S    
C52   O18   A    
C8    C91   A    
C47   O14   A    
C53   O19   A    
C9    C22   A    
C102  O58   D    
C73   F17   S    
C19   C94   A    
O9    Zn10  S    
C7    O73   D    
C10   C93   A    
C4    O68   S    
C3    O64   D    
O5    Zn1   S    
O16   Zn14  S    
O12   Zn6   S    
C15   H2    S    
C34   C104  S    
C82   C91   A    
C63   C64   S    
C62   C69   S    
H13   O57   S    
C78   F3    S    
C14   C23   A    
C37   C43   A    
C57   O37   A    
O46   Zn9   S    
O31   Zn12  S    
C62   O48   A    
C3    C35   S    
C44   C56   S    
C77   C81   A    
C70   F15   S    
C55   O32   A    
C87   C96   A    
C54   O33   A    
C26   C75   A    
C43   C57   S    
C17   C89   S    
C28   C92   S    
C56   O38   A    
O38   Zn3   S    
C31   C53   S    
H10   O52   S    
O11   Zn10  S    
C55   O35   A    
H18   O68   S    
O32   Zn13  S    
C68   F12   S    
H11   O54   S    
C81   C90   A    
C71   F16   S    
C58   C68   S    
C15   C24   A    
C74   F18   S    
C50   O76   A    
C28   O67   A    
C4    O66   D    
O25   Zn12  S    
C58   O40   A    
C88   H27   S    
C32   C102  S    
O43   Zn8   S    
C86   H25   S    
C50   O29   A    
O27   Zn3   S    
C27   C76   A    
O47   Zn10  S    
O7    Zn1   S    
O41   Zn6   S    
C81   H12   S    
C6    O71   D    
C29   C51   S    
C84   H23   S    
C11   C95   A    
C16   C25   A    
C12   C96   A    
O75   Zn6   S    
C30   C52   S    
C25   C47   S    
O28   Zn4   S    
C100  O54   S    
C2    C90   A    
O1    Zn12  S    
C99   O51   D    
C33   C103  S    
C49   O9    A    
C98   O50   S    
C17   O56   A    
C1    O45   A    
C76   C80   A    
C104  O63   S    
C20   H6    S    
C39   O24   A    
C103  O60   D    
C49   O20   A    
C13   F13   S    
C100  O53   D    
C31   C79   A    
O33   Zn14  S    
O34   Zn2   S    
C7    O74   S    
O23   Zn10  S    
C84   C92   A    
C21   C30   A    
C94   F5    S    
O23   Zn7   S    
C46   O17   A    
C33   C41   A    
C32   C33   A    
C12   F11   S    
O37   Zn2   S    
O48   Zn11  S    
C24   C46   S    
C42   C54   S    
C38   C40   A    
C3    O65   S    
O12   Zn15  S    
O45   Zn5   S    
C66   C70   D    
C48   O15   A    
H15   O61   S    
C65   C69   D    
C83   C96   S    
C58   O44   A    
C79   F4    S    
O8    Zn9   S    
H21   O74   S    
C13   C97   A    
H14   O59   S    
C24   C73   A    
C16   H3    S    
C73   C86   A    
H20   O72   S    
C36   C44   A    
C86   C95   A    
O22   Zn14  S    
O6    Zn9   S    
C104  O62   D    
O34   Zn11  S    
C30   C78   A    
C75   C88   A    
C67   F1    S    
O44   Zn1   S    
C101  O57   S    
C65   C66   S    
C45   O16   A    
O2    Zn8   S    
O12   Zn9   S    
C32   C42   A    
C54   O31   A    
H9    O50   S    
C56   O36   A    
C72   O27   A    
C52   O11   A    
O56   Zn6   S    
C10   F9    S    
C27   C49   S    
