data_mof_unit_45688.cif
_audit_creation_date              2012-10-26T19:05:03-0400
_audit_creation_method            fapswitch 2.2
_symmetry_space_group_name_H-M    P1
_symmetry_Int_Tables_number       1
_space_group_crystal_system       triclinic
_cell_length_a                    15.852756
_cell_length_b                    10.823862
_cell_length_c                    9.667217
_cell_angle_alpha                 91.900253
_cell_angle_beta                  90.877345
_cell_angle_gamma                 94.893707
_cell_volume                      1651.5490555

loop_
_atom_site_label
_atom_site_type_symbol
_atom_type_description
_atom_site_fract_x
_atom_site_fract_y
_atom_site_fract_z
_atom_type_partial_charge
C1    C     C_R   0.502340 0.262128 0.498895 0.528600
C2    C     C_R   0.509286 0.073836 0.876292 0.022266
C3    C     C_R   0.454110 0.965014 0.876797 -0.062842
C4    C     C_R   0.340265 0.496972 0.498776 0.534520
C5    C     C_R   0.437482 0.894855 0.752611 -0.050034
C6    C     C_R   0.471224 0.939270 0.627619 0.041489
C7    C     C_R   0.503636 0.063598 0.625399 0.017271
C8    C     C_R   0.500722 0.126159 0.499486 -0.011897
C9    C     C_R   0.480656 0.056770 0.377348 -0.170145
C10   C     C_R   0.473894 0.928237 0.377556 -0.166790
C11   C     C_R   0.473865 0.867407 0.503491 -0.015357
C12   C     C_3   0.952790 0.504887 0.635609 -0.205771
C13   C     C_R   0.633317 0.624545 0.153524 -0.084356
C14   C     C_R   0.713957 0.622428 0.102847 -0.162797
C15   C     C_R   0.724654 0.597363 0.961546 -0.008206
C16   C     C_R   0.489102 0.735147 0.501523 0.567770
C17   C     C_R   0.651565 0.602431 0.875237 0.286042
C18   C     C_R   0.570956 0.554313 0.930915 0.134109
C19   C     C_R   0.566296 0.560824 0.079202 0.118253
C20   C     C_R   0.435489 0.442808 0.069760 -0.018130
C21   C     C_R   0.434719 0.444845 0.922483 -0.020662
C22   C     C_R   0.659182 0.495249 0.500183 0.595990
C23   C     C_3   0.914864 0.469736 0.489454 0.082314
C24   C     C_3   0.050112 0.501297 0.636213 -0.217814
C25   C     C_3   0.041844 0.346202 0.433039 -0.156064
C26   C     C_3   0.942301 0.336392 0.441902 0.250378
C27   C     C_1   0.748087 0.484816 0.498798 0.001613
C28   C     C_3   0.081367 0.475473 0.487843 0.024653
C29   C     C_3   0.541595 0.141629 0.007197 -0.261584
C30   C     C_3   0.610153 0.072072 0.077304 -0.273085
C31   C     C_3   0.661371 0.154617 0.185197 -0.446476
C32   C     C_3   0.813747 0.604610 0.902849 -0.215807
C33   C     C_3   0.878001 0.696337 0.984963 -0.277700
C34   C     C_3   0.953529 0.574724 0.396706 -0.254294
C35   C     C_3   0.959907 0.727302 0.908644 -0.447228
C36   C     C_3   0.899709 0.281346 0.302679 -0.238209
C37   C     C_3   0.911191 0.355291 0.169827 -0.363305
C38   C     C_3   0.899848 0.270265 0.040239 -0.412914
C39   C     C_3   0.050958 0.575094 0.392316 -0.232269
C40   C     C_1   0.822904 0.475859 0.493786 -0.033583
C41   C     C_1   0.174052 0.481424 0.490336 -0.077187
C42   C     C_1   0.250047 0.488791 0.494735 -0.032691
C43   C     C_R   0.535054 0.120871 0.750177 -0.052223
Cu1   Cu    Cu3+1 0.499990 0.499990 0.640660 0.999551
Cu2   Cu    Cu3+1 0.500010 0.500010 0.359340 0.923098
H1    H     H_    0.923949 0.445535 0.716486 0.178737
H2    H     H_    0.382742 0.394860 0.120995 0.115512
H3    H     H_    0.069188 0.428939 0.706452 0.162555
H4    H     H_    0.626032 0.667224 0.253879 0.187746
H5    H     H_    0.766559 0.646916 0.173611 0.113753
H6    H     H_    0.381241 0.398792 0.865199 0.121942
H7    H     H_    0.062498 0.330081 0.325103 0.086369
H8    H     H_    0.069293 0.272656 0.492607 0.176537
H9    H     H_    0.080368 0.668498 0.426232 0.135175
H10   H     H_    0.071072 0.557471 0.284229 0.114726
H11   H     H_    0.937579 0.666632 0.439252 0.135481
H12   H     H_    0.080304 0.591814 0.677969 0.112054
H13   H     H_    0.695329 0.234788 0.135121 0.150765
H14   H     H_    0.619761 0.190464 0.265267 0.185660
H15   H     H_    0.708616 0.100268 0.236162 0.145207
H16   H     H_    0.580479 0.988475 0.126927 0.172258
H17   H     H_    0.654834 0.040900 0.998400 0.230137
H18   H     H_    0.568941 0.236668 0.983799 0.145795
H19   H     H_    0.487487 0.154680 0.074979 0.125303
H20   H     H_    0.992831 0.642065 0.889903 0.135611
H21   H     H_    0.946820 0.772276 0.809944 0.186398
H22   H     H_    0.002415 0.793303 0.973542 0.150162
H23   H     H_    0.937652 0.600300 0.663921 0.101262
H24   H     H_    0.849809 0.784549 0.010278 0.219544
H25   H     H_    0.895344 0.654677 0.083444 0.128256
H26   H     H_    0.836339 0.510579 0.905009 0.113973
H27   H     H_    0.811499 0.630219 0.792632 0.192641
H28   H     H_    0.667914 0.829182 0.595890 0.356480
H29   H     H_    0.858859 0.048778 0.464863 0.346638
H30   H     H_    0.949231 0.203365 0.037622 0.178263
H31   H     H_    0.836346 0.218309 0.037827 0.170736
H32   H     H_    0.906147 0.326506 0.946538 0.183162
H33   H     H_    0.861953 0.422146 0.164511 0.158511
H34   H     H_    0.926005 0.570314 0.291638 0.099028
H35   H     H_    0.974935 0.405431 0.166370 0.161862
H36   H     H_    0.924856 0.189889 0.281836 0.174149
H37   H     H_    0.830524 0.261991 0.317963 0.155914
H38   H     H_    0.471772 0.101763 0.281931 0.131904
H39   H     H_    0.579943 0.202019 0.750357 0.146628
H40   H     H_    0.430934 0.928892 0.973538 0.103862
H41   H     H_    0.401945 0.805075 0.755793 0.128153
H42   H     H_    0.468347 0.876910 0.279269 0.138875
N1    N     N_R   0.500800 0.501210 0.147910 -0.243703
N2    N     N_R   0.500820 0.501290 0.852040 -0.250007
O1    O     O_R   0.499990 0.319640 0.618810 -0.521954
O2    O     O_2   0.731253 0.833466 0.854765 -0.317633
O3    O     O_3   0.667273 0.742158 0.624844 -0.525790
O4    O     O_2   0.967523 0.232578 0.695687 -0.304079
O5    O     O_2   0.821087 0.232235 0.613924 -0.318383
O6    O     O_3   0.916624 0.075869 0.500602 -0.524290
O7    O     O_R   0.500000 0.319660 0.381240 -0.511976
O8    O     O_R   0.379430 0.499990 0.618840 -0.514289
O9    O     O_R   0.379440 0.500020 0.381260 -0.502603
O10   O     O_R   0.500000 0.680340 0.618760 -0.417152
O11   O     O_R   0.500010 0.680360 0.381190 -0.523954
O12   O     O_R   0.620560 0.499980 0.618740 -0.461148
O13   O     O_R   0.620570 0.500010 0.381160 -0.524046
O14   O     O_2   0.579590 0.808104 0.836499 -0.312001
S1    S     S_3+6 0.657559 0.749693 0.797514 0.004679
S2    S     S_3+6 0.910562 0.219799 0.569433 -0.047892

loop_
_geom_bond_atom_site_label_1
_geom_bond_atom_site_label_2
_ccdc_geom_bond_type
C8    C9    A    
C29   H18   S    
O5    S2    D    
C34   H11   S    
C1    O1    A    
C4    O9    A    
C3    H40   S    
C1    C8    S    
C41   C42   T    
O2    S1    D    
C7    C8    A    
C32   H27   S    
C38   H31   S    
C25   C28   S    
C12   H23   S    
C12   C23   S    
C29   C30   S    
C22   O12   A    
C2    C29   S    
C31   H13   S    
C36   C37   S    
C17   S1    S    
C25   H8    S    
Cu2   O9    S    
C5    C6    A    
Cu1   O10   S    
C39   H9    S    
C35   H20   S    
C23   C40   S    
C28   C41   S    
C18   C19   A    
C11   C16   S    
C23   C26   S    
C31   H14   S    
O6    S2    S    
O4    S2    D    
C39   H10   S    
C36   H37   S    
C24   H12   S    
C7    C43   A    
C9    C10   A    
C36   H36   S    
C33   H24   S    
C29   H19   S    
C4    O8    A    
C43   H39   S    
C14   H5    S    
C26   S2    S    
C32   H26   S    
C38   H30   S    
C37   H35   S    
C10   H42   S    
C13   C19   A    
C34   C39   S    
C24   H3    S    
C15   C32   S    
Cu2   N1    S    
C12   H1    S    
C19   N1    A    
Cu2   O13   S    
C6    C11   A    
C16   O11   A    
C21   N2    A    
C35   H21   S    
C25   C26   S    
C31   H15   S    
C37   C38   S    
C34   H34   S    
Cu1   O8    S    
C35   H22   S    
C2    C43   A    
C23   C34   S    
C17   C18   A    
C33   H25   S    
C9    H38   S    
C13   H4    S    
C5    H41   S    
C26   C36   S    
C22   C27   S    
C30   H17   S    
C28   C39   S    
C21   H6    S    
Cu1   O1    S    
Cu1   Cu2   S    
C15   C17   A    
C27   C40   T    
C18   N2    A    
H29   O6    S    
C24   C28   S    
H28   O3    S    
C3    C5    A    
Cu2   O11   S    
Cu1   O12   S    
C16   O10   A    
C6    C7    A    
C38   H32   S    
C37   H33   S    
C12   C24   S    
C22   O13   A    
C32   C33   S    
C2    C3    A    
C25   H7    S    
C30   C31   S    
C4    C42   S    
C1    O7    A    
C20   N1    A    
C33   C35   S    
C20   H2    S    
C10   C11   A    
O3    S1    S    
C20   C21   A    
C30   H16   S    
O14   S1    D    
C14   C15   A    
C13   C14   A    
Cu2   O7    S    
Cu1   N2    S    
