data_mof_unit_32077.cif
_audit_creation_date              2012-12-10T18:28:24-0500
_audit_creation_method            fapswitch 2.2
_symmetry_space_group_name_H-M    P1
_symmetry_Int_Tables_number       1
_space_group_crystal_system       triclinic
_cell_length_a                    23.378976
_cell_length_b                    20.281596
_cell_length_c                    14.902831
_cell_angle_alpha                 89.993536
_cell_angle_beta                  99.17419
_cell_angle_gamma                 90.003628
_cell_volume                      6975.9785105

loop_
_atom_site_label
_atom_site_type_symbol
_atom_type_description
_atom_site_fract_x
_atom_site_fract_y
_atom_site_fract_z
_atom_type_partial_charge
C1    C     C_R   0.576443 0.086159 0.554519 0.874525
C2    C     C_R   0.425653 0.911262 0.447059 0.872706
C3    C     C_R   0.423630 0.086245 0.445523 0.878382
C4    C     C_R   0.576404 0.913792 0.554495 0.870556
C5    C     C_R   0.076341 0.586275 0.554456 0.874673
C6    C     C_R   0.925712 0.411170 0.447126 0.873611
C7    C     C_R   0.925658 0.588759 0.447070 0.877092
C8    C     C_R   0.074315 0.411221 0.552916 0.869876
C9    C     C_R   0.209910 0.182881 0.640291 -0.182918
C10   C     C_R   0.791537 0.818441 0.361527 -0.188844
C11   C     C_R   0.791404 0.181620 0.361198 -0.186658
C12   C     C_R   0.275515 0.735459 0.688225 -0.194515
C13   C     C_R   0.774472 0.762735 0.688387 -0.191477
C14   C     C_R   0.224561 0.235636 0.311668 -0.194747
C15   C     C_R   0.289634 0.683310 0.359245 -0.182062
C16   C     C_R   0.775138 0.236159 0.688666 -0.192855
C17   C     C_R   0.629977 0.006625 0.205745 0.340964
C18   C     C_R   0.370559 0.011632 0.794536 0.340140
C19   C     C_R   0.129654 0.511165 0.205762 0.339025
C20   C     C_R   0.870302 0.506342 0.794841 0.338906
C21   C     C_R   0.607001 0.000104 0.285563 -0.075157
C22   C     C_R   0.393090 0.003043 0.714664 -0.076057
C23   C     C_R   0.106945 0.502778 0.285531 -0.077253
C24   C     C_R   0.893048 0.499675 0.714845 -0.077049
C25   C     C_R   0.511007 0.005604 0.207223 -0.047539
C26   C     C_R   0.489301 0.004165 0.792647 -0.048774
C27   C     C_R   0.010835 0.504412 0.207238 -0.051891
C28   C     C_R   0.989160 0.505864 0.792592 -0.053311
C29   C     C_R   0.530442 0.014844 0.123588 -0.072734
C30   C     C_R   0.470421 0.015119 0.876352 -0.071663
C31   C     C_R   0.029916 0.515271 0.123654 -0.072916
C32   C     C_R   0.969936 0.515088 0.876404 -0.071227
C33   C     C_R   0.591610 0.015269 0.122189 -0.036244
C34   C     C_R   0.409356 0.019120 0.877877 -0.040766
C35   C     C_R   0.091011 0.518704 0.122267 -0.041055
C36   C     C_R   0.908804 0.515713 0.878029 -0.048567
C37   C     C_R   0.490405 0.021608 0.041888 0.045892
C38   C     C_R   0.510784 0.020424 0.957967 0.046616
C39   C     C_R   0.989669 0.520930 0.042005 0.044670
C40   C     C_R   0.010068 0.521644 0.958078 0.046184
C41   C     C_R   0.570875 0.026040 0.957986 -0.285815
C42   C     C_R   0.430688 0.031034 0.041849 -0.283328
C43   C     C_R   0.069890 0.530224 0.958173 -0.285559
C44   C     C_R   0.929668 0.527475 0.042010 -0.284430
C45   C     C_R   0.610786 0.024701 0.037678 0.441970
C46   C     C_R   0.390707 0.030951 0.962252 0.441425
C47   C     C_R   0.109823 0.529974 0.037857 0.440501
C48   C     C_R   0.889740 0.526106 0.962390 0.436974
C49   C     C_R   0.626134 0.872875 0.591073 -0.064382
C50   C     C_R   0.373906 0.127172 0.408982 -0.069594
C51   C     C_R   0.389596 0.853413 0.420733 -0.064857
C52   C     C_R   0.626308 0.126865 0.591180 -0.067905
C53   C     C_R   0.110251 0.353253 0.579127 -0.063184
C54   C     C_R   0.889760 0.646794 0.420979 -0.067866
C55   C     C_R   0.889948 0.352996 0.421154 -0.064554
C56   C     C_R   0.126017 0.627258 0.590965 -0.067875
C57   C     C_R   0.686420 0.817009 0.715084 -0.164468
C58   C     C_R   0.312616 0.181479 0.284586 -0.159469
C59   C     C_R   0.354474 0.766218 0.315387 -0.172043
C60   C     C_R   0.687057 0.181931 0.715450 -0.159606
C61   C     C_R   0.145071 0.265765 0.684194 -0.173662
C62   C     C_R   0.855967 0.735304 0.317007 -0.171296
C63   C     C_R   0.855943 0.264726 0.316905 -0.174186
C64   C     C_R   0.187463 0.681315 0.715402 -0.160456
C65   C     C_R   0.636503 0.852741 0.682203 -0.177161
C66   C     C_R   0.362794 0.146162 0.317399 -0.173495
C67   C     C_R   0.386993 0.823507 0.335381 -0.174816
C68   C     C_R   0.636984 0.146475 0.682522 -0.173766
C69   C     C_R   0.112661 0.323146 0.664320 -0.177255
C70   C     C_R   0.887985 0.677579 0.336355 -0.171710
C71   C     C_R   0.888005 0.322406 0.336379 -0.176904
C72   C     C_R   0.137249 0.646052 0.682615 -0.175627
C73   C     C_R   0.666469 0.858611 0.534319 -0.249070
C74   C     C_R   0.334148 0.142310 0.466323 -0.247900
C75   C     C_R   0.360797 0.824947 0.486016 -0.245401
C76   C     C_R   0.666519 0.141323 0.534279 -0.248855
C77   C     C_R   0.139103 0.324864 0.513850 -0.245429
C78   C     C_R   0.860477 0.674701 0.486084 -0.243475
C79   C     C_R   0.860919 0.324813 0.486404 -0.243926
C80   C     C_R   0.165646 0.642590 0.533510 -0.248728
C81   C     C_R   0.717769 0.825363 0.566581 0.095165
C82   C     C_R   0.282477 0.174810 0.434103 0.096124
C83   C     C_R   0.329967 0.766289 0.468911 0.095467
C84   C     C_R   0.717992 0.174232 0.566586 0.095335
C85   C     C_R   0.169830 0.266122 0.530830 0.094879
C86   C     C_R   0.830272 0.733835 0.469770 0.095145
C87   C     C_R   0.830573 0.265765 0.469875 0.095034
C88   C     C_R   0.217377 0.674956 0.565709 0.096292
C89   C     C_R   0.726553 0.802033 0.657376 0.157830
C90   C     C_R   0.272900 0.197005 0.342778 0.157008
C91   C     C_R   0.325026 0.738106 0.380984 0.146289
C92   C     C_R   0.727061 0.197110 0.657589 0.156786
C93   C     C_R   0.174600 0.237756 0.618631 0.146711
C94   C     C_R   0.826250 0.763011 0.382574 0.148806
C95   C     C_R   0.826307 0.236878 0.382472 0.148834
C96   C     C_R   0.227101 0.696944 0.657119 0.157413
C97   C     C_R   0.758151 0.810346 0.508292 0.058575
C98   C     C_R   0.242387 0.190037 0.492765 0.056577
C99   C     C_R   0.300275 0.738087 0.535097 0.067815
C100  C     C_R   0.758298 0.189341 0.508198 0.058198
C101  C     C_R   0.199592 0.238004 0.464669 0.067926
C102  C     C_R   0.800376 0.761666 0.535971 0.066846
C103  C     C_R   0.800721 0.237783 0.536049 0.067372
C104  C     C_R   0.257394 0.690233 0.506960 0.056419
C105  C     C_R   0.244327 0.160006 0.579033 -0.200165
C106  C     C_R   0.756982 0.841162 0.422699 -0.203321
C107  C     C_R   0.756876 0.158823 0.422368 -0.203331
C108  C     C_R   0.311051 0.757012 0.627770 -0.205500
C109  C     C_R   0.810325 0.741587 0.628202 -0.204876
C110  C     C_R   0.188962 0.257117 0.372063 -0.207084
C111  C     C_R   0.255298 0.660352 0.420571 -0.199796
C112  C     C_R   0.810896 0.257487 0.628417 -0.205774
H1    H     H_    0.212961 0.159422 0.706248 0.194229
H2    H     H_    0.789083 0.842520 0.296079 0.185891
H3    H     H_    0.788754 0.157770 0.295569 0.190455
H4    H     H_    0.284505 0.751414 0.758480 0.166251
H5    H     H_    0.782763 0.745792 0.758245 0.171153
H6    H     H_    0.215684 0.251744 0.241468 0.166151
H7    H     H_    0.286459 0.659979 0.293191 0.194217
H8    H     H_    0.783633 0.252774 0.758658 0.167216
H9    H     H_    0.588426 0.034451 0.896376 0.169607
H10   H     H_    0.413670 0.041578 0.103377 0.169352
H11   H     H_    0.087099 0.540133 0.896643 0.169496
H12   H     H_    0.912285 0.536717 0.103572 0.172485
H13   H     H_    0.344985 0.130188 0.537415 0.165232
H14   H     H_    0.656296 0.871854 0.463544 0.164048
H15   H     H_    0.656130 0.128486 0.463381 0.165599
H16   H     H_    0.361144 0.850506 0.549480 0.166091
H17   H     H_    0.860043 0.648409 0.548805 0.167742
H18   H     H_    0.138891 0.350552 0.450506 0.166315
H19   H     H_    0.154679 0.630692 0.462363 0.164648
H20   H     H_    0.860729 0.350863 0.549368 0.166331
H21   H     H_    0.392715 0.133883 0.271448 0.166338
H22   H     H_    0.606135 0.864335 0.727710 0.166192
H23   H     H_    0.606750 0.134663 0.728172 0.166723
H24   H     H_    0.409734 0.844426 0.284232 0.167437
H25   H     H_    0.911072 0.657085 0.285341 0.166901
H26   H     H_    0.089856 0.343980 0.715441 0.166347
H27   H     H_    0.107410 0.633637 0.728643 0.165228
H28   H     H_    0.910954 0.343055 0.285300 0.166008
H29   H     H_    0.693275 0.800355 0.785078 0.158136
H30   H     H_    0.305151 0.197215 0.214190 0.162820
H31   H     H_    0.351700 0.744422 0.248441 0.157276
H32   H     H_    0.694148 0.198189 0.785617 0.161631
H33   H     H_    0.147703 0.243820 0.751034 0.156442
H34   H     H_    0.853881 0.757834 0.250622 0.155729
H35   H     H_    0.853697 0.242389 0.250379 0.155580
H36   H     H_    0.195035 0.696893 0.785858 0.162006
H37   H     H_    0.271384 0.117850 0.600059 0.176035
H38   H     H_    0.730428 0.883793 0.402150 0.171314
H39   H     H_    0.730140 0.116361 0.401635 0.172831
H40   H     H_    0.347471 0.787452 0.655596 0.156029
H41   H     H_    0.846299 0.710461 0.655902 0.156718
H42   H     H_    0.152609 0.287656 0.344242 0.154991
H43   H     H_    0.228175 0.618256 0.399496 0.176292
H44   H     H_    0.846991 0.288427 0.656161 0.155427
H45   H     H_    0.534066 0.998497 0.785333 0.138527
H46   H     H_    0.466026 0.002005 0.214249 0.139427
H47   H     H_    0.034090 0.502541 0.785225 0.141383
H48   H     H_    0.966004 0.498926 0.214289 0.142212
H49   H     H_    0.364416 0.999447 0.650211 0.167077
H50   H     H_    0.635429 0.995349 0.350099 0.159283
H51   H     H_    0.864492 0.494410 0.650531 0.174927
H52   H     H_    0.135519 0.499101 0.350069 0.168262
N1    N     N_R   0.549130 0.000000 0.284090 -0.124346
N2    N     N_R   0.450870 1.000000 0.715910 -0.126497
N3    N     N_R   0.049130 0.500000 0.284090 -0.127051
N4    N     N_R   0.950870 0.500000 0.715910 -0.128797
O1    O     O_R   0.541320 0.066090 0.608930 -0.612551
O2    O     O_R   0.458680 0.933910 0.391070 -0.612446
O3    O     O_R   0.458680 0.066090 0.391070 -0.612282
O4    O     O_R   0.541320 0.933910 0.608930 -0.615159
O5    O     O_R   0.041320 0.566090 0.608930 -0.614500
O6    O     O_R   0.958680 0.433910 0.391070 -0.613813
O7    O     O_R   0.958680 0.566090 0.391070 -0.611872
O8    O     O_R   0.041320 0.433910 0.608930 -0.614336
O9    O     O_R   0.572880 0.066110 0.470280 -0.616370
O10   O     O_R   0.427120 0.933890 0.529720 -0.618814
O11   O     O_R   0.427120 0.066110 0.529720 -0.615545
O12   O     O_R   0.572880 0.933890 0.470280 -0.619328
O13   O     O_R   0.072880 0.566110 0.470280 -0.616607
O14   O     O_R   0.927120 0.433890 0.529720 -0.618874
O15   O     O_R   0.927120 0.566110 0.529720 -0.615279
O16   O     O_R   0.072880 0.433890 0.470280 -0.619665
Zn1   Zn    Zn3+2 0.478910 1.000000 0.592580 0.949372
Zn2   Zn    Zn3+2 0.521090 1.000000 0.407420 0.950851
Zn3   Zn    Zn3+2 0.978910 0.500000 0.592580 0.947230
Zn4   Zn    Zn3+2 0.021090 0.500000 0.407420 0.947930
Cl1   Cl    Cl    0.683338 0.037859 0.022899 -0.529989
Cl2   Cl    Cl    0.318909 0.048993 0.976901 -0.528457
Cl3   Cl    Cl    0.181837 0.546774 0.023173 -0.526623
Cl4   Cl    Cl    0.817405 0.541228 0.976794 -0.515489
Cl5   Cl    Cl    0.706113 0.000474 0.219236 -0.584859
Cl6   Cl    Cl    0.294273 0.009752 0.781417 -0.560604
Cl7   Cl    Cl    0.205948 0.509161 0.219277 -0.557749
Cl8   Cl    Cl    0.794327 0.498669 0.782430 -0.524872

loop_
_geom_bond_atom_site_label_1
_geom_bond_atom_site_label_2
_ccdc_geom_bond_type
C88   C96   A    
C19   Cl7   S    
C106  H38   S    
C29   C33   A    
C18   Cl6   S    
N2    Zn1   S    
C33   C45   A    
C5    C56   S    
C17   Cl5   S    
C81   C89   A    
C6    C55   S    
C49   C73   A    
C53   C69   A    
C76   C84   A    
C79   C87   A    
C99   C108  A    
C30   C38   A    
C98   C105  A    
C57   C89   A    
C6    O14   A    
C32   C36   A    
C24   N4    A    
C78   H17   S    
C51   C75   A    
C23   H52   S    
C62   H34   S    
C50   C74   A    
C61   C93   A    
C74   H13   S    
C10   C94   A    
C9    C105  A    
C73   H14   S    
C63   C95   A    
C21   N1    A    
C62   C70   A    
C26   H45   S    
C75   H16   S    
C42   C46   A    
C73   C81   A    
C37   C42   A    
C3    O11   A    
C14   C90   A    
C13   C109  A    
C86   C94   A    
C77   C85   A    
C59   C67   A    
O7    Zn4   S    
C108  H40   S    
O10   Zn1   S    
C85   C93   A    
C58   C66   A    
C72   H27   S    
O5    Zn3   S    
C20   C24   A    
C15   H7    S    
C56   C72   A    
C87   C95   A    
C97   C102  A    
C63   H35   S    
C34   C46   A    
C109  H41   S    
C65   H22   S    
C10   H2    S    
C77   H18   S    
C107  H39   S    
C8    O16   A    
C32   C40   A    
C99   C104  A    
C59   H31   S    
C80   H19   S    
C83   C99   A    
C64   H36   S    
C82   C98   A    
O2    Zn2   S    
C1    O9    A    
C4    O12   A    
C58   C90   A    
C5    O13   A    
C88   C104  A    
O13   Zn4   S    
C60   C92   A    
C25   C29   A    
C30   C34   A    
C27   C31   A    
C84   C100  A    
C15   C111  A    
C28   C32   A    
C64   C96   A    
C38   C41   A    
C39   C40   A    
C12   C108  A    
C22   H49   S    
C51   C67   A    
C6    O6    A    
C25   N1    A    
C101  C110  A    
C9    C93   A    
C44   H12   S    
C28   H47   S    
C17   C21   A    
O9    Zn2   S    
O16   Zn4   S    
C7    O7    A    
C103  C112  A    
C22   N2    A    
C100  C103  A    
C19   C23   A    
C37   C38   A    
C110  H42   S    
O15   Zn3   S    
C11   H3    S    
C66   H21   S    
C55   C79   A    
C58   H30   S    
C54   C70   A    
C16   C112  A    
O4    Zn1   S    
C40   C43   A    
C17   C33   A    
C59   C91   A    
C82   C90   A    
C84   C92   A    
C50   C66   A    
C71   H28   S    
C49   C65   A    
C2    O2    A    
C23   N3    A    
C97   C106  A    
C45   Cl1   S    
C63   C71   A    
C26   C30   A    
C62   C94   A    
C11   C107  A    
C53   C77   A    
C87   C103  A    
C10   C106  A    
C24   H51   S    
C29   C37   A    
C83   C91   A    
C86   C102  A    
C43   H11   S    
C75   C83   A    
C85   C101  A    
C42   H10   S    
O8    Zn3   S    
C3    C50   S    
C41   H9    S    
C74   C82   A    
C11   C95   A    
C69   H26   S    
C14   C110  A    
C26   N2    A    
C100  C107  A    
C21   H50   S    
C4    O4    A    
O3    Zn2   S    
C13   C89   A    
C18   C22   A    
C5    O5    A    
C68   H23   S    
C14   H6    S    
O6    Zn4   S    
C57   C65   A    
C43   C47   A    
C52   C76   A    
C52   C68   A    
C8    C53   S    
C104  C111  A    
C13   H5    S    
C8    O8    A    
C16   C92   A    
C39   C44   A    
O11   Zn1   S    
C7    O15   A    
C98   C101  A    
C105  H37   S    
N1    Zn2   S    
C56   C80   A    
C57   H29   S    
C4    C49   S    
O12   Zn2   S    
C61   C69   A    
C16   H8    S    
C67   H24   S    
C27   H48   S    
O1    Zn1   S    
C80   C88   A    
C19   C35   A    
C60   H32   S    
C3    O3    A    
C46   Cl2   S    
C81   C97   A    
C18   C34   A    
C79   H20   S    
C61   H33   S    
N3    Zn4   S    
C31   C39   A    
C36   C48   A    
C31   C35   A    
O14   Zn3   S    
C64   C72   A    
C47   Cl3   S    
C1    C52   S    
C9    H1    S    
C48   Cl4   S    
C2    C51   S    
C28   N4    A    
C15   C91   A    
C20   C36   A    
C60   C68   A    
C70   H25   S    
C78   C86   A    
C112  H44   S    
C1    O1    A    
C25   H46   S    
N4    Zn3   S    
C76   H15   S    
C41   C45   A    
C12   C96   A    
C102  C109  A    
C2    O10   A    
C7    C54   S    
C54   C78   A    
C35   C47   A    
C111  H43   S    
C20   Cl8   S    
C55   C71   A    
C44   C48   A    
C27   N3    A    
C12   H4    S    
