data_mof_unit_9876.cif
_audit_creation_date              2012-12-10T17:36:17-0500
_audit_creation_method            fapswitch 2.2
_symmetry_space_group_name_H-M    P1
_symmetry_Int_Tables_number       1
_space_group_crystal_system       triclinic
_cell_length_a                    12.349658
_cell_length_b                    13.051673
_cell_length_c                    15.872095
_cell_angle_alpha                 77.292225
_cell_angle_beta                  101.158641
_cell_angle_gamma                 116.537802
_cell_volume                      2219.37777358

loop_
_atom_site_label
_atom_site_type_symbol
_atom_type_description
_atom_site_fract_x
_atom_site_fract_y
_atom_site_fract_z
_atom_type_partial_charge
C1    C     C_R   0.854935 0.285319 0.509347 0.809942
C2    C     C_3   0.044748 0.407336 0.071237 -0.131640
C3    C     C_3   0.994568 0.494139 0.083167 0.090135
C4    C     C_3   0.076979 0.617945 0.039856 -0.429134
C5    C     C_3   0.084970 0.617696 0.943492 -0.114525
C6    C     C_1   0.997667 0.495854 0.175875 -0.075811
C7    C     C_1   0.996842 0.496823 0.824637 -0.086463
C8    C     C_1   0.997899 0.497828 0.749132 -0.183418
C9    C     C_R   0.287241 0.016758 0.362184 -0.271048
C10   C     C_R   0.227185 0.835684 0.461361 -0.143895
C11   C     C_R   0.810225 0.078401 0.574214 0.347539
C12   C     C_R   0.999346 0.499269 0.659566 0.825972
C13   C     C_R   0.723823 0.965674 0.600173 -0.061495
C14   C     C_R   0.601797 0.933091 0.567006 -0.258269
C15   C     C_R   0.562832 0.010126 0.506376 0.063276
C16   C     C_R   0.651152 0.121765 0.477150 0.014647
C17   C     C_R   0.438918 0.977883 0.471529 0.107553
C18   C     C_R   0.407576 0.051355 0.401222 0.085091
C19   C     C_R   0.497366 0.156642 0.368340 -0.190985
C20   C     C_R   0.617239 0.191044 0.405166 -0.166815
C21   C     C_R   0.345045 0.873912 0.503869 -0.332537
C22   C     C_R   0.197895 0.906673 0.388977 0.439871
C23   C     C_R   0.144743 0.713875 0.484635 0.814600
C24   C     C_R   0.772469 0.159934 0.518145 -0.218262
C25   C     C_R   0.350850 0.333303 0.642190 -0.409403
C26   C     C_R   0.759166 0.645259 0.382070 -0.017013
C27   C     C_R   0.664386 0.680967 0.357176 0.409488
C28   C     C_R   0.560814 0.624414 0.401323 -0.240595
C29   C     C_R   0.552421 0.535969 0.472483 -0.048966
C30   C     C_R   0.653666 0.506087 0.497032 0.266612
C31   C     C_R   0.447837 0.476304 0.520293 0.012569
C32   C     C_R   0.448925 0.390860 0.592487 0.130194
C33   C     C_R   0.548092 0.363008 0.615244 -0.236870
C34   C     C_R   0.000077 0.499803 0.340505 0.786750
C35   C     C_R   0.647861 0.419001 0.568471 -0.136473
C36   C     C_R   0.341367 0.496823 0.499904 -0.053746
C37   C     C_R   0.250463 0.360644 0.621500 0.649479
C38   C     C_3   0.038712 0.405321 0.972676 -0.480338
C39   C     C_3   0.864752 0.463738 0.936136 -0.363733
C40   C     C_3   0.859851 0.455937 0.036101 -0.005001
C41   C     C_1   0.999270 0.497781 0.251237 -0.141273
C42   C     C_3   0.995958 0.496874 0.916790 0.218970
Cu1   Cu    Cu3+1 0.098280 0.475420 0.519630 0.984686
Cu2   Cu    Cu3+1 0.901720 0.524580 0.480370 0.946663
H1    H     H_    0.985782 0.318560 0.101486 0.170429
H2    H     H_    0.128663 0.421359 0.955102 0.160218
H3    H     H_    0.042371 0.680780 0.045817 0.189871
H4    H     H_    0.475188 0.212124 0.312996 0.164932
H5    H     H_    0.263736 0.073229 0.308545 0.160540
H6    H     H_    0.360939 0.818772 0.561516 0.167279
H7    H     H_    0.539920 0.844904 0.587174 0.194331
H8    H     H_    0.974017 0.317473 0.957426 0.194626
H9    H     H_    0.683711 0.270339 0.373589 0.170860
H10   H     H_    0.548826 0.296967 0.670180 0.153495
H11   H     H_    0.352366 0.267297 0.696760 0.145285
H12   H     H_    0.331942 0.558981 0.445278 0.146556
H13   H     H_    0.836774 0.683765 0.345454 0.158859
H14   H     H_    0.488422 0.651827 0.378379 0.157461
H15   H     H_    0.718763 0.391077 0.591029 0.198018
H16   H     H_    0.832081 0.527891 0.896130 0.193201
H17   H     H_    0.802483 0.381419 0.911208 0.206357
H18   H     H_    0.179217 0.630677 0.938653 0.096691
H19   H     H_    0.170165 0.649389 0.075182 0.152513
N1    N     N_R   0.246300 0.438200 0.549400 -0.214908
N2    N     N_R   0.754300 0.561180 0.451130 -0.231344
O1    O     O_R   0.972520 0.318130 0.524690 -0.503450
O2    O     O_R   0.806530 0.359650 0.491530 -0.610121
O3    O     O_R   0.083030 0.479240 0.637150 -0.550430
O4    O     O_R   0.917040 0.520750 0.603990 -0.589277
O5    O     O_R   0.193470 0.640350 0.508470 -0.594294
O6    O     O_R   0.027480 0.681870 0.475310 -0.550519
O7    O     O_R   0.082960 0.479250 0.396010 -0.577468
O8    O     O_R   0.916970 0.520760 0.362850 -0.583738
C43   C     C_2   0.172617 0.434626 0.115479 0.385873
H20   H     H_    0.248961 0.512390 0.091576 0.085555
O9    O     O_2   0.191393 0.368608 0.177855 -0.543975
O10   O     O_3   0.082161 0.868849 0.344714 -0.627363
C44   C     C_3   0.082488 0.836795 0.265002 0.026849
H21   H     H_    0.009633 0.747847 0.262294 0.171849
H22   H     H_    0.168841 0.833212 0.257350 0.123261
C45   C     C_3   0.054004 0.919173 0.188808 -0.338151
H23   H     H_    0.970439 0.925417 0.197699 0.220186
H24   H     H_    0.130024 0.007070 0.186540 0.220658
C46   C     C_3   0.034595 0.877172 0.102423 -0.875409
H25   H     H_    0.118734 0.874168 0.090435 0.250256
H26   H     H_    0.011941 0.937582 0.048910 0.264729
H27   H     H_    0.957925 0.789715 0.102741 0.259393
O11   O     O_3   0.931588 0.108363 0.605074 -0.585412
C47   C     C_3   0.985173 0.076141 0.550033 0.088902
H28   H     H_    0.025990 0.151103 0.498993 0.177591
H29   H     H_    0.919143 0.000627 0.517212 0.117713
C48   C     C_3   0.085051 0.042968 0.603356 -0.362325
H30   H     H_    0.153192 0.115602 0.636587 0.244357
H31   H     H_    0.044996 0.966999 0.653706 0.212403
C49   C     C_3   0.149086 0.012997 0.546025 -0.884115
H32   H     H_    0.082515 0.938027 0.513832 0.274500
H33   H     H_    0.221170 0.989573 0.586417 0.256771
H34   H     H_    0.191972 0.088364 0.495898 0.265552
C50   C     C_2   0.761118 0.882202 0.664026 0.388641
H35   H     H_    0.851968 0.910894 0.698374 0.111629
O12   O     O_2   0.690609 0.780307 0.679595 -0.542548
O13   O     O_3   0.149846 0.302460 0.667788 -0.558357
C51   C     C_3   0.181719 0.305812 0.758292 0.053791
H36   H     H_    0.128413 0.343671 0.779085 0.176387
H37   H     H_    0.279421 0.361434 0.777260 0.120029
C52   C     C_3   0.146192 0.182540 0.807647 -0.354689
H38   H     H_    0.048266 0.128627 0.789242 0.254382
H39   H     H_    0.200481 0.143329 0.790026 0.203856
C53   C     C_3   0.167945 0.181622 0.905732 -0.884285
H40   H     H_    0.265282 0.235331 0.925678 0.266317
H41   H     H_    0.143928 0.091456 0.939455 0.264441
H42   H     H_    0.110448 0.215669 0.925733 0.250954
O14   O     O_3   0.663003 0.759573 0.282847 -0.599816
C54   C     C_3   0.760628 0.869916 0.289404 0.043792
H43   H     H_    0.780754 0.913237 0.222133 0.183280
H44   H     H_    0.846491 0.866924 0.324859 0.149219
C55   C     C_3   0.724477 0.943916 0.330982 -0.348685
H45   H     H_    0.635170 0.941345 0.298711 0.242738
H46   H     H_    0.715533 0.908581 0.400981 0.208557
C56   C     C_3   0.819827 0.069614 0.322004 -0.903435
H47   H     H_    0.910236 0.074517 0.353304 0.252678
H48   H     H_    0.793441 0.121570 0.353534 0.248988
H49   H     H_    0.826764 0.107799 0.252340 0.265496
C57   C     C_2   0.779194 0.332871 0.077099 0.407608
H50   H     H_    0.768325 0.315997 0.145787 0.095868
O15   O     O_2   0.726872 0.252174 0.035661 -0.567330
C58   C     C_2   0.805814 0.536824 0.046670 0.310513
H51   H     H_    0.836804 0.623873 0.010624 0.136600
O16   O     O_2   0.727382 0.506415 0.095015 -0.541550
C59   C     C_2   0.068429 0.718685 0.883597 0.347437
H52   H     H_    0.134012 0.772745 0.837621 0.068439
O17   O     O_2   0.981463 0.739240 0.884445 -0.562896

loop_
_geom_bond_atom_site_label_1
_geom_bond_atom_site_label_2
_ccdc_geom_bond_type
C5    C42   S    
Cu1   O7    S    
C49   H32   S    
C46   H27   S    
C12   O4    A    
C3    C6    S    
C45   C46   S    
C54   H43   S    
C49   H34   S    
C7    C8    T    
O10   C44   S    
C10   C22   A    
C12   O3    A    
C4    H19   S    
C26   C27   A    
C43   O9    D    
C30   C35   A    
C28   C29   A    
C46   H26   S    
C38   C42   S    
C55   H46   S    
C37   O13   S    
C44   H22   S    
C9    C22   A    
C38   H8    S    
C52   H38   S    
C15   C16   A    
C11   C24   A    
Cu2   O6    S    
C35   H15   S    
C18   C19   A    
C7    C42   S    
C25   C37   A    
C14   H7    S    
Cu1   O3    S    
C6    C41   T    
C47   H29   S    
C31   C36   A    
C2    C43   S    
C56   H49   S    
C16   C20   A    
C25   C32   A    
C2    H1    S    
C13   C14   A    
C23   O5    A    
Cu2   N2    S    
O13   C51   S    
C34   C41   S    
C39   H17   S    
C21   H6    S    
C45   H24   S    
C56   H48   S    
Cu1   N1    S    
C45   H23   S    
C39   C42   S    
C10   C21   A    
C40   C57   S    
C43   H20   S    
C30   N2    A    
C23   O6    A    
C9    H5    S    
C46   H25   S    
C55   C56   S    
C39   C40   S    
C19   H4    S    
C20   H9    S    
C40   C58   S    
C48   C49   S    
C17   C21   A    
C1    O1    A    
C13   C50   S    
C59   O17   D    
Cu1   Cu2   S    
C58   O16   D    
C29   C30   A    
C36   H12   S    
C2    C38   S    
C31   C32   A    
C11   O11   S    
C8    C12   S    
C48   H31   S    
C17   C18   A    
Cu2   O4    S    
C51   H37   S    
C47   C48   S    
C27   O14   S    
C5    C59   S    
C50   O12   D    
C3    C40   S    
Cu1   O5    S    
C53   H42   S    
C3    C4    S    
C34   O7    A    
C51   H36   S    
C37   N1    A    
C56   H47   S    
C57   O15   D    
O14   C54   S    
C33   H10   S    
C15   C17   A    
C44   H21   S    
C26   N2    A    
C25   H11   S    
C22   O10   S    
C4    C5    S    
C54   H44   S    
C49   H33   S    
C1    O2    A    
C28   H14   S    
C10   C23   S    
C50   H35   S    
C32   C33   A    
C19   C20   A    
C53   H41   S    
C2    C3    S    
C29   C31   A    
C36   N1    A    
C55   H45   S    
C11   C13   A    
C44   C45   S    
C52   H39   S    
Cu1   O1    S    
C39   H16   S    
C48   H30   S    
C33   C35   A    
C5    H18   S    
C59   H52   S    
C51   C52   S    
Cu2   O8    S    
C26   H13   S    
C38   H2    S    
C54   C55   S    
C34   O8    A    
C9    C18   A    
O11   C47   S    
C1    C24   S    
C16   C24   A    
C27   C28   A    
C14   C15   A    
Cu2   O2    S    
C47   H28   S    
C53   H40   S    
C52   C53   S    
C58   H51   S    
C57   H50   S    
C4    H3    S    
