data_mof_unit_60800.cif
_audit_creation_date              2012-12-10T20:10:38-0500
_audit_creation_method            fapswitch 2.2
_symmetry_space_group_name_H-M    P1
_symmetry_Int_Tables_number       1
_space_group_crystal_system       triclinic
_cell_length_a                    15.911604
_cell_length_b                    15.909934
_cell_length_c                    42.892651
_cell_angle_alpha                 90.000559
_cell_angle_beta                  90.000849
_cell_angle_gamma                 90.064732
_cell_volume                      10858.3778806

loop_
_atom_site_label
_atom_site_type_symbol
_atom_type_description
_atom_site_fract_x
_atom_site_fract_y
_atom_site_fract_z
_atom_type_partial_charge
Br1   Br    Br    0.617504 0.137181 0.058978 -0.195077
Br2   Br    Br    0.057582 0.672108 0.441111 -0.186085
Br3   Br    Br    0.607764 0.853536 0.560176 -0.214282
Br4   Br    Br    0.609439 0.145560 0.439796 -0.202737
Br5   Br    Br    0.086173 0.342106 0.558447 -0.189260
Br6   Br    Br    0.942376 0.329189 0.441389 -0.188869
Br7   Br    Br    0.391896 0.146455 0.560210 -0.201406
Br8   Br    Br    0.390373 0.854533 0.439789 -0.202101
Br9   Br    Br    0.613783 0.140215 0.941059 -0.250057
Br10  Br    Br    0.846504 0.405345 0.058509 -0.193431
Br11  Br    Br    0.853785 0.394313 0.941467 -0.200584
Br12  Br    Br    0.381776 0.862745 0.059117 -0.196333
Br13  Br    Br    0.385276 0.859628 0.940804 -0.193220
Br14  Br    Br    0.153834 0.594734 0.058589 -0.193258
Br15  Br    Br    0.146549 0.605890 0.941389 -0.193438
Br16  Br    Br    0.912396 0.658568 0.558785 -0.245724
C1    C     C_R   0.499958 0.999961 0.131428 -0.054298
C2    C     C_R   0.499978 0.000001 0.665713 0.633256
C3    C     C_R   1.000000 0.500012 0.334265 0.629212
C4    C     C_R   0.999999 0.499691 0.665715 0.625646
C5    C     C_R   0.000009 0.500003 0.834316 0.621191
C6    C     C_R   0.000003 0.500000 0.165703 0.625798
C7    C     C_R   0.500008 0.999900 0.834288 0.624043
C8    C     C_R   0.499995 0.000000 0.165701 0.622202
C9    C     C_R   0.339868 0.160130 0.250001 0.528360
C10   C     C_R   0.660164 0.839903 0.749977 0.518664
C11   C     C_R   0.839885 0.339881 0.249999 0.544928
C12   C     C_R   0.500021 0.999819 0.868552 -0.043026
C13   C     C_R   0.160145 0.660087 0.750020 0.541772
C14   C     C_R   0.660131 0.839870 0.250001 0.528386
C15   C     C_R   0.339835 0.160095 0.749976 0.519222
C16   C     C_R   0.160116 0.660119 0.250000 0.545087
C17   C     C_R   0.839856 0.339912 0.750018 0.541022
C18   C     C_R   0.339921 0.839848 0.750022 0.534161
C19   C     C_R   0.660117 0.160113 0.250003 0.527069
C20   C     C_R   0.839904 0.660168 0.749978 0.542695
C21   C     C_R   0.160127 0.339865 0.250001 0.533932
C22   C     C_R   0.660084 0.160147 0.750019 0.540764
C23   C     C_R   0.000057 0.500002 0.131460 -0.050307
C24   C     C_R   0.339882 0.839887 0.250002 0.527098
C25   C     C_R   0.160094 0.339831 0.749978 0.537466
C26   C     C_R   0.839874 0.660135 0.250001 0.534017
C27   C     C_1   0.276636 0.776652 0.250006 0.023437
C28   C     C_1   0.723307 0.223410 0.750038 0.038513
C29   C     C_1   0.223364 0.276626 0.250002 0.026416
C30   C     C_1   0.776693 0.723436 0.749953 0.036094
C31   C     C_1   0.723364 0.223348 0.250006 0.023489
C32   C     C_1   0.276700 0.776583 0.750044 0.024622
C33   C     C_1   0.776637 0.723374 0.250002 0.026416
C34   C     C_R   0.000074 0.500020 0.868606 -0.055071
C35   C     C_1   0.223304 0.276561 0.749951 0.025775
C36   C     C_1   0.276568 0.223301 0.749949 0.018975
C37   C     C_1   0.723372 0.776633 0.250003 0.025454
C38   C     C_1   0.223413 0.723306 0.750044 0.029021
C39   C     C_1   0.776648 0.276629 0.250003 0.028054
C40   C     C_1   0.723429 0.776695 0.749951 0.025284
C41   C     C_1   0.276628 0.223367 0.250003 0.025448
C42   C     C_1   0.776593 0.276689 0.750039 0.037051
C43   C     C_1   0.223352 0.723371 0.250003 0.027968
C44   C     C_R   0.540030 0.066338 0.114952 0.206300
C45   C     C_R   0.000061 0.500005 0.631482 -0.042932
C46   C     C_R   0.538288 0.067306 0.884967 0.158900
C47   C     C_R   0.929928 0.466824 0.114985 0.205197
C48   C     C_R   0.932197 0.462493 0.885100 0.199724
C49   C     C_R   0.459753 0.933584 0.114995 0.206494
C50   C     C_R   0.461661 0.932420 0.884970 0.207850
C51   C     C_R   0.070243 0.533188 0.115020 0.205232
C52   C     C_R   0.068003 0.537596 0.885060 0.205766
C53   C     C_R   0.969438 0.571514 0.615212 0.158784
C54   C     C_R   0.021328 0.574925 0.384781 0.200724
C55   C     C_R   0.558762 0.949835 0.615004 0.197126
C56   C     C_R   0.999995 0.500207 0.368422 -0.052609
C57   C     C_R   0.559294 0.049741 0.384969 0.203042
C58   C     C_R   0.030748 0.429023 0.614936 0.203109
C59   C     C_R   0.978627 0.425700 0.384902 0.200891
C60   C     C_R   0.441053 0.050171 0.615023 0.203469
C61   C     C_R   0.440619 0.950291 0.384960 0.202954
C62   C     C_R   0.544668 0.062244 0.082142 0.153946
C63   C     C_R   0.542955 0.063516 0.917810 0.127868
C64   C     C_R   0.933148 0.462538 0.082119 0.148689
C65   C     C_R   0.935924 0.457997 0.917950 0.151337
C66   C     C_R   0.454800 0.937700 0.082193 0.153885
C67   C     C_R   0.499930 0.000004 0.631467 -0.041845
C68   C     C_R   0.456402 0.936547 0.917769 0.148283
C69   C     C_R   0.067126 0.537505 0.082153 0.148695
C70   C     C_R   0.064405 0.542105 0.917913 0.152531
C71   C     C_R   0.965280 0.569157 0.582295 0.126297
C72   C     C_R   0.023730 0.573540 0.417695 0.153361
C73   C     C_R   0.552146 0.943829 0.582335 0.143900
C74   C     C_R   0.552782 0.055786 0.417640 0.145759
C75   C     C_R   0.034657 0.432175 0.582070 0.150965
C76   C     C_R   0.976194 0.427491 0.417814 0.153203
C77   C     C_R   0.447601 0.056184 0.582351 0.145093
C78   C     C_R   0.499973 0.000006 0.368518 -0.041789
C79   C     C_R   0.447068 0.944284 0.417634 0.145710
C80   C     C_R   0.499643 0.999986 0.065869 -0.050920
C81   C     C_R   0.499508 0.000089 0.934098 -0.038323
C82   C     C_R   0.000163 0.500028 0.065889 -0.049058
C83   C     C_R   0.000203 0.500043 0.934202 -0.049169
C84   C     C_R   0.000021 0.500854 0.565898 -0.035786
C85   C     C_R   0.999946 0.500619 0.434054 -0.048659
C86   C     C_R   0.499866 0.000017 0.565926 -0.044607
C87   C     C_R   0.499910 0.000044 0.434054 -0.045888
C88   C     C_R   0.999943 0.500825 0.468412 0.391387
C89   C     C_R   0.499996 0.000001 0.334282 0.635148
C90   C     C_R   0.999960 0.501048 0.531553 0.395667
C91   C     C_R   0.499893 0.000053 0.468414 0.384792
C92   C     C_R   0.499870 0.000044 0.531566 0.385181
C93   C     C_R   0.499387 0.000016 0.968434 0.392921
C94   C     C_R   0.499500 0.999980 0.031552 0.390512
C95   C     C_R   0.000251 0.500057 0.968512 0.395835
C96   C     C_R   0.000215 0.500044 0.031606 0.395320
H1    H     H_    0.607070 0.285777 0.123940 0.389360
H2    H     H_    0.154066 0.751356 0.361775 0.395511
H3    H     H_    0.708147 0.909305 0.678714 0.367235
H4    H     H_    0.708784 0.089621 0.321185 0.358127
H5    H     H_    0.183192 0.274653 0.642312 0.394868
H6    H     H_    0.845914 0.248946 0.362221 0.395781
H7    H     H_    0.291643 0.090711 0.678741 0.359082
H8    H     H_    0.291199 0.910384 0.321153 0.358048
H9    H     H_    0.709935 0.134061 0.875909 0.376752
H10   H     H_    0.783411 0.309663 0.144794 0.384431
H11   H     H_    0.709233 0.409959 0.875723 0.401940
H12   H     H_    0.392900 0.714114 0.124043 0.389385
H13   H     H_    0.298117 0.804395 0.848716 0.385804
H14   H     H_    0.216623 0.690311 0.144955 0.384392
H15   H     H_    0.290684 0.591313 0.875608 0.395437
H16   H     H_    0.806705 0.663098 0.620777 0.385696
N1    N     N_R   0.531023 0.933618 0.015504 -0.132695
N2    N     N_R   0.926793 0.493530 0.484468 -0.131488
N3    N     N_R   0.573309 0.000012 0.515497 -0.126711
N4    N     N_R   0.426457 0.000674 0.484482 -0.126832
N5    N     N_R   0.926812 0.493518 0.515516 -0.133964
N6    N     N_R   0.073101 0.508232 0.484456 -0.131356
N7    N     N_R   0.426442 0.000085 0.515489 -0.126921
N8    N     N_R   0.573317 0.999432 0.484490 -0.126896
N9    N     N_R   0.467814 0.066357 0.984491 -0.128390
N10   N     N_R   0.979271 0.570520 0.015591 -0.135777
N11   N     N_R   0.021219 0.429590 0.984540 -0.135824
N12   N     N_R   0.467895 0.066352 0.015529 -0.131540
N13   N     N_R   0.530997 0.933652 0.984467 -0.136301
N14   N     N_R   0.021181 0.429576 0.015590 -0.135728
N15   N     N_R   0.979265 0.570518 0.984541 -0.135807
N16   N     N_R   0.073101 0.508434 0.515504 -0.130698
O1    O     O_3   0.500000 0.000000 0.250000 -0.490718
O2    O     O_R   0.500000 0.930740 0.680620 -0.480024
O3    O     O_3   0.329328 0.949255 0.332375 -0.538055
O4    O     O_R   0.930740 0.500000 0.319380 -0.487369
O5    O     O_R   0.069260 0.500000 0.680620 -0.485093
O6    O     O_R   0.000000 0.430740 0.819380 -0.486167
O7    O     O_R   0.000000 0.569260 0.180620 -0.485495
O8    O     O_R   0.569260 0.000000 0.819380 -0.482429
O9    O     O_R   0.430740 0.000000 0.180620 -0.482637
O10   O     O_R   0.000000 0.569260 0.819380 -0.486341
O11   O     O_R   0.000000 0.430740 0.180620 -0.485455
O12   O     O_R   0.430740 0.000000 0.819380 -0.482092
O13   O     O_3   0.500000 0.000000 0.750000 -0.490809
O14   O     O_R   0.569260 0.000000 0.180620 -0.482494
O15   O     O_R   0.402540 0.166630 0.268230 -0.520277
O16   O     O_R   0.597460 0.833370 0.731770 -0.511227
O17   O     O_R   0.833370 0.402540 0.268230 -0.512487
O18   O     O_R   0.166630 0.597460 0.731770 -0.524453
O19   O     O_R   0.597460 0.833370 0.268230 -0.520278
O20   O     O_R   0.402540 0.166630 0.731770 -0.512513
O21   O     O_R   0.166630 0.597460 0.268230 -0.512346
O22   O     O_R   0.833370 0.402540 0.731770 -0.528112
O23   O     O_R   0.402540 0.833370 0.731770 -0.521130
O24   O     O_3   0.000000 0.500000 0.250000 -0.489975
O25   O     O_R   0.597460 0.166630 0.268230 -0.515178
O26   O     O_R   0.833370 0.597460 0.731770 -0.502007
O27   O     O_R   0.166630 0.402540 0.268230 -0.521858
O28   O     O_R   0.597460 0.166630 0.731770 -0.525439
O29   O     O_R   0.402540 0.833370 0.268230 -0.515152
O30   O     O_R   0.166630 0.402540 0.731770 -0.510386
O31   O     O_R   0.833370 0.597460 0.268230 -0.521799
O32   O     O_R   0.902540 0.666630 0.768230 -0.529436
O33   O     O_R   0.097460 0.333370 0.231770 -0.524207
O34   O     O_R   0.333370 0.902540 0.768230 -0.514353
O35   O     O_3   0.000000 0.500000 0.750000 -0.492828
O36   O     O_R   0.666630 0.097460 0.231770 -0.508084
O37   O     O_R   0.097460 0.333370 0.768230 -0.526694
O38   O     O_R   0.902540 0.666630 0.231770 -0.524183
O39   O     O_R   0.666630 0.097460 0.768230 -0.501029
O40   O     O_R   0.333370 0.902540 0.231770 -0.508026
O41   O     O_R   0.902540 0.333370 0.231770 -0.512029
O42   O     O_R   0.097460 0.666630 0.768230 -0.507602
O43   O     O_R   0.333370 0.097460 0.231770 -0.526651
O44   O     O_R   0.666630 0.902540 0.768230 -0.528592
O45   O     O_R   0.097460 0.666630 0.231770 -0.511949
O46   O     O_R   0.500000 0.930740 0.319380 -0.479372
O47   O     O_R   0.902540 0.333370 0.768230 -0.504777
O48   O     O_R   0.666630 0.902540 0.231770 -0.526630
O49   O     O_R   0.333370 0.097460 0.768230 -0.525651
O50   O     O_2   0.542130 0.169328 0.165934 -0.297617
O51   O     O_2   0.675870 0.139863 0.139858 -0.229984
O52   O     O_3   0.571074 0.243143 0.113663 -0.420152
O53   O     O_2   0.531830 0.172082 0.834861 -0.262714
O54   O     O_2   0.573894 0.235046 0.883940 -0.175224
O55   O     O_3   0.680748 0.138358 0.855580 -0.451123
O56   O     O_2   0.831287 0.464517 0.167538 -0.304493
O57   O     O_R   0.500000 0.069260 0.680620 -0.479664
O58   O     O_2   0.760420 0.460148 0.117348 -0.191860
O59   O     O_3   0.838397 0.325883 0.135766 -0.445562
O60   O     O_2   0.831591 0.459260 0.833234 -0.297153
O61   O     O_2   0.850423 0.328428 0.862495 -0.209368
O62   O     O_3   0.753915 0.444420 0.885512 -0.423371
O63   O     O_2   0.458105 0.830604 0.165980 -0.297677
O64   O     O_2   0.324147 0.859974 0.140040 -0.230033
O65   O     O_3   0.428814 0.756765 0.113737 -0.420219
O66   O     O_2   0.462910 0.829853 0.833855 -0.305730
O67   O     O_2   0.434645 0.764237 0.883973 -0.186391
O68   O     O_R   0.069260 0.500000 0.319380 -0.487339
O69   O     O_3   0.317351 0.856166 0.859400 -0.448963
O70   O     O_2   0.168741 0.535382 0.167610 -0.304596
O71   O     O_2   0.239748 0.539906 0.117450 -0.191873
O72   O     O_3   0.161680 0.674101 0.135887 -0.445567
O73   O     O_2   0.168486 0.540688 0.833173 -0.300444
O74   O     O_2   0.149147 0.671761 0.862237 -0.227758
O75   O     O_3   0.246275 0.556478 0.885386 -0.422714
O76   O     O_2   0.979217 0.671283 0.666965 -0.268675
O77   O     O_2   0.956289 0.742225 0.617724 -0.158520
O78   O     O_3   0.832085 0.658473 0.641787 -0.447607
O79   O     O_R   0.930740 0.500000 0.680620 -0.486770
O80   O     O_2   0.027345 0.668390 0.330570 -0.309441
O81   O     O_2   0.991737 0.740540 0.378835 -0.186993
O82   O     O_3   0.146446 0.694363 0.370647 -0.429104
O83   O     O_2   0.612861 0.809841 0.643365 -0.216427
O84   O     O_2   0.718504 0.890163 0.614357 -0.157478
O85   O     O_3   0.670476 0.948424 0.667440 -0.535928
O86   O     O_2   0.614737 0.189535 0.356752 -0.217551
O87   O     O_2   0.719663 0.107949 0.385543 -0.177289
O88   O     O_3   0.670663 0.050745 0.332407 -0.537987
O89   O     O_2   0.034885 0.331595 0.667951 -0.308895
O90   O     O_R   0.500000 0.069260 0.319380 -0.479390
O91   O     O_2   0.027956 0.259710 0.617990 -0.177873
O92   O     O_3   0.168900 0.330398 0.633503 -0.435312
O93   O     O_2   0.972506 0.331625 0.330839 -0.309152
O94   O     O_2   0.008280 0.260040 0.379205 -0.186736
O95   O     O_3   0.853527 0.306046 0.370998 -0.429019
O96   O     O_2   0.386940 0.190211 0.643357 -0.223325
O97   O     O_2   0.281273 0.109718 0.614426 -0.171345
O98   O     O_3   0.329501 0.051671 0.667515 -0.536692
O99   O     O_2   0.385231 0.810480 0.356738 -0.217529
O100  O     O_2   0.280252 0.892067 0.385502 -0.177015
S1    S     S_3+6 0.583632 0.155140 0.134895 0.084703
S2    S     S_3+6 0.044339 0.671513 0.365012 0.090515
S3    S     S_3+6 0.642165 0.896706 0.634849 0.105618
S4    S     S_3+6 0.643130 0.102321 0.365106 0.093203
S5    S     S_3+6 0.063363 0.335098 0.634568 0.093367
S6    S     S_3+6 0.955607 0.328882 0.365292 0.090767
S7    S     S_3+6 0.357679 0.103298 0.634890 0.092205
S8    S     S_3+6 0.356817 0.897694 0.365082 0.093216
S9    S     S_3+6 0.579536 0.156571 0.864553 0.098130
S10   S     S_3+6 0.837198 0.431525 0.134777 0.085682
S11   S     S_3+6 0.841646 0.422191 0.865250 0.096149
S12   S     S_3+6 0.416358 0.844758 0.134983 0.084710
S13   S     S_3+6 0.421026 0.842350 0.864927 0.088553
S14   S     S_3+6 0.162912 0.568461 0.134859 0.085653
S15   S     S_3+6 0.158365 0.578073 0.865136 0.086339
S16   S     S_3+6 0.936412 0.663847 0.635850 0.103294
Zn1   Zn    Zn3+2 0.401050 1.000000 0.224090 1.057842
Zn2   Zn    Zn3+2 0.098950 0.500000 0.275910 1.065363
Zn3   Zn    Zn3+2 0.500000 0.901050 0.724090 1.051997
Zn4   Zn    Zn3+2 0.500000 0.098950 0.275910 1.051423
Zn5   Zn    Zn3+2 0.098950 0.500000 0.724090 1.063875
Zn6   Zn    Zn3+2 0.901050 0.500000 0.275910 1.065281
Zn7   Zn    Zn3+2 0.500000 0.098950 0.724090 1.051515
Zn8   Zn    Zn3+2 0.500000 0.901050 0.275910 1.051467
Zn9   Zn    Zn3+2 0.598950 1.000000 0.775910 1.060890
Zn10  Zn    Zn3+2 0.000000 0.401050 0.224090 1.063540
Zn11  Zn    Zn3+2 0.000000 0.598950 0.775910 1.063618
Zn12  Zn    Zn3+2 0.598950 1.000000 0.224090 1.057847
Zn13  Zn    Zn3+2 0.401050 1.000000 0.775910 1.053590
Zn14  Zn    Zn3+2 0.000000 0.598950 0.224090 1.063693
Zn15  Zn    Zn3+2 0.000000 0.401050 0.775910 1.064776
Zn16  Zn    Zn3+2 0.901050 0.500000 0.724090 1.068087

loop_
_geom_bond_atom_site_label_1
_geom_bond_atom_site_label_2
_ccdc_geom_bond_type
H6    O95   S    
H10   O59   S    
C46   S9    S    
C7    O8    A    
C78   C89   S    
C17   C42   S    
O39   Zn9   S    
O52   S1    S    
C52   C70   A    
C89   O90   A    
C34   C52   A    
C17   O22   A    
O97   S7    D    
C60   C77   A    
C55   S3    S    
O92   S5    S    
O45   Zn14  S    
C50   S13   S    
C54   C72   A    
O33   Zn10  S    
C58   S5    S    
C72   C85   A    
O89   S5    D    
O64   S12   D    
O84   S3    D    
C26   O38   A    
O66   S13   D    
C32   C38   T    
O51   S1    D    
Br13  C68   S    
O68   Zn2   S    
C88   N6    A    
C22   O28   A    
O1    Zn12  S    
C68   C81   A    
C14   O19   A    
O71   S14   D    
O76   S16   D    
C57   C74   A    
O28   Zn7   S    
O43   Zn1   S    
N10   N15   A    
O65   S12   S    
Br9   C63   S    
C24   O29   A    
O44   Zn9   S    
N11   N14   A    
C11   C39   S    
C47   S10   S    
N1    N13   A    
C13   C38   S    
C96   N14   A    
C49   S12   S    
C61   C78   A    
C44   C62   A    
O14   Zn12  S    
C13   O42   A    
C60   C67   A    
C94   N1    A    
C93   N9    A    
C11   O41   A    
O4    Zn6   S    
C4    C45   S    
H9    O55   S    
C92   N3    A    
C69   C82   A    
C9    O43   A    
O67   S13   D    
C2    C67   S    
C6    O7    A    
H7    O98   S    
H13   O69   S    
O42   Zn11  S    
C24   C27   S    
O79   Zn16  S    
O87   S4    D    
C28   C42   T    
O15   Zn4   S    
O50   S1    D    
C9    O15   A    
Br16  C71   S    
C5    O10   A    
Br2   C72   S    
O94   S6    D    
C14   O48   A    
C75   C84   A    
O1    Zn8   S    
O77   S16   D    
O9    Zn1   S    
O17   Zn6   S    
Br4   C74   S    
C53   C71   A    
C95   N15   A    
O38   Zn14  S    
C48   S11   S    
C64   C82   A    
O90   Zn4   S    
O26   Zn16  S    
C19   C31   S    
C44   S1    S    
C88   N2    A    
C7    O12   A    
H4    O88   S    
O95   S6    S    
Br1   C62   S    
C25   O37   A    
C3    C56   S    
Br8   C79   S    
C10   O44   A    
C57   C78   A    
O1    Zn4   S    
C56   C59   A    
O13   Zn7   S    
O62   S11   S    
C89   O46   A    
O31   Zn6   S    
O47   Zn15  S    
C5    C34   S    
N9    N12   A    
C25   O30   A    
C79   C87   A    
O82   S2    S    
C55   C67   A    
C6    O11   A    
C90   N5    A    
Br7   C77   S    
O20   Zn7   S    
O3    S8    S    
C51   C69   A    
C1    C8    S    
C66   C80   A    
C95   N11   A    
C3    O68   A    
C9    C41   S    
C96   N10   A    
C46   C63   A    
O96   S7    D    
C82   C96   S    
O6    Zn15  S    
C92   N7    A    
N3    N8    A    
C62   C80   A    
C15   O49   A    
O60   S11   D    
Br10  C64   S    
O72   S14   S    
O55   S9    S    
C57   S4    S    
C34   C48   A    
C65   C83   A    
H5    O92   S    
C5    O6    A    
C80   C94   S    
C61   C79   A    
O25   Zn4   S    
Br11  C65   S    
C22   O39   A    
C35   C36   T    
H11   O62   S    
O24   Zn6   S    
O88   S4    S    
C58   C75   A    
O27   Zn2   S    
C12   C50   A    
O63   S12   D    
C48   C65   A    
C22   C28   S    
C91   N8    A    
O24   Zn10  S    
C29   C41   T    
H2    O82   S    
C81   C93   S    
C55   C73   A    
O35   Zn15  S    
O8    Zn9   S    
O81   S2    D    
C83   C95   S    
O83   S3    D    
C73   C86   A    
O40   Zn1   S    
Br12  C66   S    
O2    Zn3   S    
C61   S8    S    
O23   Zn3   S    
C14   C37   S    
O48   Zn12  S    
C86   C92   S    
C70   C83   A    
O36   Zn12  S    
O22   Zn16  S    
O12   Zn13  S    
Br5   C75   S    
O19   Zn8   S    
H14   O72   S    
O41   Zn10  S    
C54   S2    S    
Br15  C70   S    
C76   C85   A    
O35   Zn5   S    
O54   S9    D    
O80   S2    D    
C1    C49   A    
O13   Zn3   S    
C25   C35   S    
C20   O32   A    
C85   C88   S    
O35   Zn11  S    
O30   Zn5   S    
O1    Zn1   S    
C19   O25   A    
H1    O52   S    
O93   S6    D    
C18   O34   A    
N2    N5    A    
C7    C12   S    
C4    O5    A    
O98   S7    S    
H16   O78   S    
O10   Zn11  S    
C59   S6    S    
C59   C76   A    
O37   Zn15  S    
O11   Zn10  S    
O86   S4    D    
C8    O9    A    
O34   Zn13  S    
N6    N16   A    
C31   C39   T    
C71   C84   A    
C10   O16   A    
C45   C53   A    
C19   O36   A    
C15   O20   A    
O99   S8    D    
O100  S8    D    
O69   S13   S    
C10   C40   S    
O49   Zn13  S    
C20   O26   A    
C13   O18   A    
C63   C81   A    
Br14  C69   S    
C91   N4    A    
C2    O2    A    
O61   S11   D    
C77   C86   A    
C21   O27   A    
C52   S15   S    
C54   C56   A    
H15   O75   S    
O16   Zn3   S    
C90   N16   A    
C27   C43   T    
C45   C58   A    
C47   C64   A    
C23   C47   A    
O18   Zn5   S    
C84   C90   S    
C3    O4    A    
O73   S15   D    
C15   C36   S    
Br3   C73   S    
C26   O31   A    
C87   C91   S    
O46   Zn8   S    
O59   S10   S    
C94   N12   A    
C17   O47   A    
C11   O17   A    
O13   Zn13  S    
C20   C30   S    
O75   S15   S    
C49   C66   A    
O58   S10   D    
O24   Zn2   S    
O35   Zn16  S    
N4    N7    A    
C33   C37   T    
C6    C23   S    
C4    O79   A    
O24   Zn14  S    
C16   O45   A    
C2    O57   A    
C8    O14   A    
Br6   C76   S    
O53   S9    D    
O13   Zn9   S    
O7    Zn14  S    
C23   C51   A    
C74   C87   A    
H3    O85   S    
C51   S14   S    
C26   C33   S    
C50   C68   A    
O85   S3    S    
O74   S15   D    
C18   C32   S    
H8    O3    S    
H12   O65   S    
C1    C44   A    
C53   S16   S    
O91   S5    D    
O21   Zn2   S    
O70   S14   D    
C93   N13   A    
O57   Zn7   S    
C16   C43   S    
C30   C40   T    
C16   O21   A    
C60   S7    S    
C21   C29   S    
C21   O33   A    
O29   Zn8   S    
O78   S16   S    
O5    Zn5   S    
C18   O23   A    
O32   Zn11  S    
O56   S10   D    
C24   O40   A    
C12   C46   A    
