data_mof_unit_59688.cif
_audit_creation_date              2012-12-11T14:21:08-0500
_audit_creation_method            fapswitch 2.2
_symmetry_space_group_name_H-M    P1
_symmetry_Int_Tables_number       1
_space_group_crystal_system       triclinic
_cell_length_a                    21.954051
_cell_length_b                    7.209196
_cell_length_c                    14.926265
_cell_angle_alpha                 89.997716
_cell_angle_beta                  106.908899
_cell_angle_gamma                 89.998747
_cell_volume                      2260.26563382

loop_
_atom_site_label
_atom_site_type_symbol
_atom_type_description
_atom_site_fract_x
_atom_site_fract_y
_atom_site_fract_z
_atom_type_partial_charge
O1    O     O_R   0.584770 0.505770 0.002090 -0.542312
O2    O     O_R   0.415230 0.005770 0.997910 -0.542316
O3    O     O_R   0.467060 0.173340 0.861950 -0.536355
O4    O     O_R   0.532940 0.673340 0.138050 -0.536367
C1    C     C_R   0.455365 0.344191 0.825977 0.701537
C2    C     C_R   0.544637 0.844184 0.174022 0.701547
O5    O     O_R   0.587510 0.175890 0.993210 -0.542008
O6    O     O_R   0.412490 0.675890 0.006790 -0.542002
O7    O     O_R   0.536540 0.008150 0.130100 -0.533964
O8    O     O_R   0.463460 0.508150 0.869900 -0.533968
C3    C     C_R   0.612957 0.344920 0.997413 0.729800
C4    C     C_R   0.387043 0.844923 0.002589 0.729812
O9    O     O_3   0.483140 0.340040 0.044760 -0.377503
O10   O     O_3   0.516860 0.840040 0.955240 -0.377504
V1    V     V_3+5 0.503130 0.064190 0.991700 1.441719
V2    V     V_3+5 0.496870 0.564190 0.008300 1.441729
C5    C     C_2   0.214019 0.727655 0.003529 -0.128414
C6    C     C_2   0.785975 0.227662 0.996423 -0.128404
C7    C     C_2   0.180343 0.886742 0.996327 -0.304399
C8    C     C_2   0.819655 0.386744 0.003663 -0.304410
H1    H     H_    0.190915 0.596879 0.009344 0.138630
H2    H     H_    0.809076 0.096896 0.990577 0.138644
H3    H     H_    0.201916 0.018947 0.989388 0.127714
H4    H     H_    0.798083 0.518943 0.010618 0.127721
C9    C     C_2   0.281894 0.714642 0.003246 -0.135695
C10   C     C_2   0.718095 0.214640 0.996689 -0.135734
C11   C     C_2   0.319968 0.861422 0.003656 -0.294311
C12   C     C_2   0.680035 0.361418 0.996363 -0.294306
H5    H     H_    0.301026 0.575692 0.003378 0.136342
H6    H     H_    0.698950 0.075687 0.996472 0.136354
H7    H     H_    0.302100 0.001203 0.004466 0.130497
H8    H     H_    0.697917 0.501204 0.995638 0.130504
C13   C     C_R   0.926362 0.888391 0.724268 -0.026649
C14   C     C_R   0.073648 0.388239 0.275718 -0.026527
C15   C     C_R   0.572505 0.850584 0.275542 -0.098726
C16   C     C_R   0.427499 0.350587 0.724455 -0.098721
C17   C     C_R   0.935706 0.919952 0.568025 -0.163542
C18   C     C_R   0.064236 0.417737 0.432009 -0.163531
C19   C     C_R   0.963926 0.914448 0.664363 -0.175027
C20   C     C_R   0.036033 0.412888 0.335657 -0.175147
C21   C     C_R   0.860373 0.868839 0.688017 -0.205821
C22   C     C_R   0.139660 0.369352 0.311943 -0.205740
C23   C     C_R   0.830108 0.877929 0.590349 0.083936
C24   C     C_R   0.169891 0.377459 0.409639 0.083948
C25   C     C_R   0.869402 0.903080 0.530699 0.138644
C26   C     C_R   0.130558 0.401396 0.469322 0.138643
C27   C     C_R   0.762498 0.865103 0.550162 0.060700
C28   C     C_R   0.237503 0.364740 0.449831 0.060708
C29   C     C_R   0.735486 0.876515 0.450792 0.087625
C30   C     C_R   0.264496 0.375650 0.549218 0.087623
C31   C     C_R   0.777075 0.900483 0.394896 -0.182660
C32   C     C_R   0.222870 0.398422 0.605145 -0.182628
C33   C     C_R   0.842427 0.913260 0.434226 -0.207098
C34   C     C_R   0.157506 0.410761 0.565821 -0.207092
C35   C     C_R   0.721042 0.842209 0.606042 -0.203571
C36   C     C_R   0.278972 0.342159 0.393950 -0.203571
C37   C     C_R   0.655690 0.829268 0.566887 -0.108505
C38   C     C_R   0.344324 0.329251 0.433111 -0.108514
C39   C     C_R   0.628125 0.837915 0.470036 0.041618
C40   C     C_R   0.371882 0.337792 0.529965 0.041606
C41   C     C_R   0.667846 0.862849 0.410596 0.036339
C42   C     C_R   0.332148 0.362447 0.589406 0.036324
C43   C     C_R   0.561364 0.820309 0.431199 0.465407
C44   C     C_R   0.438648 0.320334 0.568802 0.465425
C45   C     C_R   0.534315 0.825014 0.334423 -0.170187
C46   C     C_R   0.465695 0.325065 0.665579 -0.170170
C47   C     C_R   0.638209 0.870796 0.312814 -0.209827
C48   C     C_R   0.361789 0.370633 0.687180 -0.209841
H9    H     H_    0.872228 0.932305 0.388356 0.124495
H10   H     H_    0.127673 0.428777 0.611721 0.124469
H11   H     H_    0.664535 0.888315 0.262811 0.105866
H12   H     H_    0.335466 0.388361 0.737172 0.105893
H13   H     H_    0.483340 0.807937 0.304911 0.145758
H14   H     H_    0.516675 0.308075 0.695094 0.145752
H15   H     H_    0.626918 0.811194 0.614075 0.184449
H16   H     H_    0.373104 0.311328 0.385924 0.184451
H17   H     H_    0.965708 0.939985 0.522561 0.118334
H18   H     H_    0.034198 0.436724 0.477504 0.118327
H19   H     H_    0.014996 0.931441 0.692285 0.106959
H20   H     H_    0.984937 0.429260 0.307756 0.106922
H21   H     H_    0.834371 0.850783 0.738438 0.096251
H22   H     H_    0.165699 0.352530 0.261487 0.096154
H23   H     H_    0.761005 0.910683 0.319817 0.122015
H24   H     H_    0.238912 0.407694 0.680256 0.121955
H25   H     H_    0.737366 0.833316 0.681188 0.123911
H26   H     H_    0.262654 0.333243 0.318807 0.123928
O11   O     O_R   0.036450 0.233070 0.130130 -0.538081
O12   O     O_R   0.963550 0.733070 0.869870 -0.538103
O13   O     O_R   0.912470 0.560570 0.006790 -0.545457
O14   O     O_R   0.087530 0.060570 0.993210 -0.545459
C49   C     C_R   0.886982 0.391925 0.002553 0.731037
C50   C     C_R   0.113017 0.891922 0.997444 0.731051
O15   O     O_R   0.032920 0.562940 0.138050 -0.538535
O16   O     O_R   0.967080 0.062940 0.861950 -0.538529
O17   O     O_R   0.084790 0.730500 0.002090 -0.537118
O18   O     O_R   0.915210 0.230500 0.997910 -0.537114
C51   C     C_R   0.044938 0.394566 0.174416 0.684503
C52   C     C_R   0.955060 0.894582 0.825580 0.684492
O19   O     O_3   0.016820 0.396170 0.955260 -0.378750
O20   O     O_3   0.983180 0.896170 0.044740 -0.378733
V3    V     V_3+5 0.996880 0.672090 0.008300 1.416182
V4    V     V_3+5 0.003120 0.172090 0.991700 1.416179
Cl1   Cl    Cl    0.509365 0.788540 0.500582 -0.595745
Cl2   Cl    Cl    0.490654 0.288648 0.499425 -0.595740

loop_
_geom_bond_atom_site_label_1
_geom_bond_atom_site_label_2
_ccdc_geom_bond_type
C43   C45   A    
O4    V2    S    
O18   V4    S    
C22   H22   S    
C28   C36   A    
O2    C4    A    
C2    O7    A    
O12   V3    S    
C38   H16   S    
C27   C29   A    
O5    C3    A    
C13   C19   A    
C14   C20   A    
C16   C46   A    
C37   C39   A    
C15   C45   A    
C38   C40   A    
C46   H14   S    
C1    C16   S    
C14   C51   S    
C45   H13   S    
C2    C15   S    
C40   C42   A    
C13   C52   S    
C32   H24   S    
O14   V4    S    
C7    C50   S    
C49   O18   A    
O14   C50   A    
C8    H4    S    
C24   C26   A    
C14   C22   A    
C29   C31   A    
C6    C10   S    
C30   C32   A    
C20   H20   S    
O13   C49   A    
C47   H11   S    
C48   H12   S    
C28   C30   A    
C33   H9    S    
O6    V2    S    
C21   C23   A    
C22   C24   A    
C32   C34   A    
C9    H5    S    
C8    C49   S    
C39   C41   A    
C29   C41   A    
C4    C11   S    
C11   H7    S    
C12   H8    S    
C43   Cl1   S    
O15   V3    S    
C18   H18   S    
C17   H17   S    
C50   O17   A    
C5    H1    S    
C31   C33   A    
C19   H19   S    
C35   H25   S    
C7    H3    S    
O11   V4    S    
C41   C47   A    
O15   C51   A    
C36   H26   S    
C34   H10   S    
C15   C47   A    
O6    C4    A    
C21   H21   S    
C26   C34   A    
O1    V2    S    
O2    V1    S    
C23   C25   A    
O4    C2    A    
C10   H6    S    
C35   C37   A    
C30   C42   A    
C17   C25   A    
C31   H23   S    
O3    V1    S    
C27   C35   A    
C44   Cl2   S    
O13   V3    S    
C6    H2    S    
C10   C12   D    
O3    C1    A    
C16   C48   A    
C9    C11   D    
C39   C43   A    
C42   C48   A    
C40   C44   A    
C13   C21   A    
C37   H15   S    
O7    V1    S    
C5    C9    S    
C1    O8    A    
C17   C19   A    
O8    V2    S    
C18   C20   A    
C3    C12   S    
O5    V1    S    
O20   V3    S    
C5    C7    D    
C36   C38   A    
C6    C8    D    
C18   C26   A    
C25   C33   A    
O17   V3    S    
O19   V4    S    
O16   V4    S    
O9    V2    S    
O16   C52   A    
O10   V1    S    
O1    C3    A    
C23   C27   A    
O12   C52   A    
C24   C28   A    
C44   C46   A    
O11   C51   A    
