data_mof_unit_46842.cif
_audit_creation_date              2012-12-11T17:43:33-0500
_audit_creation_method            fapswitch 2.2
_symmetry_space_group_name_H-M    P1
_symmetry_Int_Tables_number       1
_space_group_crystal_system       triclinic
_cell_length_a                    15.077038
_cell_length_b                    15.145629
_cell_length_c                    16.953756
_cell_angle_alpha                 108.979149
_cell_angle_beta                  106.227041
_cell_angle_gamma                 109.305911
_cell_volume                      3113.40099589

loop_
_atom_site_label
_atom_site_type_symbol
_atom_type_description
_atom_site_fract_x
_atom_site_fract_y
_atom_site_fract_z
_atom_type_partial_charge
C1    C     C_R   0.089392 0.275648 0.030789 -0.121169
C2    C     C_R   0.086173 0.063200 0.946568 -0.234115
C3    C     C_R   0.999626 0.884108 0.921660 0.045947
C4    C     C_R   0.995739 0.072789 0.941866 0.053516
C5    C     C_R   0.089542 0.969349 0.936865 0.075686
C6    C     C_R   0.903018 0.982577 0.916180 0.074509
C7    C     C_R   0.714850 0.928078 0.829248 -0.199161
C8    C     C_R   0.279972 0.036905 0.028316 -0.204030
C9    C     C_R   0.615657 0.978999 0.908543 -0.207023
C10   C     C_R   0.372334 0.947064 0.972048 -0.203475
C11   C     C_R   0.491630 0.679866 0.353854 -0.111787
C12   C     C_R   0.914555 0.707130 0.916815 -0.140123
C13   C     C_R   0.525900 0.441674 0.732038 -0.093000
C14   C     C_R   0.505534 0.673248 0.274351 -0.121107
C15   C     C_R   0.531263 0.457628 0.819566 -0.075237
C16   C     C_R   0.934654 0.443117 0.737073 -0.132825
C17   C     C_R   0.063328 0.494156 0.259393 -0.146342
C18   C     C_R   0.523434 0.591687 0.224598 0.101546
C19   C     C_R   0.559291 0.558409 0.886418 0.095046
C20   C     C_R   0.527721 0.517440 0.256144 -0.139534
C21   C     C_R   0.579699 0.642258 0.863811 -0.151905
C22   C     C_R   0.514248 0.524631 0.335937 -0.082403
C23   C     C_R   0.025125 0.453386 0.726308 0.087526
C24   C     C_R   0.574777 0.625926 0.776348 -0.111494
C25   C     C_R   0.496113 0.605690 0.384691 -0.108774
C26   C     C_R   0.548032 0.525733 0.710548 -0.092947
C27   C     C_R   0.618117 0.569569 0.126217 -0.209115
C28   C     C_R   0.483725 0.593325 0.993512 -0.168687
C29   C     C_R   0.629346 0.561662 0.045224 0.062469
C30   C     C_R   0.464052 0.587690 0.067744 0.047383
C31   C     C_R   0.562040 0.575572 0.978612 0.010449
C32   C     C_R   0.534868 0.582774 0.138571 0.022569
C33   C     C_R   0.621153 0.927038 0.826670 -0.197470
C34   C     C_R   0.970715 0.444880 0.264541 0.095943
C35   C     C_R   0.371233 0.027270 0.041230 -0.130346
C36   C     C_R   0.958592 0.418007 0.337324 0.089570
C37   C     C_R   0.026530 0.404898 0.635830 0.066512
C38   C     C_R   0.119744 0.406165 0.539887 -0.213253
C39   C     C_R   0.855260 0.370123 0.416729 -0.188694
C40   C     C_R   0.718727 0.216675 0.824426 -0.145556
C41   C     C_R   0.224138 0.797217 0.187825 -0.122172
C42   C     C_R   0.117872 0.413645 0.624014 0.232360
C43   C     C_R   0.866883 0.400950 0.350500 0.222022
C44   C     C_R   0.934561 0.366893 0.557531 -0.258648
C45   C     C_R   0.661656 0.219534 0.746678 0.071619
C46   C     C_R   0.040014 0.410739 0.395794 -0.241572
C47   C     C_R   0.939237 0.371583 0.479064 0.147392
C48   C     C_R   0.033101 0.393992 0.470362 0.146853
C49   C     C_R   0.552406 0.146193 0.680445 0.116089
C50   C     C_R   0.282332 0.898997 0.361163 0.126529
C51   C     C_R   0.384425 0.088662 0.446962 -0.211464
C52   C     C_R   0.406375 0.971891 0.608585 -0.187472
C53   C     C_R   0.317876 0.998373 0.363267 -0.157316
C54   C     C_R   0.497920 0.053638 0.684463 -0.157867
C55   C     C_R   0.299268 0.892529 0.444346 -0.262067
C56   C     C_R   0.242010 0.803453 0.274822 0.056896
C57   C     C_R   0.506517 0.161846 0.605452 -0.282155
C58   C     C_R   0.370795 0.981633 0.527836 0.164402
C59   C     C_R   0.417843 0.079243 0.528063 0.197784
C60   C     C_R   0.703300 0.030228 0.993875 0.607272
C61   C     C_R   0.282516 0.876744 0.888791 0.593573
C62   C     C_R   0.797106 0.030274 0.996604 -0.311021
C63   C     C_R   0.190248 0.885325 0.876239 -0.301018
C64   C     C_R   0.300640 0.597908 0.005860 -0.138758
C65   C     C_R   0.736065 0.462547 0.046432 -0.114008
C66   C     C_R   0.803931 0.981634 0.914069 0.044591
C67   C     C_R   0.359286 0.565735 0.055889 0.058054
C68   C     C_R   0.188260 0.964694 0.946503 0.056251
C69   C     C_R   0.724289 0.311166 0.748306 -0.140961
C70   C     C_R   0.220150 0.702974 0.265712 -0.124346
C71   C     C_R   0.295617 0.499646 0.079135 -0.111780
C72   C     C_R   0.754373 0.565661 0.976421 -0.119709
C73   C     C_R   0.108094 0.530283 0.812006 -0.014188
C74   C     C_R   0.890525 0.407712 0.179837 -0.064997
C75   C     C_R   0.916413 0.195224 0.946465 -0.113081
C76   C     C_R   0.086360 0.794968 0.998039 -0.134709
C77   C     C_R   0.001614 0.177428 0.968982 0.059500
C78   C     C_R   0.708780 0.536116 0.029304 0.048442
C79   C     C_R   0.001780 0.798527 0.943202 0.078110
C80   C     C_R   0.905840 0.889220 0.902453 -0.233231
H1    H     H_    0.169437 0.291622 0.063502 0.095740
H2    H     H_    0.513454 0.391779 0.835271 0.123251
H3    H     H_    0.539203 0.452790 0.217873 0.145122
H4    H     H_    0.600051 0.720167 0.914128 0.147418
H5    H     H_    0.517167 0.466898 0.359615 0.120000
H6    H     H_    0.591265 0.690801 0.759443 0.124659
H7    H     H_    0.673135 0.563755 0.178703 0.164241
H8    H     H_    0.429537 0.597314 0.938904 0.168828
H9    H     H_    0.110991 0.424365 0.387068 0.123649
H10   H     H_    0.860658 0.349729 0.560481 0.124790
H11   H     H_    0.190797 0.417397 0.531682 0.149545
H12   H     H_    0.837294 0.675455 0.863137 0.098332
H13   H     H_    0.784944 0.357730 0.426671 0.145826
H14   H     H_    0.855222 0.389706 0.687187 0.102836
H15   H     H_    0.141120 0.517944 0.307615 0.093693
H16   H     H_    0.552900 0.886502 0.761064 0.174138
H17   H     H_    0.440850 0.081334 0.105430 0.170660
H18   H     H_    0.545386 0.233135 0.601436 0.109933
H19   H     H_    0.267387 0.817231 0.444365 0.127664
H20   H     H_    0.529120 0.040731 0.742868 0.134389
H21   H     H_    0.301808 0.006670 0.300572 0.117976
H22   H     H_    0.417987 0.163874 0.446804 0.126181
H23   H     H_    0.718504 0.888323 0.765253 0.137950
H24   H     H_    0.369654 0.897977 0.609963 0.169936
H25   H     H_    0.543165 0.979349 0.905192 0.186927
H26   H     H_    0.443108 0.939642 0.983484 0.204746
H27   H     H_    0.865204 0.069434 0.062208 0.180081
H28   H     H_    0.120003 0.830148 0.812640 0.178517
H29   H     H_    0.688944 0.165559 0.852872 0.110556
H30   H     H_    0.233314 0.860064 0.169121 0.096829
H31   H     H_    0.328332 0.659963 0.986962 0.143476
H32   H     H_    0.711565 0.421507 0.084024 0.139524
H33   H     H_    0.700541 0.347758 0.707147 0.088728
H34   H     H_    0.279738 0.098209 0.083360 0.130608
H35   H     H_    0.227830 0.679014 0.319400 0.096692
H36   H     H_    0.317914 0.466367 0.124088 0.103414
H37   H     H_    0.753814 0.624467 0.954043 0.116975
H38   H     H_    0.190136 0.561981 0.829820 0.169441
H39   H     H_    0.810925 0.348768 0.152636 0.178365
H40   H     H_    0.837713 0.140814 0.895680 0.123488
H41   H     H_    0.167799 0.847636 0.024574 0.114343
H42   H     H_    0.835371 0.824264 0.888599 0.132101
H43   H     H_    0.155630 0.130072 0.961138 0.138197
H44   H     H_    0.626735 0.194766 0.139896 0.378778
H45   H     H_    0.485288 0.610870 0.446227 0.106224
H46   H     H_    0.375054 0.692112 0.797125 0.384732
H47   H     H_    0.543786 0.513060 0.642695 0.103208
H48   H     H_    0.477240 0.742436 0.391474 0.117323
H49   H     H_    0.503723 0.363990 0.680605 0.112622
H50   H     H_    0.501855 0.731335 0.251312 0.125859
I1    I     I_    0.751140 0.441295 0.291752 -0.530345
I2    I     I_    0.251372 0.428493 0.723426 -0.463092
N1    N     N_R   0.055660 0.348550 0.045620 -0.043087
N2    N     N_R   0.185200 0.638170 0.176300 -0.042209
N3    N     N_R   0.201680 0.494570 0.045620 -0.041921
N4    N     N_R   0.798320 0.505430 0.954380 -0.045178
N5    N     N_R   0.068420 0.560530 0.871650 -0.056917
N6    N     N_R   0.931580 0.439470 0.128350 -0.051798
N7    N     N_R   0.948070 0.295860 0.997670 -0.043833
N8    N     N_R   0.051930 0.704140 0.002330 -0.042248
N9    N     N_R   0.944340 0.651450 0.954380 -0.040633
N10   N     N_R   0.960830 0.507850 0.823700 -0.047093
N11   N     N_R   0.039170 0.492150 0.176300 -0.042700
N12   N     N_R   0.811290 0.303410 0.871650 -0.042355
N13   N     N_R   0.188710 0.696590 0.128350 -0.043316
N14   N     N_R   0.205200 0.552990 0.997670 -0.046577
N15   N     N_R   0.794800 0.447010 0.002330 -0.043584
N16   N     N_R   0.814800 0.361830 0.823700 -0.041213
Ni1   Ni    Ni4+2 0.119340 0.493420 0.109960 0.217785
Ni2   Ni    Ni4+2 0.880660 0.506580 0.890040 0.214513
Ni3   Ni    Ni4+2 0.872590 0.372590 0.000000 0.242325
Ni4   Ni    Ni4+2 0.127410 0.627410 0.000000 0.230864
O1    O     O_2   0.637001 0.012203 0.120296 -0.301097
O2    O     O_2   0.802044 0.167616 0.174722 -0.315809
O3    O     O_3   0.629239 0.161895 0.080180 -0.582996
O4    O     O_2   0.179414 0.691418 0.734271 -0.303137
O5    O     O_2   0.334490 0.829686 0.749050 -0.330570
O6    O     O_3   0.362177 0.732663 0.847771 -0.581901
S1    S     S_3+6 0.694902 0.093897 0.096642 -0.083763
S2    S     S_3+6 0.287227 0.779837 0.800499 -0.080925

loop_
_geom_bond_atom_site_label_1
_geom_bond_atom_site_label_2
_ccdc_geom_bond_type
O6    S2    S    
N5    N10   A    
C27   C29   A    
C1    C77   A    
C14   C18   A    
C16   N10   A    
C76   C79   A    
N12   N16   A    
C19   C31   S    
C41   C56   A    
C46   H9    S    
C80   H42   S    
C2    H43   S    
C51   H22   S    
C15   C19   A    
C74   H39   S    
C74   N6    A    
C69   H33   S    
C76   H41   S    
C19   C21   A    
N16   Ni2   S    
C38   C42   A    
N12   Ni3   S    
N6    N11   A    
C71   N3    A    
C11   C14   A    
C57   C59   A    
C11   C25   A    
C1    H1    S    
C49   C54   A    
C12   C79   A    
C49   C57   A    
C12   N9    A    
C60   C62   A    
C22   H5    S    
N7    Ni3   S    
C37   C42   A    
C61   C63   A    
C25   H45   S    
C39   H13   S    
C72   C78   A    
C29   C78   S    
C53   H21   S    
C22   C25   A    
C42   I2    S    
C72   H37   S    
C28   H8    S    
N11   Ni1   S    
C60   S1    S    
N5    Ni4   S    
C36   C46   A    
C10   C35   A    
C17   H15   S    
C65   N15   A    
N8    Ni4   S    
C67   C71   A    
C30   C67   S    
C44   C47   A    
C8    H34   S    
C76   N8    A    
C3    C79   S    
C7    H23   S    
C9    C33   A    
C7    C33   A    
C54   H20   S    
C23   C73   A    
C5    C68   S    
C1    N1    A    
C3    C80   A    
C52   C54   A    
N9    Ni2   S    
C15   H2    S    
H46   O6    S    
C51   C59   A    
C40   C45   A    
C46   C48   A    
C50   C53   A    
C62   C66   A    
C45   C69   A    
N13   Ni4   S    
C64   C67   A    
O4    S2    D    
N1    Ni1   S    
N8    N9    A    
C4    C6    A    
C61   S2    S    
C64   H31   S    
C39   C43   A    
C62   H27   S    
C58   C59   A    
N3    Ni1   S    
N2    Ni1   S    
O3    S1    S    
C38   H11   S    
C50   C56   S    
C24   H6    S    
C51   C53   A    
C8    C35   A    
O1    S1    D    
C2    C4    A    
C65   H32   S    
C6    C80   A    
C47   C48   A    
C21   H4    S    
C45   C49   S    
N3    N14   A    
C27   H7    S    
C75   C77   A    
C52   C58   A    
C34   C74   A    
N14   Ni4   S    
C20   C22   A    
C8    C68   A    
O5    S2    D    
C56   C70   A    
C41   H30   S    
C40   N12   A    
C13   C15   A    
C70   H35   S    
C13   C26   A    
C10   H26   S    
C10   C61   A    
C18   C32   S    
C17   C34   A    
C21   C24   A    
C33   H16   S    
C44   H10   S    
C39   C47   A    
C14   H50   S    
N2    N13   A    
C63   C68   A    
C52   H24   S    
C73   H38   S    
C64   N14   A    
C27   C32   A    
C38   C48   A    
C12   H12   S    
C28   C31   A    
C75   H40   S    
C24   C26   A    
C3    C5    A    
N4    Ni2   S    
N1    N7    A    
C40   H29   S    
N6    Ni3   S    
C16   C23   A    
C16   H14   S    
C50   C55   A    
C17   N11   A    
C65   C78   A    
C9    C60   A    
N10   Ni2   S    
C37   C44   A    
C28   C30   A    
C11   H48   S    
H44   O3    S    
O2    S1    D    
C29   C31   A    
C23   C37   S    
C7    C66   A    
C30   C32   A    
C55   C58   A    
C73   N5    A    
N15   Ni3   S    
C43   I1    S    
C34   C36   S    
C71   H36   S    
C18   C20   A    
C26   H47   S    
C57   H18   S    
N4    N15   A    
C72   N4    A    
C2    C5    A    
C4    C77   S    
C6    C66   S    
C41   N13   A    
C20   H3    S    
C55   H19   S    
C70   N2    A    
C69   N16   A    
C13   H49   S    
C36   C43   A    
C75   N7    A    
C63   H28   S    
C35   H17   S    
C9    H25   S    
