data_mof_unit_34802.cif
_audit_creation_date              2012-12-10T17:47:13-0500
_audit_creation_method            fapswitch 2.2
_symmetry_space_group_name_H-M    P1
_symmetry_Int_Tables_number       1
_space_group_crystal_system       triclinic
_cell_length_a                    11.707073
_cell_length_b                    14.712355
_cell_length_c                    14.639887
_cell_angle_alpha                 64.891623
_cell_angle_beta                  103.068768
_cell_angle_gamma                 102.92077
_cell_volume                      2200.73025795

loop_
_atom_site_label
_atom_site_type_symbol
_atom_type_description
_atom_site_fract_x
_atom_site_fract_y
_atom_site_fract_z
_atom_type_partial_charge
C1    C     C_R   0.482785 0.119895 0.311860 0.813724
C2    C     C_R   0.520791 0.880101 0.688195 0.811860
C3    C     C_R   0.520713 0.322520 0.002744 0.115894
C4    C     C_R   0.584382 0.680459 0.004749 0.063936
C5    C     C_R   0.553655 0.467255 0.054710 0.030497
C6    C     C_R   0.552481 0.535817 0.952066 0.063996
C7    C     C_R   0.547556 0.496685 0.878038 -0.292005
C8    C     C_R   0.583353 0.506760 0.130886 -0.228297
C9    C     C_R   0.532904 0.392618 0.901984 0.135431
C10   C     C_R   0.598265 0.610185 0.108106 0.126599
C11   C     C_R   0.712100 0.296416 0.650244 -0.340850
C12   C     C_R   0.311485 0.722415 0.322778 -0.355216
C13   C     C_R   0.672121 0.208145 0.632323 0.386588
C14   C     C_R   0.337359 0.799940 0.358124 0.385815
C15   C     C_R   0.514557 0.284510 0.508931 -0.010644
C16   C     C_R   0.484624 0.714585 0.488326 -0.024095
C17   C     C_R   0.553578 0.378723 0.520158 -0.007503
C18   C     C_R   0.468106 0.636785 0.450843 -0.019050
C19   C     C_R   0.654681 0.381777 0.593729 0.082288
C20   C     C_R   0.376298 0.641209 0.368700 0.089960
C21   C     C_R   0.496675 0.468504 0.463955 0.000042
C22   C     C_R   0.536763 0.554501 0.492684 -0.040906
C23   C     C_R   0.284106 0.000230 0.499937 0.825133
C24   C     C_R   0.715890 0.999747 0.500081 0.824964
C25   C     C_R   0.646929 0.557618 0.557910 0.235610
C26   C     C_R   0.405546 0.479148 0.377720 0.255704
C27   C     C_R   0.701773 0.470626 0.608845 -0.231097
C28   C     C_R   0.349815 0.565656 0.331186 -0.234420
C29   C     C_1   0.162490 0.000449 0.500018 -0.186815
C30   C     C_1   0.837482 0.999419 0.500062 -0.186966
C31   C     C_1   0.059940 0.000147 0.500046 -0.004202
C32   C     C_1   0.940008 0.999618 0.500065 -0.005496
C33   C     C_R   0.486970 0.187597 0.203990 -0.087164
C34   C     C_R   0.540871 0.812682 0.796922 -0.097218
C35   C     C_R   0.500690 0.215362 0.030622 0.273199
C36   C     C_R   0.593574 0.787410 0.975591 0.255244
C37   C     C_R   0.484066 0.149649 0.130745 -0.286608
C38   C     C_R   0.571096 0.851382 0.872470 -0.242978
C39   C     C_R   0.505035 0.292036 0.176745 -0.247135
C40   C     C_R   0.533357 0.708872 0.824415 -0.246269
C41   C     C_R   0.527857 0.360884 0.078777 0.004245
C42   C     C_R   0.558469 0.641625 0.926576 0.025939
Cu1   Cu    Cu3+1 0.469550 0.918260 0.475690 0.958072
Cu2   Cu    Cu3+1 0.530450 0.081740 0.524310 0.960529
H1    H     H_    0.503332 0.681419 0.764339 0.161449
H2    H     H_    0.498414 0.318252 0.233486 0.168223
H3    H     H_    0.577493 0.932165 0.851722 0.161463
H4    H     H_    0.471571 0.068446 0.151560 0.158936
H5    H     H_    0.559405 0.545469 0.800318 0.144485
H6    H     H_    0.599840 0.458409 0.210766 0.168888
H7    H     H_    0.784795 0.472528 0.659355 0.155114
H8    H     H_    0.283618 0.573599 0.264158 0.148048
H9    H     H_    0.543453 0.711789 0.557214 0.177699
H10   H     H_    0.434903 0.270330 0.461761 0.195122
H11   H     H_    0.789214 0.298566 0.706994 0.134402
H12   H     H_    0.241621 0.726515 0.258842 0.136919
N1    N     N_R   0.576230 0.204580 0.560790 -0.184459
N2    N     N_R   0.423770 0.795420 0.439210 -0.178973
O1    O     O_R   0.459870 0.022090 0.338120 -0.561076
O2    O     O_R   0.540130 0.977910 0.661880 -0.557523
O3    O     O_R   0.511290 0.160150 0.379180 -0.588032
O4    O     O_R   0.488710 0.839850 0.620820 -0.596201
O5    O     O_R   0.311490 0.930960 0.479480 -0.546264
O6    O     O_R   0.688510 0.069040 0.520520 -0.549969
O7    O     O_R   0.362910 0.069020 0.520540 -0.587149
O8    O     O_R   0.637090 0.930980 0.479460 -0.577940
N3    N     N_3   0.528018 0.359820 0.821742 -0.545223
H13   H     H_    0.460030 0.390606 0.763389 0.221948
H14   H     H_    0.608131 0.389111 0.792605 0.220280
N4    N     N_3   0.623124 0.638835 0.193570 -0.591994
H15   H     H_    0.705781 0.683909 0.193587 0.255762
H16   H     H_    0.555831 0.676516 0.190869 0.247355
N5    N     N_2   0.711107 0.652002 0.559114 -0.448174
H17   H     H_    0.735093 0.704717 0.490263 0.264443
C43   C     C_3   0.790793 0.654865 0.649535 -0.715892
H18   H     H_    0.806347 0.733073 0.647095 0.238636
H19   H     H_    0.877252 0.633862 0.652244 0.229088
H20   H     H_    0.751316 0.602935 0.719340 0.228841
N6    N     N_2   0.379219 0.411433 0.327166 -0.463779
H21   H     H_    0.401494 0.445402 0.254632 0.262424
C44   C     C_3   0.259763 0.356542 0.328080 -0.733405
H22   H     H_    0.253253 0.296510 0.299362 0.234371
H23   H     H_    0.194436 0.408229 0.278097 0.228575
H24   H     H_    0.237656 0.319702 0.406966 0.240232
N7    N     N_2   0.498179 0.171998 0.959694 -0.392277
H25   H     H_    0.431411 0.111620 0.964913 0.240669
C45   C     C_3   0.611452 0.147647 0.960027 -0.675676
H26   H     H_    0.603816 0.120876 0.898167 0.221934
H27   H     H_    0.639275 0.086587 0.034234 0.212356
H28   H     H_    0.680184 0.215804 0.946512 0.239409
N8    N     N_2   0.624209 0.832638 0.048150 -0.453902
H29   H     H_    0.563684 0.877560 0.040772 0.250007
C46   C     C_3   0.744468 0.884848 0.053100 -0.735373
H30   H     H_    0.764118 0.909737 0.117485 0.231429
H31   H     H_    0.755865 0.952837 0.981250 0.223788
H32   H     H_    0.808430 0.833468 0.066069 0.238593
N9    N     N_3   0.272528 0.884053 0.309071 -0.525132
H33   H     H_    0.283117 0.917975 0.232055 0.183677
H34   H     H_    0.182658 0.856186 0.313152 0.190943
N10   N     N_3   0.732480 0.121761 0.688542 -0.529555
H35   H     H_    0.731165 0.100622 0.766142 0.174910
H36   H     H_    0.820915 0.143489 0.676317 0.197215

loop_
_geom_bond_atom_site_label_1
_geom_bond_atom_site_label_2
_ccdc_geom_bond_type
C21   C26   A    
C4    C36   A    
C46   H30   S    
N5    C43   S    
N5    H17   S    
C45   H26   S    
N9    H33   S    
Cu1   O5    S    
C39   C41   A    
N7    H25   S    
Cu2   O6    S    
C11   C19   A    
C33   C39   A    
C34   C40   A    
C23   C29   S    
C35   C37   A    
C1    O1    A    
C5    C6    A    
C2    O2    A    
C13   N1    A    
C11   C13   A    
C7    C9    A    
C16   H9    S    
Cu1   N2    S    
N9    H34   S    
C22   C25   A    
N4    H15   S    
C19   C27   A    
C18   C20   A    
Cu1   O1    S    
C2    C34   S    
C23   O5    A    
C24   O6    A    
C34   C38   A    
C21   C22   A    
C15   N1    A    
Cu2   O7    S    
C44   H23   S    
C27   H7    S    
C44   H22   S    
N7    C45   S    
C40   H1    S    
C14   N2    A    
C1    C33   S    
N3    H13   S    
C15   H10   S    
C7    H5    S    
N8    H29   S    
N6    C44   S    
C20   C28   A    
C33   C37   A    
N3    H14   S    
C43   H18   S    
C9    N3    S    
C3    C9    A    
N8    C46   S    
C31   C32   S    
C3    C35   A    
Cu2   N1    S    
C12   C20   A    
N10   H36   S    
C16   N2    A    
C37   H4    S    
C43   H19   S    
C38   H3    S    
C12   H12   S    
C39   H2    S    
C10   N4    S    
C36   N8    S    
C16   C18   A    
C12   C14   A    
C46   H32   S    
C45   H27   S    
Cu1   Cu2   S    
C4    C10   A    
C8    H6    S    
C44   H24   S    
C11   H11   S    
C14   N9    S    
C15   C17   A    
C5    C41   A    
C3    C41   A    
C18   C22   A    
C1    O3    A    
C5    C8    A    
C6    C7    A    
C28   H8    S    
C24   O8    A    
Cu2   O3    S    
C25   C27   A    
C26   C28   A    
C26   N6    S    
C23   O7    A    
C13   N10   S    
C36   C38   A    
C29   C31   T    
C30   C32   T    
C35   N7    S    
C46   H31   S    
C4    C42   A    
Cu2   O2    S    
Cu1   O8    S    
C40   C42   A    
N10   H35   S    
C17   C19   A    
C25   N5    S    
C43   H20   S    
C24   C30   S    
N6    H21   S    
C8    C10   A    
C6    C42   A    
C45   H28   S    
N4    H16   S    
C2    O4    A    
Cu1   O4    S    
C17   C21   A    
