data_mof_unit_54057.cif
_audit_creation_date              2012-12-11T14:21:03-0500
_audit_creation_method            fapswitch 2.2
_symmetry_space_group_name_H-M    P1
_symmetry_Int_Tables_number       1
_space_group_crystal_system       triclinic
_cell_length_a                    21.947816
_cell_length_b                    7.205185
_cell_length_c                    14.938711
_cell_angle_alpha                 90.012652
_cell_angle_beta                  106.849504
_cell_angle_gamma                 90.004246
_cell_volume                      2260.96060288

loop_
_atom_site_label
_atom_site_type_symbol
_atom_type_description
_atom_site_fract_x
_atom_site_fract_y
_atom_site_fract_z
_atom_type_partial_charge
O1    O     O_R   0.584770 0.505770 0.002090 -0.542187
O2    O     O_R   0.415230 0.005770 0.997910 -0.542629
O3    O     O_R   0.467060 0.173340 0.861950 -0.542875
O4    O     O_R   0.532940 0.673340 0.138050 -0.542846
C1    C     C_R   0.454437 0.343981 0.826129 0.748329
C2    C     C_R   0.545541 0.844037 0.173863 0.748703
O5    O     O_R   0.587510 0.175890 0.993210 -0.525156
O6    O     O_R   0.412490 0.675890 0.006790 -0.524991
O7    O     O_R   0.536540 0.008150 0.130100 -0.528888
O8    O     O_R   0.463460 0.508150 0.869900 -0.528490
C3    C     C_R   0.612858 0.345363 0.996893 0.739005
C4    C     C_R   0.387145 0.845351 0.003120 0.739412
O9    O     O_3   0.483140 0.340040 0.044760 -0.380229
O10   O     O_3   0.516860 0.840040 0.955240 -0.379874
V1    V     V_3+5 0.503130 0.064190 0.991700 1.504223
V2    V     V_3+5 0.496870 0.564190 0.008300 1.504610
C5    C     C_2   0.222927 0.746463 0.042354 0.027179
C6    C     C_2   0.777021 0.246902 0.957437 0.027679
C7    C     C_2   0.180947 0.880799 0.998457 -0.313711
C8    C     C_2   0.819084 0.380783 0.001686 -0.313494
H1    H     H_    0.194960 0.981414 0.954155 0.113086
H2    H     H_    0.805157 0.480903 0.046318 0.113013
C9    C     C_2   0.286671 0.722792 0.026347 -0.192388
C10   C     C_2   0.713290 0.222994 0.973449 -0.193114
C11   C     C_2   0.320810 0.864380 0.007442 -0.281504
C12   C     C_2   0.679203 0.364434 0.992626 -0.281833
H3    H     H_    0.308493 0.586212 0.038958 0.150853
H4    H     H_    0.691421 0.086485 0.960563 0.151037
H5    H     H_    0.301295 0.003811 0.000990 0.140728
H6    H     H_    0.698769 0.503834 0.999313 0.141366
C13   C     C_R   0.927820 0.883468 0.724320 -0.061031
C14   C     C_R   0.072205 0.383984 0.275674 -0.061071
C15   C     C_R   0.574518 0.849058 0.275635 -0.161438
C16   C     C_R   0.425509 0.348699 0.724328 -0.161937
C17   C     C_R   0.940006 0.851305 0.568739 0.384806
C18   C     C_R   0.059997 0.357753 0.431478 0.384912
C19   C     C_R   0.966807 0.873093 0.665655 -0.254204
C20   C     C_R   0.033233 0.377771 0.334465 -0.254379
C21   C     C_R   0.861862 0.874337 0.687439 -0.174639
C22   C     C_R   0.138127 0.372788 0.312515 -0.173795
C23   C     C_R   0.832808 0.854507 0.590389 0.008751
C24   C     C_R   0.167154 0.354860 0.409670 0.008781
C25   C     C_R   0.873072 0.841137 0.531196 0.097532
C26   C     C_R   0.126884 0.345345 0.468990 0.097197
C27   C     C_R   0.765162 0.846746 0.550446 0.093027
C28   C     C_R   0.234775 0.345568 0.449619 0.093031
C29   C     C_R   0.738735 0.840235 0.451201 0.067571
C30   C     C_R   0.261216 0.341094 0.548894 0.067609
C31   C     C_R   0.780447 0.806860 0.396775 -0.241163
C32   C     C_R   0.219417 0.311082 0.603522 -0.241312
C33   C     C_R   0.846001 0.811581 0.435447 -0.157155
C34   C     C_R   0.153882 0.317550 0.564881 -0.157137
C35   C     C_R   0.723092 0.838071 0.606215 -0.152313
C36   C     C_R   0.276783 0.333531 0.393867 -0.152378
C37   C     C_R   0.657973 0.820234 0.566203 -0.150797
C38   C     C_R   0.341852 0.314537 0.433935 -0.150686
C39   C     C_R   0.631609 0.824572 0.469425 0.052500
C40   C     C_R   0.368268 0.320881 0.530675 0.052454
C41   C     C_R   0.671010 0.850329 0.410233 -0.000643
C42   C     C_R   0.328979 0.349822 0.589772 -0.000581
C43   C     C_R   0.565834 0.803069 0.432005 -0.140435
C44   C     C_R   0.433985 0.298166 0.568150 -0.140580
C45   C     C_R   0.537105 0.807474 0.336008 0.314444
C46   C     C_R   0.462767 0.304311 0.664105 0.314904
C47   C     C_R   0.640771 0.884192 0.313185 -0.096355
C48   C     C_R   0.359362 0.385233 0.686649 -0.096425
H7    H     H_    0.875529 0.789491 0.389518 0.172712
H8    H     H_    0.124300 0.298255 0.610962 0.173132
H9    H     H_    0.627788 0.804865 0.611783 0.135124
H10   H     H_    0.371964 0.296652 0.388414 0.134993
H11   H     H_    0.018039 0.879238 0.695614 0.101910
H12   H     H_    0.982032 0.385895 0.304549 0.101895
H13   H     H_    0.834797 0.883438 0.736832 0.140673
H14   H     H_    0.165188 0.379291 0.263023 0.139732
H15   H     H_    0.763270 0.768367 0.323993 0.152609
H16   H     H_    0.236469 0.273985 0.676488 0.152952
H17   H     H_    0.738896 0.834894 0.681441 0.122582
H18   H     H_    0.260937 0.328626 0.318664 0.122536
H19   H     H_    0.536293 0.778847 0.477834 0.147237
H20   H     H_    0.463430 0.271589 0.522419 0.147185
O11   O     O_R   0.036450 0.233070 0.130130 -0.544825
O12   O     O_R   0.963550 0.733070 0.869870 -0.544608
O13   O     O_R   0.912470 0.560570 0.006790 -0.553866
O14   O     O_R   0.087530 0.060570 0.993210 -0.553939
C49   C     C_R   0.886449 0.391673 0.999997 0.775171
C50   C     C_R   0.113563 0.891678 0.000063 0.774669
O15   O     O_R   0.032920 0.562940 0.138050 -0.522423
O16   O     O_R   0.967080 0.062940 0.861950 -0.522427
O17   O     O_R   0.084790 0.730500 0.002090 -0.520719
O18   O     O_R   0.915210 0.230500 0.997910 -0.520851
C51   C     C_R   0.044421 0.394202 0.174423 0.723149
C52   C     C_R   0.955596 0.894124 0.825573 0.722741
O19   O     O_3   0.016820 0.396170 0.955260 -0.382879
O20   O     O_3   0.983180 0.896170 0.044740 -0.382985
V3    V     V_3+5 0.996880 0.672090 0.008300 1.486628
V4    V     V_3+5 0.003120 0.172090 0.991700 1.486371
C53   C     C_2   0.209410 0.616696 0.111450 0.393840
H21   H     H_    0.231511 0.480532 0.121840 0.011070
O21   O     O_2   0.177121 0.664613 0.161595 -0.536688
C54   C     C_2   0.790431 0.118067 0.887876 0.392994
H22   H     H_    0.768186 0.982105 0.876934 0.011135
O22   O     O_2   0.822808 0.166624 0.837976 -0.536949
C55   C     C_2   0.675752 0.981369 0.254948 0.335979
H23   H     H_    0.710762 0.086513 0.286772 0.067130
O23   O     O_2   0.668029 0.940819 0.173042 -0.533272
C56   C     C_2   0.324715 0.485096 0.744489 0.336420
H24   H     H_    0.290189 0.591156 0.712308 0.067008
O24   O     O_2   0.332113 0.445668 0.826441 -0.533231
O25   O     O_3   0.472148 0.776260 0.305298 -0.642730
H25   H     H_    0.455543 0.800111 0.237398 0.267129
O26   O     O_3   0.527636 0.271735 0.694931 -0.642752
H26   H     H_    0.544402 0.298441 0.762546 0.267238
O27   O     O_3   0.978167 0.838749 0.509792 -0.643435
H27   H     H_    0.023463 0.848493 0.547236 0.302799
O28   O     O_3   0.021844 0.349363 0.490571 -0.643225
H28   H     H_    0.976590 0.360632 0.453148 0.302980

loop_
_geom_bond_atom_site_label_1
_geom_bond_atom_site_label_2
_ccdc_geom_bond_type
C40   C44   A    
O16   V4    S    
O4    V2    S    
O15   C51   A    
O26   H26   S    
O1    C3    A    
C7    C50   S    
O2    C4    A    
C16   C48   A    
C2    O7    A    
C53   H21   S    
C15   C47   A    
C29   C31   A    
O5    C3    A    
C5    C9    S    
C6    C54   S    
C6    C10   S    
C44   H20   S    
C7    H1    S    
O14   C50   A    
C24   C28   A    
C39   C41   A    
C14   C51   S    
C56   H24   S    
C40   C42   A    
O28   H28   S    
O12   C52   A    
O14   V4    S    
C27   C29   A    
C43   C45   A    
C44   C46   A    
O16   C52   A    
C22   H14   S    
C31   C33   A    
O15   V3    S    
C32   C34   A    
C31   H15   S    
C14   C20   A    
C17   C25   A    
C34   H8    S    
O6    C4    A    
C26   C34   A    
C30   C32   A    
C42   C48   A    
O6    V2    S    
C8    C49   S    
C23   C25   A    
C24   C26   A    
C48   C56   S    
C54   O22   D    
C53   O21   D    
C30   C42   A    
C20   H12   S    
C35   C37   A    
C11   H5    S    
C36   C38   A    
C21   C23   A    
O11   V4    S    
C46   O26   S    
C3    C12   S    
C27   C35   A    
C13   C19   A    
O17   V3    S    
C35   H17   S    
C32   H16   S    
C15   C45   A    
O13   V3    S    
C1    C16   S    
C28   C36   A    
C16   C46   A    
C55   O23   D    
O1    V2    S    
C33   H7    S    
C39   C43   A    
O2    V1    S    
C37   H9    S    
O4    C2    A    
O13   C49   A    
C8    H2    S    
C12   H6    S    
O19   V4    S    
C9    H3    S    
C37   C39   A    
C18   C26   A    
C47   C55   S    
C18   C20   A    
C14   C22   A    
O3    V1    S    
O27   H27   S    
O12   V3    S    
C17   C19   A    
C10   H4    S    
C10   C12   D    
C22   C24   A    
O3    C1    A    
C50   O17   A    
C49   O18   A    
O18   V4    S    
C38   H10   S    
C2    C15   S    
C4    C11   S    
C19   H11   S    
O7    V1    S    
C1    O8    A    
O8    V2    S    
O25   H25   S    
C41   C47   A    
C25   C33   A    
C56   O24   D    
C43   H19   S    
O5    V1    S    
C54   H22   S    
C5    C7    D    
C38   C40   A    
C17   O27   S    
C6    C8    D    
C21   H13   S    
O20   V3    S    
C29   C41   A    
O11   C51   A    
C28   C30   A    
C9    C11   D    
C13   C52   S    
O9    V2    S    
C55   H23   S    
C13   C21   A    
C23   C27   A    
O10   V1    S    
C18   O28   S    
C5    C53   S    
C45   O25   S    
C36   H18   S    
