data_mof_unit_46127.cif
_audit_creation_date              2012-12-10T17:18:57-0500
_audit_creation_method            fapswitch 2.2
_symmetry_space_group_name_H-M    P1
_symmetry_Int_Tables_number       1
_space_group_crystal_system       triclinic
_cell_length_a                    10.189459
_cell_length_b                    10.859072
_cell_length_c                    13.609822
_cell_angle_alpha                 91.94412
_cell_angle_beta                  99.518897
_cell_angle_gamma                 97.000173
_cell_volume                      1471.84392378

loop_
_atom_site_label
_atom_site_type_symbol
_atom_type_description
_atom_site_fract_x
_atom_site_fract_y
_atom_site_fract_z
_atom_type_partial_charge
C1    C     C_R   0.053222 0.731833 0.490408 0.905494
C2    C     C_R   0.946746 0.268166 0.509531 0.905392
C3    C     C_R   0.450171 0.535523 0.122483 -0.303057
C4    C     C_R   0.549851 0.464560 0.877513 -0.302992
C5    C     C_R   0.322537 0.570770 0.095496 -0.033075
C6    C     C_R   0.677482 0.429306 0.904499 -0.033090
C7    C     C_2   0.089403 0.864537 0.492562 -0.413421
C8    C     C_2   0.910429 0.135478 0.507107 -0.412979
C9    C     C_2   0.991366 0.937412 0.474329 0.008289
C10   C     C_2   0.008317 0.062495 0.525514 0.008679
C11   C     C_2   0.430958 0.511385 0.508292 -0.119268
C12   C     C_2   0.569042 0.488615 0.491707 -0.119316
C13   C     C_R   0.092837 0.512919 0.685682 0.872918
C14   C     C_R   0.907163 0.487084 0.314318 0.872719
C15   C     C_R   0.142725 0.523611 0.792557 -0.045340
C16   C     C_R   0.857281 0.476411 0.207442 -0.045285
C17   C     C_R   0.131159 0.589015 0.961485 -0.169742
C18   C     C_R   0.868851 0.411033 0.038510 -0.169749
C19   C     C_R   0.073318 0.574024 0.860979 -0.199780
C20   C     C_R   0.926686 0.426004 0.139017 -0.199794
C21   C     C_R   0.267664 0.487345 0.824840 -0.244806
C22   C     C_R   0.732351 0.512697 0.175160 -0.244880
C23   C     C_R   0.334912 0.515048 0.922196 0.081946
C24   C     C_R   0.665105 0.485015 0.077802 0.081966
C25   C     C_R   0.262952 0.561053 0.993858 0.134806
C26   C     C_R   0.737063 0.439010 0.006137 0.134793
C27   C     C_R   0.470685 0.494409 0.949309 0.075892
C28   C     C_R   0.529336 0.505666 0.050689 0.075891
H1    H     H_    0.689770 0.564807 0.227874 0.166580
H2    H     H_    0.310250 0.435232 0.772132 0.166676
H3    H     H_    0.025543 0.399334 0.162838 0.155404
H4    H     H_    0.974457 0.600683 0.837157 0.155401
H5    H     H_    0.070741 0.622135 0.012147 0.203778
H6    H     H_    0.929266 0.377914 0.987846 0.203778
H7    H     H_    0.485384 0.532755 0.201465 0.140242
H8    H     H_    0.514639 0.467338 0.798532 0.140248
H9    H     H_    0.810189 0.102181 0.468780 0.212102
H10   H     H_    0.189802 0.898006 0.530512 0.212483
H11   H     H_    0.578078 0.415062 0.438192 0.169393
H12   H     H_    0.421922 0.584938 0.561807 0.169411
H13   H     H_    0.665237 0.622744 0.589421 0.176223
H14   H     H_    0.334763 0.377256 0.410579 0.176153
N1    N     N_2   0.322180 0.446120 0.460900 -0.187167
N2    N     N_2   0.677820 0.553880 0.539100 -0.187167
O1    O     O_R   0.935190 0.693030 0.507870 -0.579129
O2    O     O_R   0.064810 0.306970 0.492130 -0.578934
O3    O     O_R   0.142080 0.658430 0.482770 -0.594014
O4    O     O_R   0.857920 0.341570 0.517230 -0.594016
O5    O     O_R   0.969700 0.527180 0.651960 -0.615284
O6    O     O_R   0.030300 0.472820 0.348040 -0.615313
O7    O     O_R   0.176600 0.492580 0.626860 -0.617860
O8    O     O_R   0.823400 0.507420 0.373140 -0.617974
Zn1   Zn    Zn3+2 0.861850 0.523100 0.516760 0.969921
Zn2   Zn    Zn3+2 0.138150 0.476900 0.483240 0.970008
C29   C     C_2   0.256522 0.613387 0.177805 0.385654
H15   H     H_    0.274996 0.572715 0.249806 0.079507
O9    O     O_2   0.188991 0.699022 0.168952 -0.568229
C30   C     C_2   0.743494 0.386691 0.822188 0.385699
H16   H     H_    0.725025 0.427370 0.750190 0.079509
O10   O     O_2   0.811017 0.301050 0.831036 -0.568230
C31   C     C_2   0.133171 0.110733 0.597527 0.459140
H17   H     H_    0.124607 0.155360 0.668378 0.058376
O11   O     O_2   0.244287 0.110436 0.575103 -0.566123
C32   C     C_2   0.866239 0.888962 0.402647 0.459438
H18   H     H_    0.874487 0.843958 0.331851 0.058219
O12   O     O_2   0.755268 0.889496 0.425316 -0.566114

loop_
_geom_bond_atom_site_label_1
_geom_bond_atom_site_label_2
_ccdc_geom_bond_type
C13   O5    A    
C11   C12   S    
C4    H8    S    
C14   O8    A    
C11   N1    D    
C22   H1    S    
C23   C27   A    
C9    C32   S    
C9    C10   S    
C6    C30   S    
N1    Zn2   S    
C31   H17   S    
C18   C26   A    
C13   C15   S    
C3    H7    S    
C16   C20   A    
O7    Zn2   S    
C17   C25   A    
C32   H18   S    
O2    Zn2   S    
C12   H11   S    
C23   C25   A    
C6    C26   A    
O1    Zn1   S    
C12   N2    D    
C14   O6    A    
C2    O2    A    
C15   C19   A    
C18   H6    S    
C1    O1    A    
O6    Zn2   S    
C17   H5    S    
O3    Zn2   S    
O5    Zn1   S    
C19   H4    S    
C22   C24   A    
C4    C6    A    
C3    C28   A    
C17   C19   A    
C7    H10   S    
C24   C26   A    
C18   C20   A    
C29   O9    D    
C21   C23   A    
O4    Zn1   S    
H13   N2    S    
C5    C25   A    
C29   H15   S    
C30   H16   S    
C10   C31   S    
H14   N1    S    
C30   O10   D    
C11   H12   S    
C7    C9    D    
C21   H2    S    
C15   C21   A    
C4    C27   A    
O8    Zn1   S    
C8    C10   D    
C8    H9    S    
C27   C28   A    
C31   O11   D    
C1    O3    A    
C1    C7    S    
C16   C22   A    
C2    O4    A    
C14   C16   S    
C13   O7    A    
N2    Zn1   S    
C5    C29   S    
C2    C8    S    
C24   C28   A    
C3    C5    A    
C20   H3    S    
C32   O12   D    
