data_mof_unit_48913.cif
_audit_creation_date              2012-12-10T18:05:44-0500
_audit_creation_method            fapswitch 2.2
_symmetry_space_group_name_H-M    P1
_symmetry_Int_Tables_number       1
_space_group_crystal_system       triclinic
_cell_length_a                    11.096002
_cell_length_b                    10.915884
_cell_length_c                    9.734281
_cell_angle_alpha                 91.980335
_cell_angle_beta                  92.639648
_cell_angle_gamma                 95.257808
_cell_volume                      1171.94400533

loop_
_atom_site_label
_atom_site_type_symbol
_atom_type_description
_atom_site_fract_x
_atom_site_fract_y
_atom_site_fract_z
_atom_type_partial_charge
C1    C     C_R   0.509862 0.263565 0.498544 0.893017
C2    C     C_R   0.490126 0.736432 0.501455 0.892943
C3    C     C_R   0.872571 0.498756 0.507962 -0.154359
C4    C     C_R   0.127429 0.501245 0.492041 -0.154309
C5    C     C_R   0.951630 0.562540 0.610553 -0.074173
C6    C     C_R   0.048371 0.437468 0.389448 -0.074180
C7    C     C_R   0.510941 0.056684 0.373954 0.313511
C8    C     C_R   0.489023 0.943303 0.626047 0.313629
C9    C     C_R   0.478691 0.930919 0.376198 0.357795
C10   C     C_R   0.521227 0.069076 0.623790 0.357721
C11   C     C_R   0.479665 0.870749 0.502593 -0.376224
C12   C     C_R   0.520299 0.129243 0.497407 -0.376077
C13   C     C_R   0.432338 0.411196 0.066941 0.290677
C14   C     C_R   0.567659 0.588806 0.933057 0.290662
C15   C     C_R   0.431813 0.411011 0.919676 0.338042
C16   C     C_R   0.568175 0.589000 0.080322 0.337992
C17   C     C_R   0.262148 0.498366 0.496572 0.867783
C18   C     C_R   0.737852 0.501634 0.503428 0.867802
C19   C     C_R   0.165809 0.545187 0.052328 0.271771
C20   C     C_R   0.834133 0.454892 0.947681 0.271787
C21   C     C_R   0.131106 0.545700 0.187348 0.365898
C22   C     C_R   0.868861 0.454348 0.812671 0.365952
C23   C     C_R   0.084431 0.434095 0.244487 -0.223802
C24   C     C_R   0.915566 0.565939 0.755518 -0.223846
C25   C     C_R   0.064068 0.325917 0.157735 0.498671
C26   C     C_R   0.935937 0.674129 0.842258 0.498672
C27   C     C_R   0.078994 0.333609 0.015810 0.491903
C28   C     C_R   0.920995 0.666457 0.984186 0.491926
C29   C     C_R   0.132131 0.443627 0.964000 -0.541393
C30   C     C_R   0.867838 0.556453 0.036005 -0.541359
C31   C     C_R   0.922801 0.425848 0.408643 0.189110
C32   C     C_R   0.077201 0.574156 0.591357 0.189095
Cu1   Cu    Cu3+1 0.500000 0.500020 0.640660 1.088766
Cu2   Cu    Cu3+1 0.500000 0.499980 0.359340 1.088746
H1    H     H_    0.149824 0.449734 0.856012 0.222401
H2    H     H_    0.850129 0.550361 0.143989 0.222405
N1    N     N_R   0.500030 0.500030 0.852070 -0.252972
N2    N     N_R   0.499970 0.499970 0.147930 -0.252970
O1    O     O_R   0.499990 0.319660 0.618740 -0.539358
O2    O     O_R   0.500010 0.680340 0.381260 -0.539397
O3    O     O_R   0.499990 0.319630 0.381170 -0.520675
O4    O     O_R   0.500010 0.680370 0.618830 -0.520666
O5    O     O_R   0.319650 0.500020 0.618780 -0.547516
O6    O     O_R   0.680350 0.499980 0.381220 -0.547513
O7    O     O_R   0.319640 0.500000 0.381210 -0.562618
O8    O     O_R   0.680360 0.500000 0.618790 -0.562576
Br1   Br    Br    0.330814 0.282667 0.818106 -0.345578
Br2   Br    Br    0.669123 0.717402 0.181882 -0.345628
Br3   Br    Br    0.256461 0.687190 0.990647 -0.267346
Br4   Br    Br    0.743348 0.312941 0.009337 -0.267570
O9    O     O_3   0.144713 0.657068 0.260645 -0.673164
H3    H     H_    0.073961 0.661664 0.318276 0.329900
O10   O     O_3   0.855232 0.342967 0.739388 -0.673087
H4    H     H_    0.925984 0.338348 0.681755 0.329879
O11   O     O_3   0.041079 0.209920 0.208270 -0.561008
H5    H     H_    0.065239 0.213342 0.307730 0.348754
O12   O     O_3   0.958934 0.790119 0.791705 -0.560999
H6    H     H_    0.934772 0.786685 0.692244 0.348751
O13   O     O_3   0.049713 0.229302 0.932455 -0.548072
H7    H     H_    0.065681 0.249241 0.836072 0.347923
O14   O     O_3   0.950264 0.770777 0.067527 -0.548042
H8    H     H_    0.934278 0.750854 0.163915 0.347936
Br5   Br    Br    0.824272 0.281411 0.339395 -0.369258
Br6   Br    Br    0.175729 0.718617 0.660564 -0.369287
Br7   Br    Br    0.560917 0.115030 0.200208 -0.121956
Br8   Br    Br    0.439080 0.884937 0.799808 -0.121941
O15   O     O_3   0.443678 0.869920 0.252344 -0.571246
H9    H     H_    0.372707 0.811116 0.268707 0.382228
O16   O     O_3   0.556084 0.130097 0.747620 -0.571445
H10   H     H_    0.627102 0.188830 0.731394 0.382296
Br9   Br    Br    0.335842 0.284372 0.152097 -0.347318
Br10  Br    Br    0.664156 0.715627 0.847895 -0.347415

loop_
_geom_bond_atom_site_label_1
_geom_bond_atom_site_label_2
_ccdc_geom_bond_type
O11   H5    S    
C17   O5    A    
C2    O2    A    
C8    Br8   S    
C14   C16   A    
C30   H2    S    
C25   C27   A    
C20   C22   A    
C29   H1    S    
C26   C28   A    
O14   H8    S    
C27   O13   S    
C15   Br1   S    
C5    C32   A    
C14   Br10  S    
C28   O14   S    
C16   Br2   S    
C9    O15   S    
Cu1   Cu2   S    
O12   H6    S    
C25   O11   S    
O13   H7    S    
Cu2   O3    S    
Cu2   O7    S    
C20   C30   A    
O10   H4    S    
C14   N1    A    
C3    C31   A    
Cu1   O8    S    
C9    C11   A    
C13   N2    A    
C4    C32   A    
C1    C12   S    
C10   C12   A    
C2    O4    A    
C8    C11   A    
Cu2   O2    S    
C6    C23   S    
C18   O8    A    
C8    C10   A    
C3    C18   S    
C19   C21   A    
C24   C26   A    
Cu1   N1    S    
C6    C31   A    
C22   O10   S    
C18   O6    A    
C13   C15   A    
C21   C23   A    
O16   H10   S    
C26   O12   S    
C22   C24   A    
C7    C12   A    
C7    Br7   S    
C1    O1    A    
O15   H9    S    
Cu1   O5    S    
C10   O16   S    
C31   Br5   S    
C21   O9    S    
C23   C25   A    
Cu2   O6    S    
C27   C29   A    
C32   Br6   S    
C2    C11   S    
C4    C6    A    
C1    O3    A    
C7    C9    A    
Cu1   O4    S    
C5    C24   S    
C20   Br4   S    
C13   Br9   S    
C16   N2    A    
Cu2   N2    S    
C19   Br3   S    
C19   C29   A    
Cu1   O1    S    
C15   N1    A    
O9    H3    S    
C17   O7    A    
C28   C30   A    
C3    C5    A    
C4    C17   S    
