data_mof_unit_61919.cif
_audit_creation_date              2012-12-10T20:11:18-0500
_audit_creation_method            fapswitch 2.2
_symmetry_space_group_name_H-M    P1
_symmetry_Int_Tables_number       1
_space_group_crystal_system       triclinic
_cell_length_a                    19.306013
_cell_length_b                    18.458338
_cell_length_c                    14.147193
_cell_angle_alpha                 90.039988
_cell_angle_beta                  90.133789
_cell_angle_gamma                 90.002062
_cell_volume                      5041.43505492

loop_
_atom_site_label
_atom_site_type_symbol
_atom_type_description
_atom_site_fract_x
_atom_site_fract_y
_atom_site_fract_z
_atom_type_partial_charge
C1    C     C_R   0.365599 0.499997 0.499867 0.859055
C2    C     C_R   0.452661 0.274012 0.446761 0.025340
C3    C     C_R   0.452689 0.725929 0.446715 0.023759
C4    C     C_R   0.547336 0.274071 0.553242 0.026939
C5    C     C_R   0.548245 0.801992 0.554276 -0.284495
C6    C     C_R   0.451714 0.198012 0.445782 -0.284181
C7    C     C_R   0.451741 0.801929 0.445740 -0.284400
C8    C     C_R   0.548278 0.198072 0.554222 -0.284225
C9    C     C_R   0.499993 0.841360 0.500008 0.122426
C10   C     C_R   0.499996 0.158642 0.500002 0.122029
C11   C     C_R   0.437510 0.961969 0.495963 -0.185544
C12   C     C_R   0.634343 0.499999 0.500122 0.858411
C13   C     C_R   0.562477 0.038030 0.504042 -0.185463
C14   C     C_R   0.562477 0.961977 0.504047 -0.185673
C15   C     C_R   0.437511 0.038022 0.495964 -0.185537
C16   C     C_R   0.499995 0.077303 0.500002 0.126204
C17   C     C_R   0.499993 0.922697 0.500006 0.126106
C18   C     C_R   0.499970 0.499978 0.328950 0.902289
C19   C     C_R   0.500031 0.500022 0.671049 0.902369
C20   C     C_1   0.499964 0.499941 0.227575 -0.214419
C21   C     C_1   0.500033 0.500059 0.772425 -0.214423
C22   C     C_1   0.499970 0.499947 0.142378 -0.016888
C23   C     C_R   0.963822 0.505722 0.586639 -0.055167
C24   C     C_1   0.500025 0.500052 0.857622 -0.016891
C25   C     C_1   0.499987 0.499982 0.042597 -0.000960
C26   C     C_1   0.500006 0.500018 0.957403 -0.000960
C27   C     C_R   0.745509 0.562842 0.474504 -0.198057
C28   C     C_R   0.254234 0.564926 0.514279 -0.197600
C29   C     C_R   0.254260 0.435006 0.484795 -0.195599
C30   C     C_R   0.745505 0.437107 0.526247 -0.195174
C31   C     C_R   0.817240 0.562594 0.474019 -0.166115
C32   C     C_R   0.182505 0.564770 0.514475 -0.165801
C33   C     C_R   0.182530 0.435073 0.484513 -0.165243
C34   C     C_R   0.035850 0.493892 0.413243 -0.055205
C35   C     C_R   0.817240 0.437248 0.526753 -0.165251
C36   C     C_R   0.852759 0.499883 0.500343 0.160398
C37   C     C_R   0.146976 0.499892 0.499531 0.158916
C38   C     C_R   0.709415 0.499988 0.500304 -0.028737
C39   C     C_R   0.290417 0.499980 0.499640 -0.031520
C40   C     C_R   0.925424 0.511591 0.677261 0.141205
C41   C     C_R   0.926128 0.453974 0.742014 -0.141588
C42   C     C_R   0.890722 0.459971 0.827778 -0.132613
C43   C     C_R   0.854354 0.523343 0.849235 -0.110060
C44   C     C_R   0.853378 0.580837 0.784997 -0.136728
C45   C     C_R   0.036402 0.505691 0.586441 -0.054719
C46   C     C_R   0.888866 0.575129 0.699290 -0.147409
C47   C     C_R   0.074222 0.487311 0.322691 0.140929
C48   C     C_R   0.073431 0.421779 0.272248 -0.144123
C49   C     C_R   0.109021 0.415838 0.186641 -0.132930
C50   C     C_R   0.145631 0.475139 0.151036 -0.106402
C51   C     C_R   0.146675 0.540505 0.200975 -0.138068
C52   C     C_R   0.111052 0.546704 0.286535 -0.146090
C53   C     C_R   0.075349 0.512286 0.676780 0.140272
C54   C     C_R   0.074866 0.577819 0.727223 -0.143181
C55   C     C_R   0.111000 0.583773 0.812631 -0.131149
C56   C     C_R   0.963270 0.493836 0.413460 -0.054691
C57   C     C_R   0.147850 0.524485 0.848035 -0.106207
C58   C     C_R   0.148588 0.459118 0.798096 -0.135807
C59   C     C_R   0.112422 0.452905 0.712733 -0.144924
C60   C     C_R   0.924290 0.487953 0.323057 0.140466
C61   C     C_R   0.924600 0.545550 0.258269 -0.140312
C62   C     C_R   0.888633 0.539540 0.172713 -0.131639
C63   C     C_R   0.852095 0.476178 0.151504 -0.110218
C64   C     C_R   0.851514 0.418703 0.215776 -0.133753
C65   C     C_R   0.887562 0.424424 0.301273 -0.146447
C66   C     C_R   0.071774 0.499817 0.499738 -0.048552
C67   C     C_R   0.927925 0.499792 0.500150 -0.048873
C68   C     C_R   0.547302 0.725992 0.553296 0.024219
H1    H     H_    0.718386 0.611738 0.453914 0.152272
H2    H     H_    0.415594 0.303919 0.404644 0.119303
H3    H     H_    0.415648 0.695977 0.404558 0.121640
H4    H     H_    0.584402 0.304023 0.595363 0.118154
H5    H     H_    0.585830 0.829597 0.598305 0.132152
H6    H     H_    0.414102 0.170411 0.401792 0.132062
H7    H     H_    0.414152 0.829482 0.401717 0.132049
H8    H     H_    0.585888 0.170519 0.598213 0.131834
H9    H     H_    0.388282 0.933914 0.494439 0.127791
H10   H     H_    0.611707 0.066082 0.505562 0.127858
H11   H     H_    0.611704 0.933926 0.505572 0.127774
H12   H     H_    0.281230 0.615586 0.526059 0.152976
H13   H     H_    0.388282 0.066070 0.494443 0.127819
H14   H     H_    0.954104 0.404628 0.725994 0.117202
H15   H     H_    0.891478 0.415519 0.877621 0.124705
H16   H     H_    0.826973 0.527938 0.915627 0.115215
H17   H     H_    0.825285 0.629915 0.801743 0.124159
H18   H     H_    0.888255 0.620224 0.650368 0.117194
H19   H     H_    0.045316 0.375480 0.299315 0.117203
H20   H     H_    0.108242 0.365260 0.147911 0.123313
H21   H     H_    0.173181 0.470425 0.084784 0.115848
H22   H     H_    0.174974 0.586407 0.173281 0.123609
H23   H     H_    0.281278 0.384382 0.473020 0.148891
H24   H     H_    0.111822 0.597718 0.324382 0.117578
H25   H     H_    0.046569 0.624109 0.700307 0.117271
H26   H     H_    0.110457 0.634353 0.851362 0.123603
H27   H     H_    0.175826 0.529211 0.914131 0.115837
H28   H     H_    0.177072 0.413225 0.825636 0.125131
H29   H     H_    0.112962 0.401891 0.674883 0.118408
H30   H     H_    0.952698 0.594890 0.274104 0.117305
H31   H     H_    0.889085 0.583975 0.122843 0.124731
H32   H     H_    0.824273 0.471576 0.085279 0.115439
H33   H     H_    0.823289 0.369633 0.199219 0.126184
H34   H     H_    0.718375 0.388252 0.546840 0.145681
H35   H     H_    0.887247 0.379346 0.350224 0.117913
H36   H     H_    0.845169 0.611016 0.453611 0.123399
H37   H     H_    0.154579 0.614911 0.525991 0.123961
H38   H     H_    0.154625 0.384893 0.473000 0.123524
H39   H     H_    0.845168 0.388779 0.547140 0.122588
H40   H     H_    0.584339 0.696088 0.595461 0.122786
N1    N     N_R   0.500000 0.689440 0.500000 -0.085620
N2    N     N_R   0.500000 0.310560 0.500000 -0.084905
O1    O     O_R   0.398180 0.560840 0.499980 -0.623442
O2    O     O_R   0.601820 0.439160 0.500020 -0.621667
O3    O     O_R   0.601820 0.560840 0.500020 -0.623264
O4    O     O_R   0.398180 0.439160 0.499980 -0.622649
O5    O     O_R   0.500000 0.560830 0.373710 -0.599504
O6    O     O_R   0.500000 0.439170 0.626290 -0.599352
O7    O     O_R   0.500000 0.560830 0.626290 -0.598684
O8    O     O_R   0.500000 0.439170 0.373710 -0.598482
Zn1   Zn    Zn3+2 0.500000 0.581210 0.500000 0.936188
Zn2   Zn    Zn3+2 0.500000 0.418790 0.500000 0.937696

loop_
_geom_bond_atom_site_label_1
_geom_bond_atom_site_label_2
_ccdc_geom_bond_type
C1    O1    A    
C34   C56   A    
C23   C45   A    
C41   C42   A    
C54   C55   A    
C35   C36   A    
C14   C17   A    
C29   H23   S    
C4    C8    A    
C34   C66   A    
C53   C59   A    
C36   C67   S    
C15   H13   S    
C53   C54   A    
C40   C46   A    
C62   C63   A    
C30   C35   A    
C19   C21   S    
C24   C26   S    
C3    C7    A    
C5    C68   A    
C51   H22   S    
C27   C38   A    
C23   C40   S    
C29   C33   A    
C8    H8    S    
C30   C38   A    
O1    Zn1   S    
C23   C67   A    
C58   H28   S    
C54   H25   S    
C11   H9    S    
O3    Zn1   S    
C11   C15   A    
C11   C17   A    
C61   H30   S    
C22   C25   S    
C18   O8    A    
C27   H1    S    
C45   C53   S    
C13   C14   A    
C12   C38   S    
C43   H16   S    
C49   H20   S    
C29   C39   A    
C2    C6    A    
C55   H26   S    
C44   C46   A    
C6    H6    S    
C64   H33   S    
C33   H38   S    
C27   C31   A    
C51   C52   A    
C28   C32   A    
N2    Zn2   S    
O2    Zn2   S    
C7    H7    S    
C28   C39   A    
C58   C59   A    
C32   C37   A    
C33   C37   A    
C63   C64   A    
C60   C61   A    
C3    H3    S    
C43   C44   A    
C5    C9    A    
C63   H32   S    
C50   H21   S    
C47   C48   A    
C37   C66   S    
C30   H34   S    
C4    H4    S    
C50   C51   A    
C48   H19   S    
C14   H11   S    
C9    C17   S    
C48   C49   A    
C20   C22   T    
C60   C65   A    
O5    Zn1   S    
C32   H37   S    
C55   C57   A    
C57   H27   S    
C59   H29   S    
C21   C24   T    
C52   H24   S    
C42   C43   A    
C65   H35   S    
C44   H17   S    
C12   O2    A    
N1    Zn1   S    
C12   O3    A    
C7    C9    A    
C4    N2    A    
C13   H10   S    
C2    N2    A    
C42   H15   S    
C18   O5    A    
C6    C10   A    
C47   C52   A    
C56   C67   A    
C64   C65   A    
O7    Zn1   S    
C25   C26   T    
C10   C16   S    
C31   H36   S    
C57   C58   A    
C19   O6    A    
C3    N1    A    
C41   H14   S    
C18   C20   S    
C68   N1    A    
C5    H5    S    
C61   C62   A    
C28   H12   S    
O8    Zn2   S    
C35   H39   S    
C1    C39   S    
C62   H31   S    
O6    Zn2   S    
C56   C60   S    
C19   O7    A    
C8    C10   A    
C49   C50   A    
C1    O4    A    
C13   C16   A    
C45   C66   A    
C31   C36   A    
C40   C41   A    
C34   C47   S    
C68   H40   S    
C2    H2    S    
O4    Zn2   S    
C15   C16   A    
C46   H18   S    
