data_mof_unit_17374.cif
_audit_creation_date              2012-12-10T20:30:14-0500
_audit_creation_method            fapswitch 2.2
_symmetry_space_group_name_H-M    P1
_symmetry_Int_Tables_number       1
_space_group_crystal_system       triclinic
_cell_length_a                    9.900162
_cell_length_b                    10.677467
_cell_length_c                    13.202694
_cell_angle_alpha                 90.75606
_cell_angle_beta                  70.394065
_cell_angle_gamma                 90.239216
_cell_volume                      1314.6091079

loop_
_atom_site_label
_atom_site_type_symbol
_atom_type_description
_atom_site_fract_x
_atom_site_fract_y
_atom_site_fract_z
_atom_type_partial_charge
Br1   Br    Br    0.354512 0.761399 0.111430 -0.541453
C1    C     C_R   0.501451 0.739928 0.497041 0.894621
C2    C     C_R   0.372242 0.505824 0.820631 -0.083479
C3    C     C_R   0.384931 0.935479 0.483158 0.173811
C4    C     C_R   0.420631 0.496058 0.703731 0.871027
C5    C     C_R   0.508201 0.871206 0.480466 -0.116150
C6    C     C_R   0.638877 0.935150 0.457299 -0.206219
C7    C     C_R   0.638860 0.064694 0.456784 -0.212564
C8    C     C_R   0.508118 0.128413 0.479575 -0.118045
C9    C     C_R   0.384872 0.063236 0.482647 0.169248
C10   C     C_3   0.236297 0.071373 0.562168 -0.442155
C11   C     C_3   0.236460 0.929508 0.562839 -0.511181
C12   C     C_R   0.456941 0.533720 0.972316 0.013907
C13   C     C_R   0.908544 0.596388 0.547111 0.194134
C14   C     C_R   0.950136 0.410362 0.446591 -0.132577
C15   C     C_R   0.093689 0.410073 0.445025 0.450486
C16   C     C_R   0.501395 0.260059 0.496521 0.872817
C17   C     C_R   0.050535 0.595828 0.547823 0.155997
C18   C     C_3   0.003750 0.632804 0.663721 -0.504126
C19   C     C_3   0.851108 0.635597 0.662465 -0.456503
C20   C     C_R   0.579455 0.499875 0.296363 0.881143
C21   C     C_R   0.788070 0.409117 0.012877 -0.130638
C22   C     C_R   0.628339 0.493327 0.179988 -0.059620
C23   C     C_R   0.467039 0.472056 0.874938 0.011959
C24   C     C_R   0.252300 0.580187 0.872014 -0.253820
C25   C     C_R   0.240963 0.640770 0.967950 -0.154665
C26   C     C_R   0.348060 0.627064 0.013744 0.259280
C27   C     C_R   0.558492 0.501385 0.021558 0.015740
C28   C     C_R   0.682369 0.429738 0.965375 0.113233
C29   C     C_R   0.691338 0.370256 0.868433 0.398517
C30   C     C_R   0.577431 0.383616 0.829289 -0.305434
C31   C     C_R   0.529862 0.523713 0.130186 -0.158719
C32   C     C_R   0.761853 0.443045 0.120001 -0.225476
H1    H     H_    0.839746 0.419539 0.157968 0.169083
H2    H     H_    0.781410 0.563641 0.714387 0.230392
H3    H     H_    0.804457 0.731369 0.672884 0.204353
H4    H     H_    0.886476 0.359770 0.970033 0.195017
H5    H     H_    0.423594 0.552414 0.179321 0.199548
H6    H     H_    0.177574 0.604942 0.831557 0.166617
H7    H     H_    0.156579 0.709269 0.000369 0.182182
H8    H     H_    0.578404 0.327499 0.760122 0.163118
H9    H     H_    0.738466 0.886338 0.446839 0.178897
H10   H     H_    0.279254 0.340270 0.368921 0.385065
H11   H     H_    0.797762 0.261742 0.748646 0.337577
H12   H     H_    0.738503 0.113978 0.446013 0.175514
H13   H     H_    0.232854 0.114584 0.640125 0.206162
H14   H     H_    0.158960 0.110858 0.526522 0.244967
H15   H     H_    0.233538 0.890242 0.641160 0.200793
H16   H     H_    0.159271 0.887183 0.527536 0.220233
H17   H     H_    0.913319 0.337228 0.404627 0.167693
H18   H     H_    0.022336 0.557623 0.715048 0.225031
H19   H     H_    0.044034 0.726632 0.676811 0.200212
N1    N     N_R   0.856940 0.500860 0.500710 -0.143757
N2    N     N_R   0.142580 0.500820 0.500710 -0.158040
O1    O     O_R   0.385310 0.683210 0.499990 -0.604536
O2    O     O_3   0.807328 0.294189 0.816653 -0.782291
O3    O     O_R   0.614650 0.683240 0.500000 -0.615551
O4    O     O_R   0.328390 0.499940 0.653610 -0.613003
O5    O     O_R   0.557730 0.499980 0.653620 -0.612736
O6    O     O_R   0.385350 0.316760 0.500000 -0.617480
O7    O     O_R   0.614690 0.316790 0.500010 -0.633119
O8    O     O_R   0.442270 0.500020 0.346380 -0.643719
O9    O     O_R   0.671610 0.500060 0.346390 -0.611112
O10   O     O_3   0.178953 0.314209 0.388062 -0.783297
Zn1   Zn    Zn3+2 0.346870 0.499980 0.499990 0.959064
Zn2   Zn    Zn3+2 0.653130 0.500020 0.500010 0.944028

loop_
_geom_bond_atom_site_label_1
_geom_bond_atom_site_label_2
_ccdc_geom_bond_type
H10   O10   S    
C10   C11   S    
C12   C27   A    
C28   C29   A    
C1    O3    A    
C21   C28   A    
C31   H5    S    
C3    C11   S    
C15   O10   S    
C8    C9    A    
C13   C17   A    
O4    Zn1   S    
C10   H14   S    
C18   C19   S    
C2    C24   A    
O3    Zn2   S    
C11   H15   S    
C22   C31   A    
C2    C4    S    
C11   H16   S    
C20   O8    A    
C23   C30   A    
C6    C7    A    
N2    Zn1   S    
C24   H6    S    
N1    Zn2   S    
C21   H4    S    
C25   H7    S    
C25   C26   A    
C1    C5    S    
C4    O4    A    
C14   H17   S    
C14   N1    A    
C8    C16   S    
C27   C28   A    
O1    Zn1   S    
O6    Zn1   S    
C32   H1    S    
C5    C6    A    
C1    O1    A    
C20   C22   S    
O5    Zn2   S    
C29   C30   A    
C15   N2    A    
O9    Zn2   S    
C20   O9    A    
C9    C10   S    
C4    O5    A    
C16   O6    A    
C3    C9    A    
C14   C15   A    
C19   H3    S    
C18   H18   S    
C27   C31   A    
C13   N1    A    
O7    Zn2   S    
C22   C32   A    
C13   C19   S    
C3    C5    A    
C17   C18   S    
C6    H9    S    
Br1   C26   S    
C21   C32   A    
C17   N2    A    
C7    H12   S    
C12   C26   A    
H11   O2    S    
C30   H8    S    
O8    Zn1   S    
C16   O7    A    
C24   C25   A    
C19   H2    S    
C29   O2    S    
C18   H19   S    
C12   C23   A    
C2    C23   A    
C7    C8    A    
C10   H13   S    
