data_mof_unit_37466.cif
_audit_creation_date              2012-12-10T18:05:50-0500
_audit_creation_method            fapswitch 2.2
_symmetry_space_group_name_H-M    P1
_symmetry_Int_Tables_number       1
_space_group_crystal_system       triclinic
_cell_length_a                    12.584007
_cell_length_b                    13.122788
_cell_length_c                    15.000015
_cell_angle_alpha                 90.524269
_cell_angle_beta                  102.686982
_cell_angle_gamma                 82.297153
_cell_volume                      2394.24929246

loop_
_atom_site_label
_atom_site_type_symbol
_atom_type_description
_atom_site_fract_x
_atom_site_fract_y
_atom_site_fract_z
_atom_type_partial_charge
C1    C     C_R   0.438727 0.691246 0.485482 0.855086
C2    C     C_R   0.596369 0.503438 0.110649 0.126635
C3    C     C_R   0.293655 0.519677 0.006866 -0.017078
C4    C     C_R   0.297382 0.518446 0.914334 -0.195362
C5    C     C_R   0.397476 0.512857 0.887656 0.064126
C6    C     C_R   0.496862 0.509199 0.953086 0.065388
C7    C     C_R   0.597976 0.504653 0.925713 0.118249
C8    C     C_R   0.696848 0.500750 0.990755 -0.203627
C9    C     C_R   0.696055 0.500060 0.083043 -0.211451
C10   C     C_R   0.399509 0.510868 0.795787 -0.238143
C11   C     C_R   0.499731 0.505056 0.768925 -0.073549
C12   C     C_R   0.500283 0.501193 0.673053 0.892779
C13   C     C_R   0.598603 0.502959 0.833489 -0.249084
C14   C     C_R   0.712609 0.061670 0.446860 -0.013537
C15   C     C_R   0.597500 0.199758 0.502626 -0.078335
C16   C     C_R   0.298149 0.839374 0.493136 -0.182034
C17   C     C_R   0.269106 0.944606 0.498938 -0.133514
C18   C     C_R   0.344061 0.011285 0.491575 -0.196834
C19   C     C_R   0.448334 0.973329 0.473764 0.097487
C20   C     C_R   0.468902 0.869091 0.452659 0.087323
C21   C     C_R   0.532844 0.035148 0.476299 0.071986
C22   C     C_R   0.629278 0.997482 0.444390 0.078560
C23   C     C_R   0.561212 0.308639 0.509483 0.882573
C24   C     C_R   0.636755 0.898936 0.407617 -0.202691
C25   C     C_R   0.558361 0.835547 0.412339 -0.203236
C26   C     C_R   0.524056 0.133232 0.511644 -0.247136
C27   C     C_R   0.693145 0.164120 0.472788 -0.252435
C28   C     C_R   0.399481 0.800941 0.472947 -0.119550
C29   C     C_R   0.087810 0.345712 0.374075 -0.295234
C30   C     C_R   0.799676 0.630660 0.607641 0.026503
C31   C     C_R   0.904305 0.659592 0.629346 -0.204688
C32   C     C_R   0.985789 0.610224 0.588519 -0.177282
C33   C     C_R   0.962670 0.531023 0.525509 0.015142
C34   C     C_R   0.499306 0.499925 0.326830 0.870070
C35   C     C_R   0.854651 0.504281 0.505972 0.237204
C36   C     C_R   0.041798 0.477612 0.481182 -0.009612
C37   C     C_R   0.011268 0.399150 0.418458 0.187470
C38   C     C_R   0.904802 0.374425 0.400802 -0.276435
C39   C     C_R   0.827959 0.426074 0.444211 -0.223636
C40   C     C_R   0.150793 0.498368 0.496458 -0.045180
C41   C     C_R   0.194073 0.370022 0.392259 0.003750
C42   C     C_R   0.596423 0.500649 0.202547 -0.253012
C43   C     C_R   0.497626 0.502048 0.230466 -0.055964
C44   C     C_R   0.397539 0.507358 0.166865 -0.261091
C45   C     C_R   0.394168 0.512757 0.073406 0.014538
C46   C     C_R   0.495537 0.508899 0.045698 0.065008
H1    H     H_    0.673906 0.496055 0.252319 0.164925
H2    H     H_    0.702584 0.869451 0.374856 0.189497
H3    H     H_    0.457494 0.161752 0.543753 0.154783
H4    H     H_    0.242780 0.788037 0.506929 0.161070
H5    H     H_    0.317096 0.092066 0.497831 0.138157
H6    H     H_    0.190148 0.974369 0.513130 0.160448
H7    H     H_    0.567673 0.760237 0.382733 0.173371
H8    H     H_    0.254749 0.329298 0.359003 0.139765
H9    H     H_    0.880686 0.314616 0.353231 0.191924
H10   H     H_    0.065744 0.285664 0.326176 0.155709
H11   H     H_    0.323405 0.506538 0.191579 0.150866
H12   H     H_    0.181868 0.555879 0.542946 0.121852
H13   H     H_    0.735831 0.668978 0.638844 0.143609
H14   H     H_    0.065430 0.635751 0.607537 0.134274
H15   H     H_    0.922178 0.720251 0.677494 0.159385
H16   H     H_    0.748059 0.402917 0.428063 0.212725
H17   H     H_    0.221688 0.523096 0.862417 0.186937
H18   H     H_    0.322798 0.513971 0.745224 0.158639
H19   H     H_    0.676051 0.498477 0.812171 0.168582
H20   H     H_    0.774624 0.497427 0.970252 0.170761
H21   H     H_    0.773359 0.496169 0.132858 0.157400
H22   H     H_    0.751613 0.216420 0.468548 0.185821
N1    N     N_R   0.222190 0.444670 0.452360 -0.103893
N2    N     N_R   0.776970 0.554790 0.547140 -0.134122
O1    O     O_R   0.366740 0.627160 0.477250 -0.616330
O2    O     O_R   0.544830 0.662520 0.507680 -0.616401
O3    O     O_R   0.410940 0.482340 0.616930 -0.624522
O4    O     O_R   0.589030 0.517700 0.647360 -0.621640
O5    O     O_R   0.455170 0.337480 0.492320 -0.615541
O6    O     O_R   0.633260 0.372840 0.522750 -0.634618
O7    O     O_R   0.410970 0.482300 0.352640 -0.620508
O8    O     O_R   0.589060 0.517660 0.383070 -0.649398
Zn1   Zn    Zn3+2 0.381090 0.476390 0.479680 0.942115
Zn2   Zn    Zn3+2 0.618910 0.523610 0.520320 0.934501
C47   C     C_2   0.819966 0.026241 0.423033 0.887167
O9    O     O_2   0.867162 0.939431 0.444467 -0.642887
O10   O     O_R   0.870018 0.094554 0.380042 -0.827214
H23   H     H_    0.943879 0.062628 0.369066 0.342447
C48   C     C_2   0.183897 0.530520 0.030817 0.396321
H24   H     H_    0.172818 0.556455 0.097250 0.058253
O11   O     O_2   0.102593 0.512164 0.974981 -0.574371

loop_
_geom_bond_atom_site_label_1
_geom_bond_atom_site_label_2
_ccdc_geom_bond_type
C16   C28   A    
C21   C26   A    
C8    H20   S    
C12   O4    A    
C3    C48   S    
C31   H15   S    
C19   C20   A    
C23   O6    A    
O1    Zn1   S    
C47   O9    D    
C7    C8    A    
C13   H19   S    
C45   C46   A    
C2    C46   A    
C4    H17   S    
C1    O1    A    
C36   C37   A    
C19   C21   A    
C25   H7    S    
C34   O7    A    
C5    C6    A    
O8    Zn2   S    
C20   C25   A    
C33   C36   A    
C18   C19   A    
C27   H22   S    
C47   O10   S    
C38   H9    S    
O10   H23   S    
C35   N2    A    
C8    C9    A    
C1    C28   S    
C14   C27   A    
C15   C23   S    
O4    Zn2   S    
C21   C22   A    
C17   H6    S    
C30   N2    A    
C18   H5    S    
O7    Zn1   S    
C38   C39   A    
C1    O2    A    
C40   H12   S    
C40   N1    A    
C48   O11   D    
N2    Zn2   S    
C24   H2    S    
C36   C40   A    
C24   C25   A    
C26   H3    S    
C23   O5    A    
C16   C17   A    
C15   C26   A    
C20   C28   A    
C48   H24   S    
C3    C45   A    
C35   C39   A    
C43   C44   A    
C9    H21   S    
C37   C38   A    
C15   C27   A    
C31   C32   A    
C44   H11   S    
C30   H13   S    
C17   C18   A    
O3    Zn1   S    
C22   C24   A    
N1    Zn1   S    
C42   C43   A    
C32   H14   S    
C3    C4    A    
C44   C45   A    
C41   N1    A    
C39   H16   S    
C6    C46   A    
C29   C41   A    
C10   H18   S    
C34   C43   S    
O6    Zn2   S    
C16   H4    S    
C4    C5    A    
C11   C12   S    
C6    C7    A    
C29   H10   S    
C32   C33   A    
C14   C22   A    
C5    C10   A    
O2    Zn2   S    
C34   O8    A    
C11   C13   A    
C30   C31   A    
C2    C42   A    
C33   C35   A    
C42   H1    S    
C41   H8    S    
C10   C11   A    
C7    C13   A    
C29   C37   A    
C14   C47   S    
C12   O3    A    
C2    C9    A    
O5    Zn1   S    
