data_mof_unit_63052.cif
_audit_creation_date              2013-03-05T16:44:43-0500
_audit_creation_method            fapswitch 2.2
_symmetry_space_group_name_H-M    P1
_symmetry_Int_Tables_number       1
_space_group_crystal_system       triclinic
_cell_length_a                    17.750945
_cell_length_b                    19.19256
_cell_length_c                    19.12643
_cell_angle_alpha                 94.420058
_cell_angle_beta                  98.726933
_cell_angle_gamma                 103.607382
_cell_volume                      6216.61031312

loop_
_atom_site_label
_atom_site_type_symbol
_atom_site_description
_atom_site_fract_x
_atom_site_fract_y
_atom_site_fract_z
_atom_type_partial_charge
Zn1   Zn    Zn3+2 0.565550 0.451340 0.451340 1.035473
Zn2   Zn    Zn3+2 0.429430 0.430690 0.543050 1.063225
Zn3   Zn    Zn3+2 0.439490 0.544930 0.432570 1.053404
Zn4   Zn    Zn3+2 0.565540 0.573040 0.573050 1.054401
O1    O     O_3   0.500000 0.500000 0.500000 -0.529183
O2    O     O_R   0.540910 0.554790 0.665460 -0.595092
O3    O     O_R   0.550840 0.462270 0.351610 -0.617462
O4    O     O_R   0.445650 0.335310 0.524600 -0.618967
O5    O     O_R   0.462600 0.647620 0.458330 -0.609274
O6    O     O_R   0.321500 0.427480 0.506110 -0.614399
O7    O     O_R   0.674970 0.575130 0.575140 -0.642458
O8    O     O_R   0.328550 0.507430 0.428780 -0.628490
O9    O     O_R   0.674980 0.489960 0.489960 -0.604688
O10   O     O_R   0.540930 0.349770 0.460420 -0.649146
O11   O     O_R   0.550820 0.667300 0.556650 -0.624046
O12   O     O_R   0.445640 0.455160 0.644460 -0.607582
O13   O     O_R   0.462610 0.527770 0.338470 -0.616566
C1    C     C_R   0.492083 0.505745 0.688541 0.950958
C2    C     C_R   0.508712 0.494721 0.312039 0.915375
C3    C     C_R   0.491367 0.308673 0.491196 0.837191
C4    C     C_R   0.509754 0.691750 0.508217 0.875148
C5    C     C_R   0.287744 0.459683 0.459805 0.820126
C6    C     C_R   0.712724 0.540306 0.539520 0.882599
C7    C     C_R   0.797080 0.547526 0.564468 -0.120178
C8    C     C_R   0.202145 0.442141 0.442430 -0.052764
C9    C     C_R   0.898664 0.549419 0.665139 -0.068467
C10   C     C_R   0.824595 0.557723 0.637982 -0.220203
C11   C     C_R   0.847372 0.533481 0.517553 0.246581
C12   C     C_R   0.915697 0.510913 0.545465 -0.038837
C13   C     C_R   0.944452 0.524366 0.619800 -0.049932
C14   C     C_R   0.955138 0.474334 0.501368 0.061449
C15   C     C_R   0.031954 0.467668 0.527590 -0.061705
C16   C     C_R   0.059578 0.480234 0.602558 0.183765
C17   C     C_R   0.015945 0.508763 0.647992 0.222413
C18   C     C_R   0.917097 0.439081 0.433353 -0.119668
C19   C     C_R   0.957510 0.408543 0.387895 -0.115473
C20   C     C_R   0.038294 0.415527 0.407331 0.093856
C21   C     C_R   0.076858 0.447040 0.477257 0.063788
C22   C     C_R   0.081327 0.393475 0.357201 0.477524
C23   C     C_R   0.163512 0.407095 0.375530 -0.285390
C24   C     C_R   0.159594 0.462549 0.492366 -0.151401
H1    H     H_    0.192686 0.494881 0.540881 0.177621
H2    H     H_    0.197599 0.391539 0.337322 0.148940
H3    H     H_    0.925824 0.382798 0.335896 0.217066
H4    H     H_    0.917103 0.558030 0.722359 0.205041
H5    H     H_    0.787623 0.569969 0.674966 0.190743
H6    H     H_    0.854983 0.433348 0.415134 0.175350
C25   C     C_R   0.515682 0.495807 0.236465 -0.250987
C26   C     C_R   0.521452 0.559767 0.203716 0.273823
C27   C     C_R   0.528268 0.558795 0.131413 0.362139
C28   C     C_R   0.526088 0.492707 0.090986 0.031188
C29   C     C_R   0.524820 0.429914 0.125166 0.271017
C30   C     C_R   0.519101 0.432246 0.197474 -0.303118
C31   C     C_R   0.461815 0.443824 0.868418 0.413286
C32   C     C_R   0.471105 0.442149 0.796641 0.181674
C33   C     C_R   0.474671 0.511215 0.910087 0.106416
N1    N     N_2   0.524394 0.488042 0.016336 -0.099145
N2    N     N_2   0.475021 0.516562 0.984346 -0.129307
C34   C     C_R   0.488373 0.507352 0.765254 -0.263559
H7    H     H_    0.516795 0.383893 0.223700 0.223077
C35   C     C_R   0.497552 0.573929 0.806431 0.420886
C36   C     C_R   0.490503 0.575002 0.878577 -0.297984
H8    H     H_    0.498969 0.625971 0.911062 0.198374
C37   C     C_R   0.519329 0.770480 0.508530 -0.241921
C38   C     C_R   0.501325 0.801801 0.445310 0.360964
C39   C     C_R   0.508046 0.876378 0.448617 0.237344
C40   C     C_R   0.535288 0.920512 0.514607 0.044975
C41   C     C_R   0.557064 0.890030 0.577119 0.275551
C42   C     C_R   0.548300 0.815240 0.573149 -0.288235
C43   C     C_R   0.548681 0.131648 0.480239 -0.142834
C44   C     C_R   0.551136 0.204312 0.476497 -0.188712
C45   C     C_R   0.482225 0.084286 0.497705 0.244376
N3    N     N_2   0.542344 0.995720 0.517761 -0.080241
N4    N     N_2   0.477723 0.009520 0.498062 -0.067165
C46   C     C_R   0.487565 0.231223 0.490467 -0.062456
H9    H     H_    0.603244 0.239640 0.463766 0.186975
H10   H     H_    0.598456 0.112153 0.468601 0.201940
H11   H     H_    0.562753 0.791409 0.621355 0.240537
C47   C     C_R   0.420678 0.184124 0.506584 -0.222630
C48   C     C_R   0.416886 0.110642 0.509960 0.283750
H12   H     H_    0.371332 0.204878 0.517231 0.219057
N5    N     N_R   0.043223 0.519066 0.723530 0.232210
O14   O     O_R   0.046864 0.463821 0.758087 -0.274604
O15   O     O_R   0.067412 0.583932 0.757337 -0.314442
O16   O     O_3   0.042389 0.360614 0.290383 -0.733213
H13   H     H_    0.081204 0.349005 0.262103 0.358143
N6    N     N_R   0.464962 0.373947 0.756467 0.268139
O17   O     O_R   0.521089 0.365155 0.722766 -0.370491
O18   O     O_R   0.406334 0.318944 0.757779 -0.234915
O19   O     O_3   0.441841 0.378995 0.896299 -0.624424
H14   H     H_    0.420196 0.386604 0.940217 0.370208
N7    N     N_R   0.527528 0.363076 0.086850 0.242656
O20   O     O_R   0.500508 0.301818 0.110283 -0.320579
O21   O     O_R   0.562848 0.363057 0.031997 -0.279922
O22   O     O_3   0.512132 0.637065 0.774929 -0.704725
H15   H     H_    0.516585 0.678529 0.810952 0.360915
O23   O     O_3   0.540885 0.623755 0.102990 -0.655687
H16   H     H_    0.568223 0.620060 0.061932 0.359415
N8    N     N_R   0.527435 0.627225 0.244976 0.249955
O24   O     O_R   0.579481 0.647836 0.303062 -0.387681
O25   O     O_R   0.487257 0.671582 0.220801 -0.236317
N9    N     N_R   0.586412 0.933629 0.645128 0.250001
O26   O     O_R   0.571719 0.996337 0.657249 -0.290902
O27   O     O_R   0.624702 0.908934 0.697116 -0.317755
N10   N     N_R   0.491548 0.907899 0.383911 0.259892
O28   O     O_R   0.539662 0.966181 0.371285 -0.341505
O29   O     O_R   0.430255 0.876671 0.335826 -0.233925
N11   N     N_R   0.347070 0.064154 0.526895 0.236339
O30   O     O_R   0.280958 0.083364 0.518875 -0.312668
O31   O     O_R   0.349744 0.004792 0.554665 -0.291549
O32   O     O_3   0.481086 0.762053 0.379046 -0.620452
H17   H     H_    0.513712 0.726844 0.378191 0.381751
N12   N     N_R   0.838721 0.555600 0.446673 0.198882
O33   O     O_R   0.901219 0.585806 0.421725 -0.321257
O34   O     O_R   0.770341 0.555642 0.410876 -0.348873
N13   N     N_R   0.125164 0.454657 0.634333 0.220441
O35   O     O_R   0.181683 0.497033 0.680882 -0.309935
O36   O     O_R   0.126522 0.387704 0.619361 -0.312846

loop_
_geom_bond_atom_site_label_1
_geom_bond_atom_site_label_2
_geom_bond_distance
_ccdc_geom_bond_type
N6    O17   1.301452 A    
C32   C34   1.418285 A    
C24   H1    1.079570 S    
O22   H15   0.991778 S    
C7    C10   1.399305 A    
C18   H6    1.081503 S    
O23   H16   0.990177 S    
O19   H14   0.989954 S    
O16   H13   0.991790 S    
N13   O35   1.301558 A    
N10   O29   1.301299 A    
C9    C10   1.388536 A    
C12   C13   1.417677 A    
Zn1   O1    1.948909 S    
C11   C12   1.424743 A    
C41   N9    1.443988 S    
C31   O19   1.382132 S    
C8    C23   1.394263 A    
C44   H9    1.083166 S    
O8    C5    1.272183 A    
N11   O30   1.301675 A    
O9    C6    1.281629 A    
N3    N4    1.247026 D    
C38   O32   1.378836 S    
C4    C37   1.479729 S    
Zn3   O8    1.919137 S    
C9    H4    1.081736 S    
C23   H2    1.083907 S    
C18   C19   1.386591 A    
C33   N2    1.415069 S    
C41   C42   1.401757 A    
C16   N13   1.437337 S    
C5    C8    1.456499 S    
C6    C7    1.471201 S    
C43   C44   1.392727 A    
C40   N3    1.414941 S    
C15   C21   1.428787 A    
Zn2   O12   1.921484 S    
C39   C40   1.414800 A    
C43   H10   1.082857 S    
C42   H11   1.083292 S    
C35   C36   1.403366 A    
C30   H7    1.083792 S    
C27   C28   1.422974 A    
C25   C30   1.398699 A    
O2    C1    1.276092 A    
C31   C33   1.416749 A    
C34   C35   1.409800 A    
C13   C17   1.409623 A    
C28   C29   1.411881 A    
O10   C3    1.282523 A    
C21   C24   1.407577 A    
Zn4   O2    1.922409 S    
C8    C24   1.391625 A    
C22   C23   1.403837 A    
C47   H12   1.083144 S    
C2    C25   1.470658 S    
N5    O14   1.300996 A    
O6    C5    1.273979 A    
C40   C41   1.412511 A    
C3    C46   1.470923 S    
C20   C22   1.412005 A    
C20   C21   1.423326 A    
Zn3   O5    1.924575 S    
C26   N8    1.436195 S    
N8    O24   1.301208 A    
C12   C14   1.419009 A    
C36   H8    1.083677 S    
N7    O21   1.301318 A    
C16   C17   1.409001 A    
O4    C3    1.276841 A    
C37   C42   1.401989 A    
Zn4   O7    1.927689 S    
N9    O27   1.301698 A    
C28   N1    1.418981 S    
C10   H5    1.083577 S    
C45   N4    1.418876 S    
C25   C26   1.410158 A    
N8    O25   1.301327 A    
C9    C13   1.406158 A    
N5    O15   1.300969 A    
N6    O18   1.301220 A    
C33   C36   1.394348 A    
C29   N7    1.442127 S    
Zn2   O1    1.927295 S    
Zn1   O9    1.915989 S    
C22   O16   1.382527 S    
C39   N10   1.439502 S    
Zn2   O6    1.923667 S    
C29   C30   1.400063 A    
N12   O33   1.301987 A    
C31   C32   1.406167 A    
C19   C20   1.397353 A    
C27   O23   1.382062 S    
O32   H17   0.988765 S    
Zn1   O3    1.920149 S    
C14   C15   1.418329 A    
Zn2   O4    1.933322 S    
C7    C11   1.412029 A    
Zn4   O1    1.925666 S    
Zn3   O1    1.935846 S    
C35   O22   1.382246 S    
N10   O28   1.301411 A    
C48   N11   1.443234 S    
O3    C2    1.280633 A    
C15   C16   1.425577 A    
Zn4   O11   1.929897 S    
C45   C48   1.412903 A    
C37   C38   1.418009 A    
C44   C46   1.398585 A    
O5    C4    1.275886 A    
N1    N2    1.247679 D    
N11   O31   1.301330 A    
O7    C6    1.280280 A    
N7    O20   1.301662 A    
O13   C2    1.283710 A    
N13   O36   1.301436 A    
Zn3   O13   1.926797 S    
C14   C18   1.410279 A    
C38   C39   1.403675 A    
C32   N6    1.438082 S    
N9    O26   1.301271 A    
C19   H3    1.083220 S    
C11   N12   1.448420 S    
C47   C48   1.402988 A    
C1    C34   1.476953 S    
O11   C4    1.277790 A    
O12   C1    1.272540 A    
C26   C27   1.405438 A    
C43   C45   1.411142 A    
Zn1   O10   1.922399 S    
C17   N5    1.435104 S    
C46   C47   1.403863 A    
N12   O34   1.300177 A    
