data_mof_unit_16692.cif
_audit_creation_date              2013-03-05T16:00:43-0500
_audit_creation_method            fapswitch 2.2
_symmetry_space_group_name_H-M    P1
_symmetry_Int_Tables_number       1
_space_group_crystal_system       triclinic
_cell_length_a                    21.203128
_cell_length_b                    21.217715
_cell_length_c                    14.108917
_cell_angle_alpha                 90.102456
_cell_angle_beta                  90.086322
_cell_angle_gamma                 89.96199
_cell_volume                      6347.32803059

loop_
_atom_site_label
_atom_site_type_symbol
_atom_site_description
_atom_site_fract_x
_atom_site_fract_y
_atom_site_fract_z
_atom_type_partial_charge
O1    O     O_R   0.066090 0.433930 0.580280 -0.571420
O2    O     O_R   0.933910 0.566070 0.419720 -0.587471
O3    O     O_R   0.933910 0.566070 0.580280 -0.569408
O4    O     O_R   0.066090 0.433930 0.419720 -0.586094
O5    O     O_R   0.933910 0.433930 0.419720 -0.645586
O6    O     O_R   0.066090 0.566070 0.580280 -0.628790
O7    O     O_R   0.066090 0.566070 0.419720 -0.644977
O8    O     O_R   0.933910 0.433930 0.580280 -0.623889
O9    O     O_R   0.566090 0.933930 0.580280 -0.644212
O10   O     O_R   0.433910 0.066070 0.419720 -0.631021
O11   O     O_R   0.433910 0.066070 0.580280 -0.643835
O12   O     O_R   0.566090 0.933930 0.419720 -0.628807
O13   O     O_R   0.433910 0.933930 0.419720 -0.573205
O14   O     O_R   0.566090 0.066070 0.580280 -0.586507
O15   O     O_R   0.566090 0.066070 0.419720 -0.570485
O16   O     O_R   0.433910 0.933930 0.580280 -0.585144
C1    C     C_R   0.087165 0.413771 0.499992 0.869819
C2    C     C_R   0.912815 0.586207 0.499997 0.872287
C3    C     C_R   0.913092 0.413605 0.499912 0.872948
C4    C     C_R   0.086300 0.586984 0.500173 0.870146
C5    C     C_R   0.586552 0.913208 0.499952 0.870947
C6    C     C_R   0.413487 0.086835 0.499959 0.869050
C7    C     C_R   0.412951 0.913702 0.499893 0.866210
C8    C     C_R   0.587215 0.086158 0.500074 0.872969
Zn1   Zn    Zn3+2 0.000000 0.500000 0.607200 1.012542
Zn2   Zn    Zn3+2 1.000000 0.500000 0.392800 0.973313
Zn3   Zn    Zn3+2 0.500000 1.000000 0.607200 0.972576
Zn4   Zn    Zn3+2 0.500000 0.000000 0.392800 1.003382
C9    C     C_R   0.144507 0.669779 0.417879 -0.240229
C10   C     C_R   0.844102 0.340852 0.414158 -0.242534
C11   C     C_R   0.844433 0.659653 0.414818 -0.229693
C12   C     C_R   0.155607 0.340346 0.414782 -0.230515
C13   C     C_R   0.655208 0.160213 0.585274 -0.233839
C14   C     C_R   0.350676 0.834325 0.582967 -0.226231
C15   C     C_R   0.352859 0.167557 0.583878 -0.239483
C16   C     C_R   0.647277 0.832614 0.583805 -0.239441
C17   C     C_R   0.132304 0.636738 0.500982 -0.081246
C18   C     C_R   0.864278 0.366575 0.499853 -0.076092
C19   C     C_R   0.862309 0.631637 0.499831 -0.109475
C20   C     C_R   0.137673 0.368340 0.499849 -0.108358
C21   C     C_R   0.636567 0.132791 0.500085 -0.107498
C22   C     C_R   0.364031 0.866676 0.499671 -0.112795
C23   C     C_R   0.367651 0.136854 0.499462 -0.078914
C24   C     C_R   0.632509 0.863306 0.499466 -0.079429
C25   C     C_R   0.163353 0.651527 0.585402 -0.235602
C26   C     C_R   0.838195 0.347300 0.585777 -0.223247
C27   C     C_R   0.831361 0.646092 0.584354 -0.220324
C28   C     C_R   0.168619 0.353921 0.584452 -0.225748
C29   C     C_R   0.664553 0.150217 0.414608 -0.229924
C30   C     C_R   0.330381 0.854726 0.416452 -0.225640
C31   C     C_R   0.339905 0.154732 0.413860 -0.243280
C32   C     C_R   0.660392 0.845524 0.413961 -0.239621
C33   C     C_R   0.207376 0.700090 0.588283 0.027073
C34   C     C_R   0.790983 0.301901 0.587586 0.025808
C35   C     C_R   0.782099 0.689491 0.585447 0.021615
C36   C     C_R   0.217961 0.310612 0.585556 0.021768
C37   C     C_R   0.710757 0.196680 0.412467 0.020881
C38   C     C_R   0.284085 0.808183 0.414262 0.019610
C39   C     C_R   0.297553 0.204752 0.410748 0.026111
C40   C     C_R   0.702714 0.795477 0.410809 0.025402
C41   C     C_R   0.221972 0.731438 0.502245 0.060596
C42   C     C_R   0.772685 0.273819 0.500360 0.060799
C43   C     C_R   0.765242 0.718969 0.498756 0.066282
C44   C     C_R   0.234892 0.281169 0.498791 0.065932
C45   C     C_R   0.728354 0.225478 0.499461 0.068010
C46   C     C_R   0.269486 0.776729 0.500252 0.063554
C47   C     C_R   0.281015 0.234435 0.497534 0.061303
C48   C     C_R   0.719188 0.765768 0.497517 0.061975
C49   C     C_R   0.189547 0.716787 0.417691 0.104322
C50   C     C_R   0.798994 0.293984 0.413825 0.105909
C51   C     C_R   0.795956 0.703003 0.413482 0.094140
C52   C     C_R   0.204166 0.297085 0.413453 0.093758
C53   C     C_R   0.701211 0.206127 0.585786 0.094800
C54   C     C_R   0.302808 0.790299 0.584413 0.094058
C55   C     C_R   0.309253 0.215952 0.583711 0.104238
C56   C     C_R   0.690915 0.784252 0.583635 0.104582
C57   C     C_R   0.239075 0.716471 0.673375 -0.031705
C58   C     C_R   0.763113 0.282186 0.673883 -0.030557
C59   C     C_R   0.751051 0.706277 0.670801 -0.033885
C60   C     C_R   0.249021 0.293878 0.670975 -0.032359
C61   C     C_R   0.738151 0.216841 0.326046 -0.031121
C62   C     C_R   0.250801 0.793255 0.329851 -0.029603
C63   C     C_R   0.269199 0.224181 0.324479 -0.030978
C64   C     C_R   0.731039 0.775993 0.324577 -0.031511
C65   C     C_R   0.781143 0.266410 0.327982 -0.260344
C66   C     C_R   0.203215 0.748095 0.333310 -0.262711
C67   C     C_R   0.221638 0.269397 0.327626 -0.261367
C68   C     C_R   0.778542 0.730718 0.327714 -0.260034
C69   C     C_R   0.287691 0.760496 0.669523 -0.260259
C70   C     C_R   0.718948 0.233712 0.671634 -0.255764
C71   C     C_R   0.706530 0.754585 0.668771 -0.261409
C72   C     C_R   0.293591 0.245615 0.668920 -0.263100
H1    H     H_    0.119530 0.658392 0.352897 0.157839
H2    H     H_    0.864593 0.356094 0.347660 0.153256
H3    H     H_    0.868980 0.648751 0.349610 0.210659
H4    H     H_    0.131054 0.351205 0.349513 0.210528
H5    H     H_    0.632985 0.147052 0.651273 0.211405
H6    H     H_    0.377325 0.843552 0.647087 0.206098
H7    H     H_    0.374974 0.153597 0.649986 0.156239
H8    H     H_    0.625088 0.846527 0.649853 0.156317
H9    H     H_    0.154190 0.623460 0.647670 0.195107
H10   H     H_    0.855983 0.367191 0.650957 0.189672
H11   H     H_    0.847056 0.624191 0.649103 0.236865
H12   H     H_    0.152883 0.375800 0.649241 0.235857
H13   H     H_    0.648690 0.128358 0.349910 0.239402
H14   H     H_    0.340050 0.882847 0.354478 0.228733
H15   H     H_    0.350533 0.128182 0.350508 0.191701
H16   H     H_    0.649802 0.872091 0.350700 0.194350
H17   H     H_    0.802355 0.282388 0.262315 0.175242
H18   H     H_    0.177928 0.735747 0.268966 0.178795
H19   H     H_    0.198552 0.283844 0.262466 0.182898
H20   H     H_    0.801604 0.716224 0.262585 0.182943
H21   H     H_    0.312867 0.772996 0.733896 0.183512
H22   H     H_    0.696990 0.218380 0.737104 0.180137
H23   H     H_    0.683261 0.768716 0.733901 0.179368
H24   H     H_    0.316848 0.231502 0.734097 0.179114
C73   C     C_R   0.970373 0.547588 0.799396 0.463685
C74   C     C_R   0.046229 0.468329 0.200244 0.454217
C75   C     C_R   0.029701 0.452467 0.799281 0.462003
C76   C     C_R   0.953828 0.531747 0.200180 0.454788
C77   C     C_R   0.454543 0.967292 0.799670 0.452945
C78   C     C_R   0.528836 0.048018 0.200814 0.460569
C79   C     C_R   0.545663 0.032396 0.799994 0.456110
C80   C     C_R   0.471254 0.951834 0.200621 0.444261
N1    N     N_R   1.000000 0.500000 0.750030 -0.183520
N2    N     N_R   0.000000 0.500000 0.249970 -0.199166
N3    N     N_R   0.500000 1.000000 0.750030 -0.199729
N4    N     N_R   0.500000 0.000000 0.249970 -0.185499
C81   C     C_R   0.036098 0.455772 0.899353 -0.084524
C82   C     C_R   0.957679 0.538252 0.100372 -0.068762
C83   C     C_R   0.964037 0.544344 0.899419 -0.079523
C84   C     C_R   0.042438 0.461876 0.100370 -0.068012
C85   C     C_R   0.541712 0.038847 0.899825 -0.069397
C86   C     C_R   0.465203 0.954724 0.100454 -0.084705
C87   C     C_R   0.458731 0.960723 0.899441 -0.067595
C88   C     C_R   0.535261 0.044816 0.100794 -0.080242
C89   C     C_R   0.000071 0.500066 0.949577 0.017425
C90   C     C_R   0.000073 0.500075 0.050163 0.007327
C91   C     C_R   0.500208 0.999803 0.949856 0.007863
C92   C     C_R   0.500228 0.999777 0.050452 0.022362
C93   C     C_R   0.076294 0.415188 0.950324 -0.154637
C94   C     C_R   0.919166 0.580460 0.049448 -0.170993
C95   C     C_R   0.923879 0.584973 0.950416 -0.146695
C96   C     C_R   0.080947 0.419659 0.049404 -0.173574
C97   C     C_R   0.579375 0.081771 0.950931 -0.174039
C98   C     C_R   0.426205 0.913136 0.049117 -0.161899
C99   C     C_R   0.421413 0.917516 0.950110 -0.175890
C100  C     C_R   0.574629 0.086154 0.049979 -0.151445
H25   H     H_    0.105446 0.381088 0.913582 0.187897
H26   H     H_    0.886496 0.611190 0.086189 0.178723
H27   H     H_    0.894772 0.619107 0.913715 0.187480
H28   H     H_    0.113583 0.388895 0.086130 0.178504
H29   H     H_    0.611390 0.113125 0.914329 0.179395
H30   H     H_    0.398097 0.878214 0.085407 0.221250
H31   H     H_    0.389584 0.885969 0.913205 0.181711
H32   H     H_    0.603055 0.120835 0.086811 0.189776
C101  C     C_2   0.222460 0.690496 0.767860 0.907084
O17   O     O_2   0.167253 0.683248 0.790298 -0.667616
O18   O     O_R   0.270294 0.677354 0.833265 -0.791431
H33   H     H_    0.253306 0.660916 0.895641 0.351550
C102  C     C_2   0.776992 0.311289 0.767459 0.889117
O19   O     O_2   0.780413 0.368566 0.775737 -0.616852
O20   O     O_R   0.782913 0.272881 0.847427 -0.803663
H34   H     H_    0.791339 0.297906 0.907407 0.353457
C103  C     C_2   0.763253 0.675268 0.763372 0.898395
O21   O     O_2   0.767794 0.617914 0.768472 -0.608777
O22   O     O_R   0.766584 0.711845 0.845773 -0.805615
H35   H     H_    0.774424 0.685578 0.904601 0.344918
C104  C     C_2   0.236768 0.324888 0.763643 0.897676
O23   O     O_2   0.232134 0.382235 0.769001 -0.621726
O24   O     O_R   0.233499 0.288325 0.845852 -0.805477
H36   H     H_    0.225620 0.314593 0.904771 0.344115
C105  C     C_2   0.724190 0.187752 0.232491 0.892490
O25   O     O_2   0.722820 0.130431 0.223562 -0.620165
O26   O     O_R   0.715681 0.226345 0.153256 -0.805577
H37   H     H_    0.707257 0.201342 0.093249 0.345769
C106  C     C_2   0.264869 0.821502 0.236047 0.898631
O27   O     O_2   0.319365 0.827996 0.209829 -0.658350
O28   O     O_R   0.215247 0.837574 0.175318 -0.791904
H38   H     H_    0.230539 0.855365 0.112785 0.346389
C107  C     C_2   0.287490 0.199488 0.229733 0.900933
O29   O     O_2   0.342948 0.190583 0.210206 -0.675861
O30   O     O_R   0.241047 0.189463 0.160857 -0.793123
H39   H     H_    0.259132 0.173681 0.098695 0.354223
C108  C     C_2   0.712702 0.800626 0.229868 0.906180
O31   O     O_2   0.657231 0.809508 0.210193 -0.674076
O32   O     O_R   0.759110 0.810606 0.161184 -0.789813
H40   H     H_    0.740991 0.826343 0.099022 0.355735
O33   O     O_3   0.947424 0.599398 0.751663 -0.626108
C109  C     C_3   0.993182 0.647771 0.756892 0.106325
H41   H     H_    0.040158 0.630766 0.732279 0.179119
H42   H     H_    0.997746 0.665197 0.831111 0.146163
C110  C     C_3   0.972942 0.702760 0.693991 -0.344903
H43   H     H_    0.968580 0.686411 0.619474 0.227510
H44   H     H_    0.926230 0.720567 0.717776 0.228534
C111  C     C_3   0.020824 0.756375 0.697708 -0.881310
H45   H     H_    0.026313 0.773867 0.771539 0.274790
H46   H     H_    0.004276 0.795848 0.652450 0.261184
H47   H     H_    0.067305 0.740057 0.670900 0.283508
O34   O     O_3   0.097738 0.443560 0.246786 -0.644506
C112  C     C_3   0.142864 0.491819 0.262701 0.139097
H48   H     H_    0.162145 0.485600 0.335338 0.177430
H49   H     H_    0.123233 0.540689 0.259684 0.128539
C113  C     C_3   0.197338 0.485814 0.192285 -0.419836
H50   H     H_    0.216648 0.437113 0.194731 0.238428
H51   H     H_    0.179878 0.495245 0.119437 0.235384
C114  C     C_3   0.249901 0.532564 0.215222 -0.902401
H52   H     H_    0.231686 0.581646 0.212370 0.262703
H53   H     H_    0.288443 0.527539 0.162556 0.277170
H54   H     H_    0.269403 0.523276 0.286979 0.265330
O35   O     O_3   0.052498 0.400596 0.751340 -0.620810
C115  C     C_3   0.007140 0.351923 0.757630 0.090795
H55   H     H_    0.959424 0.368851 0.736162 0.151678
H56   H     H_    0.004696 0.333743 0.831531 0.139328
C116  C     C_3   0.025900 0.297727 0.691999 -0.329670
H57   H     H_    0.027251 0.314718 0.617640 0.227567
H58   H     H_    0.073675 0.280479 0.711666 0.229758
C117  C     C_3   0.979072 0.243311 0.698330 -0.920175
H59   H     H_    0.977594 0.224461 0.771690 0.273592
H60   H     H_    0.993848 0.204910 0.649614 0.270674
H61   H     H_    0.931129 0.259304 0.677510 0.264388
O36   O     O_3   0.902138 0.556250 0.246503 -0.643903
C118  C     C_3   0.857411 0.507663 0.262242 0.137387
H62   H     H_    0.838409 0.513573 0.335048 0.178642
H63   H     H_    0.877355 0.458956 0.258513 0.124991
C119  C     C_3   0.802586 0.513383 0.192203 -0.424068
H64   H     H_    0.782581 0.561776 0.195806 0.238641
H65   H     H_    0.819891 0.504750 0.119076 0.238326
C120  C     C_3   0.750828 0.465673 0.214388 -0.883194
H66   H     H_    0.769727 0.416885 0.210190 0.265129
H67   H     H_    0.711924 0.470578 0.162152 0.279309
H68   H     H_    0.731598 0.474049 0.286525 0.263808
O37   O     O_3   0.403489 0.941401 0.753220 -0.641054
C121  C     C_3   0.357290 0.988738 0.737816 0.141892
H69   H     H_    0.336008 0.980402 0.666901 0.174471
H70   H     H_    0.376521 0.037746 0.736759 0.129832
C122  C     C_3   0.304925 0.984263 0.812024 -0.428322
H71   H     H_    0.286144 0.935372 0.813693 0.239649
H72   H     H_    0.324277 0.995959 0.883073 0.233737
C123  C     C_3   0.251218 0.029867 0.789798 -0.895944
H73   H     H_    0.268928 0.079141 0.788567 0.267246
H74   H     H_    0.214283 0.026035 0.845189 0.276901
H75   H     H_    0.229787 0.018360 0.719989 0.263684
O38   O     O_3   0.551597 0.099849 0.248899 -0.627244
C124  C     C_3   0.506027 0.148430 0.243512 0.110374
H76   H     H_    0.459269 0.131865 0.269307 0.181243
H77   H     H_    0.500888 0.165161 0.169110 0.148070
C125  C     C_3   0.527090 0.203922 0.305067 -0.349768
H78   H     H_    0.531601 0.188330 0.379848 0.227599
H79   H     H_    0.573851 0.220898 0.280387 0.229392
C126  C     C_3   0.479919 0.258173 0.300853 -0.869644
H80   H     H_    0.473790 0.274541 0.226669 0.276557
H81   H     H_    0.497526 0.298116 0.344384 0.258819
H82   H     H_    0.433621 0.243044 0.329515 0.285147
O39   O     O_3   0.597014 0.057512 0.753851 -0.644814
C127  C     C_3   0.642573 0.009546 0.738461 0.132498
H83   H     H_    0.662758 0.016499 0.666630 0.176205
H84   H     H_    0.623068 0.960630 0.739702 0.129923
C128  C     C_3   0.696119 0.014963 0.810821 -0.419312
H85   H     H_    0.715333 0.063700 0.810027 0.244148
H86   H     H_    0.677766 0.004843 0.882869 0.236504
C129  C     C_3   0.749073 0.968463 0.788702 -0.888596
H87   H     H_    0.730940 0.919343 0.789949 0.266148
H88   H     H_    0.786921 0.973043 0.842743 0.278777
H89   H     H_    0.769468 0.978410 0.717810 0.263722
O40   O     O_3   0.448164 0.900252 0.248727 -0.605666
C130  C     C_3   0.493764 0.851623 0.244460 0.145262
H90   H     H_    0.540858 0.868658 0.268534 0.170236
H91   H     H_    0.498031 0.833479 0.170613 0.145494
C131  C     C_3   0.473565 0.797318 0.308732 -0.323817
H92   H     H_    0.469899 0.814303 0.383005 0.224381
H93   H     H_    0.426575 0.779688 0.285961 0.257836
C132  C     C_3   0.520796 0.743074 0.305490 -0.897024
H94   H     H_    0.526356 0.725514 0.231704 0.278974
H95   H     H_    0.503609 0.703809 0.350528 0.261694
H96   H     H_    0.567325 0.758727 0.333015 0.287334

loop_
_geom_bond_atom_site_label_1
_geom_bond_atom_site_label_2
_geom_bond_distance
_ccdc_geom_bond_type
C84   C96   1.408758 A    
C63   C67   1.392136 A    
O24   H36   1.014018 S    
C124  H77   1.113902 S    
C129  H88   1.110307 S    
C109  H41   1.114882 S    
C8    C21   1.440603 S    
O2    C2    1.290337 A    
C112  H49   1.117944 S    
C104  O23   1.222890 D    
C16   H8    1.084910 S    
O20   H34   1.013941 S    
C14   C22   1.391622 A    
C94   H26   1.083037 S    
C88   C92   1.402303 A    
C128  C129  1.526436 S    
C74   O34   1.377850 S    
C97   C100  1.404144 A    
C129  H89   1.110924 S    
C102  O19   1.222871 D    
C117  H59   1.110775 S    
C118  C119  1.529484 S    
C45   C53   1.409753 A    
C126  H80   1.110767 S    
C12   C52   1.379034 A    
C105  O25   1.222849 D    
C58   C70   1.391688 A    
C87   C91   1.401391 A    
C72   H24   1.085306 S    
C26   H10   1.078824 S    
C63   C107  1.486818 S    
C103  O21   1.222896 D    
O7    Zn2   2.017976 S    
C121  H70   1.117316 S    
C79   C85   1.417498 A    
C76   C82   1.417656 A    
C54   C69   1.395950 A    
C127  H84   1.117688 S    
C66   H18   1.085413 S    
C58   C102  1.485646 S    
C39   C63   1.418486 A    
C53   C70   1.395508 A    
C77   N3    1.380493 A    
C120  H68   1.110950 S    
C65   H17   1.085435 S    
C38   C62   1.418846 A    
O18   H33   1.013958 S    
Zn2   N2    2.015178 S    
C40   C64   1.418413 A    
C130  C131  1.529351 S    
C76   N2    1.379987 A    
C108  O32   1.398577 S    
O6    Zn1   2.019714 S    
C67   H19   1.085438 S    
C75   O35   1.378414 S    
C41   C49   1.410303 A    
C46   C54   1.410170 A    
C127  C128  1.529955 S    
C132  H96   1.110496 S    
C29   C37   1.390687 A    
O38   C124  1.414403 S    
O13   C7    1.290243 A    
O3    C2    1.290571 A    
C20   C28   1.395567 A    
C112  H48   1.110837 S    
O14   C8    1.290879 A    
C43   C51   1.409599 A    
C14   C54   1.380058 A    
Zn1   N1    2.015177 S    
C32   C40   1.390525 A    
C109  C110  1.528048 S    
C10   C50   1.380178 A    
Zn3   N3    2.015177 S    
C41   C46   1.393073 A    
C38   C46   1.420367 A    
C101  O17   1.222966 D    
O35   C115  1.414649 S    
C11   C19   1.391592 A    
O34   C112  1.419218 S    
C110  H44   1.111949 S    
C16   C56   1.381228 A    
C114  H54   1.110937 S    
C109  H42   1.113977 S    
C36   C44   1.419858 A    
O13   Zn4   2.019717 S    
O14   Zn3   2.019714 S    
C15   C23   1.392598 A    
O37   C121  1.419283 S    
C79   O39   1.377492 S    
C110  H43   1.110265 S    
C125  C126  1.525589 S    
C80   N4    1.377578 A    
C97   H29   1.083038 S    
C24   C32   1.395508 A    
O16   Zn3   2.017979 S    
C95   H27   1.083207 S    
C96   H28   1.083017 S    
C25   C33   1.391282 A    
C101  O18   1.398461 S    
C124  H76   1.113950 S    
O1    Zn1   2.017481 S    
O8    Zn1   2.017979 S    
C104  O24   1.398384 S    
C42   C50   1.410364 A    
C64   C108  1.486781 S    
O1    C1    1.290488 A    
C33   C41   1.419871 A    
C60   C104  1.485782 S    
C111  H47   1.111045 S    
C15   H7    1.084916 S    
C21   C29   1.395448 A    
C102  O20   1.398425 S    
C125  H79   1.111755 S    
C31   C39   1.390517 A    
C9    C49   1.381365 A    
C105  O26   1.398328 S    
C86   C98   1.408500 A    
C69   H21   1.085379 S    
O8    C3    1.289788 A    
C27   H11   1.077791 S    
C93   H25   1.083199 S    
C114  H52   1.111238 S    
C30   C38   1.393147 A    
C44   C47   1.392356 A    
C64   C68   1.392126 A    
O3    Zn1   2.017630 S    
C74   C84   1.417673 A    
C118  H62   1.110827 S    
C111  H46   1.110462 S    
C122  C123  1.526407 S    
C116  C117  1.526115 S    
C37   C45   1.419620 A    
O22   H35   1.014022 S    
C9    H1    1.085046 S    
C10   H2    1.084484 S    
C126  H82   1.110086 S    
C78   O38   1.378281 S    
C34   C42   1.419988 A    
C106  O28   1.398312 S    
C107  O29   1.222601 D    
C19   C27   1.395551 A    
O12   C5    1.289573 A    
C123  H75   1.110920 S    
O10   C6    1.289451 A    
C51   C68   1.395477 A    
C35   C43   1.419886 A    
C1    C20   1.440386 S    
C61   C105  1.485598 S    
C60   C72   1.393292 A    
C33   C57   1.417834 A    
C2    C19   1.440354 S    
O30   H39   1.013972 S    
C114  H53   1.110308 S    
C120  H66   1.111288 S    
C83   C89   1.402496 A    
C3    C18   1.438164 S    
C77   O37   1.378572 S    
C5    C24   1.438481 S    
C35   C59   1.418103 A    
C100  H32   1.083086 S    
C39   C47   1.420261 A    
C79   N3    1.379820 A    
O26   H37   1.013998 S    
C98   H30   1.081317 S    
C113  C114  1.526425 S    
O11   Zn3   2.017630 S    
C130  H90   1.114491 S    
C110  C111  1.526013 S    
C57   C69   1.392748 A    
C127  H83   1.110831 S    
C26   C34   1.389977 A    
C123  H74   1.110320 S    
C132  H94   1.111492 S    
C81   C89   1.402547 A    
O2    Zn2   2.017481 S    
C59   C103  1.485775 S    
C7    C22   1.439728 S    
C78   C88   1.419430 A    
C88   C100  1.408929 A    
O28   H38   1.014018 S    
C25   H9    1.080157 S    
C55   C72   1.396392 A    
C22   C30   1.395917 A    
O5    C3    1.290134 A    
O4    C1    1.290445 A    
C75   N1    1.377295 A    
C13   C53   1.379032 A    
O15   C8    1.290190 A    
C12   H4    1.082253 S    
C126  H81   1.110280 S    
C113  H51   1.110385 S    
C119  H64   1.111794 S    
O16   C7    1.290361 A    
C119  H65   1.110431 S    
C12   C20   1.391552 A    
C122  H72   1.110335 S    
C112  C113  1.529758 S    
C131  H93   1.111265 S    
C16   C24   1.392649 A    
C85   C97   1.408529 A    
C121  H69   1.110891 S    
C17   C25   1.395384 A    
O39   C127  1.419366 S    
C82   C90   1.401742 A    
C52   C67   1.395432 A    
C83   C95   1.408721 A    
C125  H78   1.110268 S    
O9    Zn3   2.017481 S    
C117  H61   1.110771 S    
C27   C35   1.392071 A    
C98   C99   1.403650 A    
C84   C90   1.401705 A    
O10   Zn4   2.017481 S    
C28   C36   1.392099 A    
C43   C48   1.392320 A    
C76   O36   1.377991 S    
C42   C45   1.391714 A    
C131  H92   1.110367 S    
C115  C116  1.527975 S    
C59   C71   1.393280 A    
C29   H13   1.076684 S    
C15   C55   1.381298 A    
C115  H56   1.113663 S    
C111  H45   1.111168 S    
C128  H86   1.110366 S    
C103  O22   1.398387 S    
O4    Zn2   2.017630 S    
C91   C92   1.419303 A    
C118  H63   1.117551 S    
C85   C91   1.401394 A    
C129  H87   1.111269 S    
C93   C96   1.404287 A    
C99   H31   1.083015 S    
C48   C56   1.410561 A    
C119  C120  1.526664 S    
O6    C4    1.288971 A    
C89   C90   1.419162 A    
O11   C6    1.290701 A    
C87   C99   1.408047 A    
C36   C60   1.418105 A    
C80   C86   1.420298 A    
C117  H60   1.110285 S    
C40   C48   1.420249 A    
C13   C21   1.391314 A    
C14   H6    1.083518 S    
C116  H58   1.111785 S    
C75   C81   1.419816 A    
O32   H40   1.013983 S    
C120  H67   1.110286 S    
C62   C66   1.392885 A    
C68   H20   1.085441 S    
C86   C92   1.402821 A    
C4    C17   1.437821 S    
C130  H91   1.113895 S    
O9    C5    1.290528 A    
C108  O31   1.222644 D    
C113  H50   1.111808 S    
C23   C31   1.395647 A    
C11   H3    1.082287 S    
C62   C106  1.484599 S    
C80   O40   1.379318 S    
C123  H73   1.111275 S    
C132  H95   1.110699 S    
C71   H23   1.085316 S    
C13   H5    1.081441 S    
C70   H22   1.085549 S    
C116  H57   1.110358 S    
C78   N4    1.377489 A    
O33   C109  1.414567 S    
C73   C83   1.419593 A    
C37   C61   1.418241 A    
C18   C26   1.395305 A    
C131  C132  1.525810 S    
O40   C130  1.414813 S    
C106  O27   1.221747 D    
C56   C71   1.396394 A    
O5    Zn2   2.019717 S    
O15   Zn4   2.017976 S    
Zn4   N4    2.015178 S    
C107  O30   1.398559 S    
C47   C55   1.410605 A    
C115  H55   1.115046 S    
C77   C87   1.417429 A    
C73   O33   1.378306 S    
C31   H15   1.079674 S    
O7    C4    1.290729 A    
C124  C125  1.528348 S    
C9    C17   1.391845 A    
C30   H14   1.079430 S    
C94   C95   1.404401 A    
C82   C94   1.408755 A    
C32   H16   1.079728 S    
C81   C93   1.408703 A    
C74   N2    1.379888 A    
C10   C18   1.392526 A    
O12   Zn4   2.017630 S    
C122  H71   1.111723 S    
C50   C65   1.396005 A    
C73   N1    1.377392 A    
O36   C118  1.419232 S    
C121  C122  1.530349 S    
C6    C23   1.438611 S    
C61   C65   1.392459 A    
C49   C66   1.395246 A    
C128  H85   1.111780 S    
C44   C52   1.409592 A    
C57   C101  1.486352 S    
C11   C51   1.378998 A    
C34   C58   1.418074 A    
C28   H12   1.077773 S    
