data_mof_unit_43913.cif
_audit_creation_date              2012-12-11T15:17:35-0500
_audit_creation_method            fapswitch 2.2
_symmetry_space_group_name_H-M    P1
_symmetry_Int_Tables_number       1
_space_group_crystal_system       triclinic
_cell_length_a                    6.935506
_cell_length_b                    20.079902
_cell_length_c                    22.357657
_cell_angle_alpha                 89.998883
_cell_angle_beta                  89.995152
_cell_angle_gamma                 90.000365
_cell_volume                      3113.62301069

loop_
_atom_site_label
_atom_site_type_symbol
_atom_type_description
_atom_site_fract_x
_atom_site_fract_y
_atom_site_fract_z
_atom_type_partial_charge
O1    O     O_R   0.620180 0.810610 0.187990 -0.540210
O2    O     O_R   0.379820 0.189390 0.812010 -0.540210
O3    O     O_R   0.379820 0.189390 0.687990 -0.540216
O4    O     O_R   0.620180 0.810610 0.312010 -0.540216
O5    O     O_R   0.120180 0.689390 0.312010 -0.540211
O6    O     O_R   0.879820 0.310610 0.687990 -0.540211
O7    O     O_R   0.879820 0.310610 0.812010 -0.540226
O8    O     O_R   0.120180 0.689390 0.187990 -0.540226
O9    O     O_R   0.290420 0.818570 0.311590 -0.541859
O10   O     O_R   0.709580 0.181430 0.688410 -0.541859
O11   O     O_R   0.709580 0.181430 0.811590 -0.541842
O12   O     O_R   0.290420 0.818570 0.188410 -0.541842
O13   O     O_R   0.790420 0.681430 0.188410 -0.541853
O14   O     O_R   0.209580 0.318570 0.811590 -0.541853
O15   O     O_R   0.209580 0.318570 0.688410 -0.541854
O16   O     O_R   0.790420 0.681430 0.311590 -0.541854
H1    H     H_    0.572533 0.509075 0.590522 0.134310
H2    H     H_    0.427466 0.490925 0.409478 0.134310
H3    H     H_    0.427495 0.490947 0.090480 0.134317
H4    H     H_    0.572505 0.509053 0.909520 0.134317
H5    H     H_    0.072674 0.990832 0.909427 0.134252
H6    H     H_    0.927326 0.009168 0.090573 0.134252
H7    H     H_    0.927568 0.009005 0.409529 0.134329
H8    H     H_    0.072432 0.990994 0.590471 0.134329
C1    C     C_R   0.459375 0.834758 0.332187 0.710566
C2    C     C_R   0.540625 0.165242 0.667813 0.710566
C3    C     C_R   0.540617 0.165245 0.832189 0.710569
C4    C     C_R   0.459383 0.834755 0.167811 0.710569
C5    C     C_R   0.959385 0.665244 0.167812 0.710562
C6    C     C_R   0.040615 0.334756 0.832188 0.710562
C7    C     C_R   0.040626 0.334762 0.667815 0.710575
C8    C     C_R   0.959374 0.665238 0.332184 0.710575
H9    H     H_    0.746880 0.420070 0.643253 0.127576
H10   H     H_    0.253120 0.579930 0.356747 0.127576
H11   H     H_    0.253183 0.579963 0.143212 0.127584
H12   H     H_    0.746816 0.420037 0.856788 0.127584
H13   H     H_    0.246980 0.079836 0.856682 0.127537
H14   H     H_    0.753019 0.920164 0.143318 0.127537
H15   H     H_    0.753183 0.920031 0.356776 0.127581
H16   H     H_    0.246817 0.079968 0.643224 0.127581
H17   H     H_    0.551732 0.589364 0.508211 0.135868
H18   H     H_    0.448268 0.410636 0.491789 0.135868
H19   H     H_    0.448193 0.410612 0.008204 0.135865
H20   H     H_    0.551807 0.589388 0.991796 0.135865
H21   H     H_    0.051962 0.910512 0.991717 0.135801
H22   H     H_    0.948038 0.089488 0.008283 0.135801
H23   H     H_    0.948328 0.089310 0.491826 0.135907
H24   H     H_    0.051672 0.910690 0.508174 0.135907
H25   H     H_    0.310300 0.359983 0.582426 0.124215
H26   H     H_    0.689700 0.640016 0.417574 0.124215
H27   H     H_    0.689757 0.640035 0.082426 0.124209
H28   H     H_    0.310243 0.359965 0.917574 0.124209
H29   H     H_    0.810115 0.140154 0.917658 0.124172
H30   H     H_    0.189885 0.859846 0.082342 0.124172
H31   H     H_    0.189637 0.860019 0.417550 0.124216
H32   H     H_    0.810362 0.139981 0.582450 0.124216
O17   O     O_3   0.453640 0.707610 0.250000 -0.370194
O18   O     O_3   0.546360 0.292390 0.750000 -0.370194
O19   O     O_3   0.953640 0.792390 0.250000 -0.370186
O20   O     O_3   0.046360 0.207610 0.750000 -0.370186
V1    V     V_3+5 0.178800 0.757860 0.250000 1.397626
V2    V     V_3+5 0.821200 0.242140 0.750000 1.397626
V3    V     V_3+5 0.678800 0.742140 0.250000 1.397623
V4    V     V_3+5 0.321200 0.257860 0.750000 1.397623
C9    C     C_R   0.183335 0.391061 0.577778 -0.221585
C10   C     C_R   0.816665 0.608939 0.422222 -0.221585
C11   C     C_R   0.816725 0.608962 0.077769 -0.221598
C12   C     C_R   0.183275 0.391038 0.922231 -0.221598
C13   C     C_R   0.683212 0.109022 0.922275 -0.221536
C14   C     C_R   0.316788 0.890978 0.077725 -0.221536
C15   C     C_R   0.316656 0.891070 0.422217 -0.221605
C16   C     C_R   0.683344 0.108930 0.577783 -0.221605
C17   C     C_R   0.030165 0.384405 0.618685 -0.083693
C18   C     C_R   0.969834 0.615595 0.381315 -0.083693
C19   C     C_R   0.969867 0.615609 0.118675 -0.083688
C20   C     C_R   0.030133 0.384391 0.881325 -0.083689
C21   C     C_R   0.530126 0.115612 0.881327 -0.083685
C22   C     C_R   0.469874 0.884387 0.118673 -0.083685
C23   C     C_R   0.469855 0.884395 0.381323 -0.083682
C24   C     C_R   0.530144 0.115605 0.618677 -0.083682
C25   C     C_R   0.865213 0.424600 0.611819 -0.219403
C26   C     C_R   0.134786 0.575399 0.388181 -0.219403
C27   C     C_R   0.134835 0.575425 0.111791 -0.219419
C28   C     C_R   0.865165 0.424575 0.888209 -0.219419
C29   C     C_R   0.365248 0.075358 0.888155 -0.219369
C30   C     C_R   0.634752 0.924642 0.111845 -0.219369
C31   C     C_R   0.634834 0.924572 0.388203 -0.219414
C32   C     C_R   0.365166 0.075428 0.611797 -0.219414
C33   C     C_R   0.853257 0.471302 0.565161 0.089296
C34   C     C_R   0.146743 0.528698 0.434838 0.089296
C35   C     C_R   0.146766 0.528711 0.065142 0.089289
C36   C     C_R   0.853234 0.471288 0.934858 0.089289
C37   C     C_R   0.353307 0.028660 0.934817 0.089328
C38   C     C_R   0.646693 0.971339 0.065183 0.089328
C39   C     C_R   0.646776 0.971279 0.434855 0.089287
C40   C     C_R   0.353224 0.028720 0.565145 0.089287
C41   C     C_R   0.006174 0.476914 0.523819 0.053289
C42   C     C_R   0.993826 0.523085 0.476181 0.053289
C43   C     C_R   0.993845 0.523094 0.023813 0.053309
C44   C     C_R   0.006155 0.476906 0.976187 0.053309
C45   C     C_R   0.506156 0.023093 0.976187 0.053218
C46   C     C_R   0.493844 0.976906 0.023813 0.053218
C47   C     C_R   0.493838 0.976909 0.476185 0.053329
C48   C     C_R   0.506162 0.023091 0.523815 0.053329
C49   C     C_R   0.171287 0.436369 0.529982 0.090480
C50   C     C_R   0.828713 0.563631 0.470017 0.090480
C51   C     C_R   0.828770 0.563654 0.029975 0.090474
C52   C     C_R   0.171230 0.436346 0.970025 0.090474
C53   C     C_R   0.671168 0.063699 0.970060 0.090503
C54   C     C_R   0.328832 0.936301 0.029940 0.090503
C55   C     C_R   0.328717 0.936374 0.470014 0.090469
C56   C     C_R   0.671283 0.063626 0.529986 0.090469
C57   C     C_R   0.691003 0.512540 0.559071 -0.190236
C58   C     C_R   0.308997 0.487460 0.440929 -0.190236
C59   C     C_R   0.308991 0.487463 0.059050 -0.190222
C60   C     C_R   0.691009 0.512537 0.940949 -0.190222
C61   C     C_R   0.191135 0.987382 0.940885 -0.190106
C62   C     C_R   0.808865 0.012617 0.059115 -0.190106
C63   C     C_R   0.809041 0.012503 0.440956 -0.190283
C64   C     C_R   0.190959 0.987497 0.559044 -0.190283
C65   C     C_R   0.679008 0.558350 0.512003 -0.182320
C66   C     C_R   0.320992 0.441650 0.487997 -0.182320
C67   C     C_R   0.320936 0.441631 0.011999 -0.182361
C68   C     C_R   0.679064 0.558369 0.988001 -0.182361
C69   C     C_R   0.179179 0.941557 0.987943 -0.182291
C70   C     C_R   0.820821 0.058443 0.012057 -0.182291
C71   C     C_R   0.821016 0.058322 0.488017 -0.182381
C72   C     C_R   0.178984 0.941678 0.511983 -0.182381

loop_
_geom_bond_atom_site_label_1
_geom_bond_atom_site_label_2
_ccdc_geom_bond_type
O18   V2    S    
H30   C14   S    
C16   C56   A    
C45   C46   A    
C14   C22   A    
C13   C21   A    
H15   C31   S    
O11   V2    S    
H29   C13   S    
H2    C58   S    
C32   C40   A    
O4    C1    A    
H1    C57   S    
O3    V4    S    
O4    V3    S    
H18   C66   S    
H25   C9    S    
H14   C30   S    
O9    V1    S    
O8    C5    A    
O13   C5    A    
C10   C50   A    
C8    C18   S    
C7    C17   S    
C45   C53   A    
C10   C18   A    
C41   C42   A    
C9    C17   A    
O20   V2    S    
O19   V1    S    
H17   C65   S    
C33   C41   A    
C56   C71   A    
H5    C61   S    
C14   C54   A    
C13   C53   A    
C19   C27   A    
O2    V4    S    
H32   C16   S    
C37   C61   A    
C15   C55   A    
O1    C4    A    
O15   V4    S    
O2    C3    A    
O16   V3    S    
O11   C3    A    
C4    C22   S    
H28   C12   S    
O8    V1    S    
O5    C8    A    
C41   C49   A    
O10   C2    A    
O6    C7    A    
C21   C29   A    
O7    C6    A    
C20   C28   A    
O10   V2    S    
C29   C37   A    
C51   C68   A    
O14   C6    A    
C40   C64   A    
O1    V3    S    
C23   C31   A    
C39   C47   A    
O17   V3    S    
O18   V4    S    
C33   C57   A    
C44   C52   A    
C59   C67   A    
H8    C64   S    
O9    C1    A    
C37   C45   A    
H4    C60   S    
H11   C27   S    
C39   C63   A    
O15   C7    A    
H20   C68   S    
C2    C24   S    
C15   C23   A    
C31   C39   A    
O7    V2    S    
H24   C72   S    
C6    C20   S    
C43   C44   A    
O13   V3    S    
H3    C59   S    
O14   V4    S    
H26   C10   S    
C64   C72   A    
C30   C38   A    
O5    V1    S    
H27   C11   S    
C12   C20   A    
H23   C71   S    
C36   C60   A    
C17   C25   A    
O12   C4    A    
C40   C48   A    
C46   C54   A    
C11   C19   A    
C52   C67   A    
H19   C67   S    
C55   C72   A    
C43   C51   A    
C36   C44   A    
C48   C56   A    
C18   C26   A    
H13   C29   S    
H6    C62   S    
H10   C26   S    
C60   C68   A    
C1    C23   S    
H22   C70   S    
O3    C2    A    
C3    C21   S    
C26   C34   A    
C9    C49   A    
O17   V1    S    
C5    C19   S    
C47   C55   A    
C62   C70   A    
O16   C8    A    
C27   C35   A    
O19   V3    S    
C42   C50   A    
O20   V4    S    
O6    V2    S    
C25   C33   A    
C24   C32   A    
H7    C63   S    
O12   V1    S    
C38   C62   A    
C11   C51   A    
C61   C69   A    
H12   C28   S    
C50   C65   A    
C35   C59   A    
C49   C66   A    
C34   C58   A    
C12   C52   A    
C54   C69   A    
C58   C66   A    
C53   C70   A    
C57   C65   A    
C38   C46   A    
C16   C24   A    
C22   C30   A    
H21   C69   S    
C47   C48   A    
C28   C36   A    
C35   C43   A    
H9    C25   S    
C34   C42   A    
H31   C15   S    
H16   C32   S    
C63   C71   A    
