data_mof_unit_5610.cif
_audit_creation_date              2012-12-10T20:56:25-0500
_audit_creation_method            fapswitch 2.2
_symmetry_space_group_name_H-M    P1
_symmetry_Int_Tables_number       1
_space_group_crystal_system       triclinic
_cell_length_a                    12.999799
_cell_length_b                    15.082455
_cell_length_c                    15.828015
_cell_angle_alpha                 88.292682
_cell_angle_beta                  89.271478
_cell_angle_gamma                 68.964682
_cell_volume                      2895.27718773

loop_
_atom_site_label
_atom_site_type_symbol
_atom_type_description
_atom_site_fract_x
_atom_site_fract_y
_atom_site_fract_z
_atom_type_partial_charge
C1    C     C_R   0.500304 0.498614 0.661090 0.930428
C2    C     C_R   0.983995 0.461870 0.488191 0.119262
C3    C     C_R   0.878596 0.477559 0.456778 0.015894
C4    C     C_R   0.023402 0.537977 0.488068 0.004499
C5    C     C_R   0.968618 0.622832 0.438881 -0.009776
C6    C     C_R   0.867620 0.633034 0.398417 -0.115314
C7    C     C_R   0.828000 0.557201 0.402259 -0.129921
C8    C     C_R   0.118464 0.530436 0.534153 -0.118531
C9    C     C_R   0.114306 0.681089 0.477778 -0.067736
C10   C     C_R   0.827499 0.411338 0.479748 -0.128114
C11   C     C_R   0.574860 0.407112 0.047916 -0.085927
C12   C     C_R   0.706274 0.447193 0.493193 0.856308
C13   C     C_R   0.540175 0.496157 0.086677 -0.001123
C14   C     C_R   0.509625 0.582043 0.038851 -0.044137
C15   C     C_R   0.500853 0.579108 0.950859 -0.091572
C16   C     C_R   0.526725 0.490572 0.912716 -0.010404
C17   C     C_R   0.568004 0.404195 0.959524 -0.052463
C18   C     C_1   0.523295 0.499520 0.175703 -0.020374
C19   C     C_1   0.517187 0.489722 0.823688 0.015316
C20   C     C_1   0.508488 0.493029 0.749153 -0.116429
C21   C     C_1   0.509438 0.501206 0.250144 -0.145672
C22   C     C_R   0.547923 0.028435 0.566070 -0.039834
C23   C     C_R   0.498772 0.501570 0.338607 0.902220
C24   C     C_R   0.494961 0.096397 0.501320 -0.090629
C25   C     C_R   0.439952 0.068955 0.435317 -0.033266
C26   C     C_R   0.439147 0.974159 0.433737 -0.011881
C27   C     C_R   0.496737 0.906030 0.496837 0.019188
C28   C     C_R   0.549689 0.934377 0.561523 -0.202255
C29   C     C_1   0.498310 0.193501 0.500689 0.180672
C30   C     C_1   0.498727 0.807432 0.499024 0.092454
C31   C     C_R   0.294216 0.552958 0.505969 0.925586
C32   C     C_R   0.017276 0.694381 0.433122 -0.032759
C33   C     C_R   0.173739 0.590996 0.511542 -0.198863
C34   C     C_R   0.895139 0.316371 0.501354 0.008792
C35   C     C_R   0.007266 0.295839 0.515797 -0.189605
C36   C     C_R   0.049972 0.368107 0.513016 -0.140550
H1    H     H_    0.590797 0.882430 0.610569 0.179012
H2    H     H_    0.136364 0.348850 0.526892 0.128382
H3    H     H_    0.061768 0.223839 0.530879 0.136429
N1    N     N_1   0.500030 0.729450 0.499980 -0.077962
N2    N     N_1   0.499970 0.270550 0.500020 -0.056162
O1    O     O_R   0.500000 0.426350 0.621980 -0.551547
O2    O     O_R   0.499950 0.573700 0.621980 -0.616726
O3    O     O_R   0.653660 0.389750 0.499980 -0.602552
O4    O     O_R   0.653610 0.537090 0.499980 -0.598674
O5    O     O_R   0.500050 0.426300 0.378020 -0.620603
O6    O     O_R   0.500000 0.573650 0.378020 -0.576619
O7    O     O_R   0.346390 0.462910 0.500020 -0.587415
O8    O     O_R   0.346340 0.610250 0.500020 -0.627270
Zn1   Zn    Zn3+2 0.500030 0.401620 0.500000 1.030377
Zn2   Zn    Zn3+2 0.499970 0.598380 0.500000 0.998821
C37   C     C_R   0.125756 0.763444 0.519749 0.126129
C38   C     C_R   0.064621 0.795816 0.593882 -0.146572
C39   C     C_R   0.074969 0.871494 0.637135 -0.162495
C40   C     C_R   0.147154 0.914907 0.607266 -0.141917
C41   C     C_R   0.208322 0.883021 0.533871 -0.141595
C42   C     C_R   0.196814 0.808396 0.489125 -0.084331
H4    H     H_    0.009187 0.761976 0.618262 0.155910
H5    H     H_    0.027766 0.895900 0.694193 0.144193
H6    H     H_    0.156256 0.972875 0.641249 0.129980
H7    H     H_    0.265326 0.915974 0.512676 0.137137
H8    H     H_    0.244248 0.784805 0.431991 0.151666
C43   C     C_R   0.616590 0.317514 0.100076 0.159477
C44   C     C_R   0.562663 0.251758 0.099562 -0.121302
C45   C     C_R   0.606674 0.165121 0.144307 -0.102404
C46   C     C_R   0.702684 0.144584 0.191675 -0.131620
C47   C     C_R   0.756113 0.210008 0.193414 -0.145235
C48   C     C_R   0.713731 0.295928 0.147362 -0.080573
H9    H     H_    0.487991 0.266839 0.063215 0.122795
H10   H     H_    0.567091 0.113316 0.141641 0.123582
H11   H     H_    0.735966 0.077605 0.226402 0.127925
H12   H     H_    0.831224 0.193521 0.229426 0.129400
H13   H     H_    0.757683 0.344753 0.147067 0.137915
C49   C     C_2   0.487435 0.674323 0.080548 0.879626
O9    O     O_2   0.548705 0.680063 0.136406 -0.595777
O10   O     O_R   0.398357 0.754846 0.054646 -0.814876
H14   H     H_    0.395548 0.814269 0.084349 0.339256
C50   C     C_R   0.469034 0.667645 0.897291 0.170073
C51   C     C_R   0.365424 0.703004 0.857845 -0.090128
C52   C     C_R   0.338006 0.783034 0.803699 -0.127782
C53   C     C_R   0.413647 0.828248 0.788663 -0.104395
C54   C     C_R   0.516675 0.793724 0.828075 -0.118347
C55   C     C_R   0.544489 0.713609 0.882218 -0.126893
H15   H     H_    0.306658 0.667916 0.868390 0.133219
H16   H     H_    0.258348 0.809691 0.773092 0.141514
H17   H     H_    0.392518 0.889892 0.746373 0.131088
H18   H     H_    0.575246 0.828696 0.816224 0.156817
H19   H     H_    0.625025 0.686703 0.911596 0.137063
C56   C     C_2   0.601787 0.052843 0.640149 0.877636
O11   O     O_2   0.668711 0.989535 0.682459 -0.656348
O12   O     O_R   0.575574 0.147340 0.662906 -0.772990
H20   H     H_    0.618406 0.153813 0.713978 0.365898
C57   C     C_R   0.381168 0.140429 0.368592 0.104960
C58   C     C_R   0.295805 0.224547 0.391034 -0.167802
C59   C     C_R   0.237872 0.290879 0.328968 -0.115225
C60   C     C_R   0.263620 0.273077 0.243735 -0.101103
C61   C     C_R   0.347509 0.189148 0.220612 -0.133309
C62   C     C_R   0.406930 0.123332 0.282706 -0.122889
H21   H     H_    0.274089 0.237858 0.456745 0.123124
H22   H     H_    0.172512 0.355677 0.346883 0.138998
H23   H     H_    0.218224 0.324067 0.195582 0.133378
H24   H     H_    0.366193 0.175111 0.154452 0.128657
H25   H     H_    0.471964 0.058665 0.263978 0.129053
C63   C     C_R   0.371729 0.948030 0.370065 0.053442
C64   C     C_R   0.258325 0.001426 0.361519 -0.146856
C65   C     C_R   0.193576 0.973776 0.305850 -0.109640
C66   C     C_R   0.240625 0.891632 0.259420 -0.140602
C67   C     C_R   0.352658 0.837837 0.267819 -0.136018
C68   C     C_R   0.418641 0.866909 0.321134 -0.121871
H26   H     H_    0.219289 0.062985 0.399703 0.134781
H27   H     H_    0.106545 0.015169 0.299903 0.137778
H28   H     H_    0.190354 0.869222 0.217293 0.154420
H29   H     H_    0.388105 0.772935 0.233717 0.191278
H30   H     H_    0.505751 0.824927 0.325666 0.188651
C69   C     C_2   0.796410 0.725046 0.359713 0.960602
O13   O     O_2   0.748297 0.791591 0.405075 -0.647992
O14   O     O_R   0.784570 0.735519 0.271908 -0.764914
H31   H     H_    0.734217 0.801686 0.253490 0.346225
C70   C     C_R   0.990974 0.768219 0.364476 0.099828
C71   C     C_R   0.017769 0.740346 0.280616 -0.120424
C72   C     C_R   0.998065 0.808618 0.215181 -0.102827
C73   C     C_R   0.953652 0.905121 0.233128 -0.155506
C74   C     C_R   0.928943 0.933390 0.316494 -0.170237
C75   C     C_R   0.946905 0.865399 0.382084 -0.071828
H32   H     H_    0.053707 0.665711 0.266083 0.131944
H33   H     H_    0.018294 0.786720 0.150689 0.142372
H34   H     H_    0.939666 0.958026 0.182579 0.141320
H35   H     H_    0.897048 0.008077 0.330107 0.133930
H36   H     H_    0.927205 0.888256 0.446330 0.143208
C76   C     C_2   0.143799 0.479901 0.618504 0.893654
O15   O     O_2   0.236268 0.455688 0.648702 -0.616162
O16   O     O_R   0.059495 0.464637 0.665530 -0.793058
H37   H     H_    0.086127 0.430894 0.721849 0.348953
C77   C     C_R   0.854431 0.236213 0.503468 0.133381
C78   C     C_R   0.798985 0.219971 0.433251 -0.093552
C79   C     C_R   0.763999 0.142579 0.433832 -0.185499
C80   C     C_R   0.787665 0.078774 0.502870 -0.114273
C81   C     C_R   0.843999 0.093472 0.572461 -0.094361
C82   C     C_R   0.877230 0.171911 0.572981 -0.166197
H38   H     H_    0.782281 0.267669 0.378420 0.146805
H39   H     H_    0.719390 0.131473 0.380415 0.136150
H40   H     H_    0.762281 0.017911 0.502353 0.147840
H41   H     H_    0.861807 0.044129 0.626046 0.155021
H42   H     H_    0.920923 0.182372 0.627351 0.134207
C83   C     C_2   0.751792 0.549782 0.335886 0.954681
O17   O     O_2   0.671516 0.618475 0.314061 -0.565669
O18   O     O_R   0.775881 0.463133 0.296118 -0.847472
H43   H     H_    0.726815 0.468222 0.245860 0.337173
C84   C     C_2   0.606324 0.311477 0.916024 0.900182
O19   O     O_2   0.549317 0.296208 0.861561 -0.612528
O20   O     O_R   0.707701 0.241728 0.937669 -0.796197
H44   H     H_    0.724340 0.181884 0.904179 0.344318

loop_
_geom_bond_atom_site_label_1
_geom_bond_atom_site_label_2
_ccdc_geom_bond_type
C64   H26   S    
C25   C57   S    
C57   C58   A    
C41   H7    S    
C55   H19   S    
C18   C21   T    
C66   H28   S    
C76   O16   S    
C59   C60   A    
C4    C8    A    
C61   C62   A    
C84   O19   D    
C78   C79   A    
C38   C39   A    
C41   C42   A    
C26   C27   A    
C52   H16   S    
C49   O10   S    
C13   C18   S    
C14   C49   S    
C47   H12   S    
C11   C43   S    
C81   H41   S    
C84   O20   S    
C63   C68   A    
C52   C53   A    
C15   C50   S    
C65   C66   A    
O4    Zn2   S    
O3    Zn1   S    
C62   H25   S    
C67   C68   A    
C34   C35   A    
C73   H34   S    
C24   C29   S    
C9    C32   A    
C26   C63   S    
C43   C48   A    
C50   C55   A    
C1    O2    A    
O18   H43   S    
C28   H1    S    
O16   H37   S    
O8    Zn2   S    
C66   C67   A    
C31   C33   S    
C56   O12   S    
C53   H17   S    
C65   H27   S    
C5    C32   A    
C40   H6    S    
O7    Zn1   S    
C46   C47   A    
C23   O5    A    
C22   C28   A    
C60   H23   S    
C27   C30   S    
C9    C33   A    
C51   H15   S    
C9    C37   S    
C31   O8    A    
C63   C64   A    
C83   O18   S    
C83   O17   D    
C39   H5    S    
C78   H38   S    
C80   H40   S    
C23   O6    A    
C49   O9    D    
C47   C48   A    
C74   C75   A    
O10   H14   S    
C37   C42   A    
C77   C82   A    
C50   C51   A    
C16   C17   A    
O6    Zn2   S    
C69   O14   S    
C48   H13   S    
C70   C75   A    
C15   C16   A    
C53   C54   A    
C51   C52   A    
C35   C36   A    
C67   H29   S    
C35   H3    S    
C79   H39   S    
C82   H42   S    
C46   H11   S    
O20   H44   S    
C60   C61   A    
C40   C41   A    
C54   H18   S    
C30   N1    T    
C10   C34   A    
C44   H9    S    
C24   C25   A    
C70   C71   A    
C72   C73   A    
C77   C78   A    
C10   C12   S    
C68   H30   S    
O1    Zn1   S    
C45   C46   A    
C31   O7    A    
C21   C23   S    
C8    C76   S    
C22   C24   A    
C42   H8    S    
C32   C70   S    
C56   O11   D    
N2    Zn1   S    
O12   H20   S    
C71   C72   A    
C64   C65   A    
C2    C36   A    
C39   C40   A    
C11   C17   A    
C1    C20   S    
C29   N2    T    
C59   H22   S    
C17   C84   S    
C61   H24   S    
C12   O4    A    
C38   H4    S    
C6    C7    A    
N1    Zn2   S    
C80   C81   A    
O5    Zn1   S    
C3    C7    A    
C44   C45   A    
C19   C20   T    
C36   H2    S    
C76   O15   D    
C25   C26   A    
C72   H33   S    
C12   O3    A    
C3    C10   A    
O14   H31   S    
C11   C13   A    
O2    Zn2   S    
C74   H35   S    
C5    C6    A    
C58   H21   S    
C16   C19   S    
C2    C4    A    
C71   H32   S    
C22   C56   S    
C75   H36   S    
C2    C3    A    
C8    C33   A    
C58   C59   A    
C6    C69   S    
C81   C82   A    
C43   C44   A    
C1    O1    A    
C4    C5    A    
C54   C55   A    
C27   C28   A    
C34   C77   S    
C14   C15   A    
C79   C80   A    
C69   O13   D    
C73   C74   A    
C13   C14   A    
C57   C62   A    
C45   H10   S    
C37   C38   A    
C7    C83   S    
