data_mof_unit_66882.cif
_audit_creation_date              2013-03-05T15:57:23-0500
_audit_creation_method            fapswitch 2.2
_symmetry_space_group_name_H-M    P1
_symmetry_Int_Tables_number       1
_space_group_crystal_system       triclinic
_cell_length_a                    17.379137
_cell_length_b                    19.140774
_cell_length_c                    8.536871
_cell_angle_alpha                 90.000205
_cell_angle_beta                  103.395625
_cell_angle_gamma                 90.00174
_cell_volume                      2762.53069832

loop_
_atom_site_label
_atom_site_type_symbol
_atom_site_description
_atom_site_fract_x
_atom_site_fract_y
_atom_site_fract_z
_atom_type_partial_charge
P1    P     P_3+3 0.834140 0.419320 0.003900 0.447976
P2    P     P_3+3 0.834140 0.580680 0.503900 0.447971
P3    P     P_3+3 0.334140 0.919320 0.003900 0.447975
P4    P     P_3+3 0.334140 0.080680 0.503900 0.447971
O1    O     O_2   0.841960 0.394640 0.833410 -0.347707
O2    O     O_2   0.841960 0.605360 0.333410 -0.347712
O3    O     O_2   0.341960 0.894640 0.833410 -0.347708
O4    O     O_2   0.341960 0.105360 0.333410 -0.347712
O5    O     O_3   0.907950 0.463080 0.102990 -0.392023
O6    O     O_3   0.907950 0.536920 0.602990 -0.392026
O7    O     O_3   0.407950 0.963080 0.102990 -0.392023
O8    O     O_3   0.407950 0.036920 0.602990 -0.392026
O9    O     O_3   0.972780 0.329600 0.629720 -0.394543
O10   O     O_3   0.972780 0.670400 0.129720 -0.394547
O11   O     O_3   0.472780 0.829600 0.629720 -0.394541
O12   O     O_3   0.472780 0.170400 0.129720 -0.394547
O13   O     O_2   0.839385 0.278159 0.686195 -0.374376
O14   O     O_2   0.839385 0.721839 0.186193 -0.374379
O15   O     O_2   0.339385 0.778158 0.686195 -0.374380
O16   O     O_2   0.339385 0.221839 0.186194 -0.374379
O17   O     O_3   0.757666 0.477946 0.923471 -0.587223
O18   O     O_3   0.757663 0.522052 0.423471 -0.587221
O19   O     O_3   0.257666 0.977946 0.923471 -0.587223
O20   O     O_3   0.257663 0.022052 0.423471 -0.587221
O21   O     O_3   0.937799 0.185323 0.636049 -0.525935
O22   O     O_3   0.937802 0.814676 0.136057 -0.525937
O23   O     O_3   0.437799 0.685323 0.636048 -0.525940
O24   O     O_3   0.437802 0.314676 0.136057 -0.525936
C1    C     C_3   0.983642 0.099471 0.476516 -1.100937
C2    C     C_3   0.983647 0.900532 0.976533 -1.100928
C3    C     C_3   0.483641 0.599472 0.476511 -1.100939
C4    C     C_3   0.483647 0.400532 0.976534 -1.100925
H1    H     H_    0.483823 0.557144 0.565384 0.288285
H2    H     H_    0.483832 0.442858 0.065415 0.288279
H3    H     H_    0.983825 0.057144 0.565391 0.288284
H4    H     H_    0.983832 0.942857 0.065414 0.288280
H5    H     H_    0.925793 0.100877 0.387853 0.264130
H6    H     H_    0.925796 0.899126 0.887873 0.264132
H7    H     H_    0.425792 0.600878 0.387848 0.264130
H8    H     H_    0.425796 0.399126 0.887873 0.264131
P5    P     P_3+3 0.165830 0.418670 0.685610 0.430401
P6    P     P_3+3 0.165830 0.581330 0.185610 0.430395
P7    P     P_3+3 0.665830 0.918670 0.685610 0.430401
P8    P     P_3+3 0.665830 0.081330 0.185610 0.430398
P9    P     P_3+3 0.097392 0.264276 0.104851 0.436543
P10   P     P_3+3 0.097396 0.735723 0.604854 0.436526
P11   P     P_3+3 0.597391 0.764275 0.104850 0.436542
P12   P     P_3+3 0.597396 0.235724 0.604854 0.436538
O25   O     O_2   0.157990 0.394030 0.856030 -0.361274
O26   O     O_2   0.157990 0.605970 0.356030 -0.361272
O27   O     O_2   0.657990 0.894030 0.856030 -0.361278
O28   O     O_2   0.657990 0.105970 0.356030 -0.361270
O29   O     O_3   0.027110 0.329490 0.059550 -0.393690
O30   O     O_3   0.027110 0.670510 0.559550 -0.393705
O31   O     O_3   0.527110 0.829490 0.059550 -0.393691
O32   O     O_3   0.527110 0.170510 0.559550 -0.393692
O33   O     O_2   0.156187 0.275904 0.996505 -0.377519
O34   O     O_2   0.156194 0.724093 0.496516 -0.377505
O35   O     O_2   0.656186 0.775903 0.996504 -0.377521
O36   O     O_2   0.656192 0.224094 0.496511 -0.377509
O37   O     O_3   0.250612 0.469794 0.748828 -0.595623
O38   O     O_3   0.250611 0.530209 0.248829 -0.595625
O39   O     O_3   0.750613 0.969792 0.748828 -0.595621
O40   O     O_3   0.750611 0.030209 0.248829 -0.595625
O41   O     O_3   0.045808 0.188441 0.031217 -0.535836
O42   O     O_3   0.045821 0.811559 0.531221 -0.535850
O43   O     O_3   0.545805 0.688441 0.031217 -0.535836
O44   O     O_3   0.545819 0.311559 0.531223 -0.535850
C5    C     C_3   0.969757 0.193363 0.061094 0.527816
C6    C     C_3   0.969767 0.806638 0.561086 0.527819
C7    C     C_3   0.469754 0.693365 0.061090 0.527806
C8    C     C_3   0.469765 0.306637 0.561088 0.527819
H9    H     H_    0.933451 0.232225 0.979193 0.159233
H10   H     H_    0.933459 0.767779 0.479174 0.159243
H11   H     H_    0.433450 0.732229 0.979194 0.159236
H12   H     H_    0.433458 0.267778 0.479177 0.159242
H13   H     H_    0.972092 0.207410 0.188390 -0.001718
H14   H     H_    0.972096 0.792587 0.688378 -0.001717
H15   H     H_    0.472089 0.707409 0.188388 -0.001718
H16   H     H_    0.472095 0.292587 0.688380 -0.001719
C9    C     C_3   0.929113 0.123601 0.029068 -1.080098
C10   C     C_3   0.929130 0.876402 0.529069 -1.080083
C11   C     C_3   0.429107 0.623605 0.029054 -1.080069
C12   C     C_3   0.429129 0.376401 0.529072 -1.080084
H17   H     H_    0.420788 0.610132 0.900129 0.304202
H18   H     H_    0.420815 0.389883 0.400153 0.304195
H19   H     H_    0.920792 0.110126 0.900144 0.304198
H20   H     H_    0.920818 0.889884 0.400150 0.304195
H21   H     H_    0.965359 0.082596 0.103732 0.271368
H22   H     H_    0.965376 0.917405 0.603753 0.271358
H23   H     H_    0.465349 0.582597 0.103718 0.271363
H24   H     H_    0.465374 0.417404 0.603755 0.271359
C13   C     C_3   0.253979 0.476773 0.139344 0.688589
C14   C     C_3   0.253977 0.523231 0.639345 0.688601
C15   C     C_3   0.753979 0.976773 0.139343 0.688589
C16   C     C_3   0.753978 0.023230 0.639347 0.688599
H25   H     H_    0.214952 0.486690 0.019440 0.152798
H26   H     H_    0.214951 0.513311 0.519439 0.152796
H27   H     H_    0.714952 0.986691 0.019438 0.152799
H28   H     H_    0.714949 0.013313 0.519444 0.152804
C17   C     C_3   0.337676 0.472281 0.115441 -0.995536
C18   C     C_3   0.337673 0.527725 0.615436 -0.995472
C19   C     C_3   0.837676 0.972280 0.115442 -0.995538
C20   C     C_3   0.837673 0.027725 0.615433 -0.995462
H29   H     H_    0.382075 0.482773 0.229156 0.269902
H30   H     H_    0.382074 0.517246 0.729153 0.269895
H31   H     H_    0.882075 0.982773 0.229156 0.269902
H32   H     H_    0.882074 0.017245 0.729148 0.269892
H33   H     H_    0.347902 0.420172 0.068967 0.279110
H34   H     H_    0.347894 0.579830 0.568933 0.279102
H35   H     H_    0.847903 0.920171 0.068971 0.279111
H36   H     H_    0.847893 0.079831 0.568933 0.279106
H37   H     H_    0.345112 0.510300 0.023199 0.258019
H38   H     H_    0.345111 0.489697 0.523213 0.257996
H39   H     H_    0.845112 0.010298 0.023197 0.258021
H40   H     H_    0.845109 0.989698 0.523208 0.257997
Ba1   Ba    Ba6+2 1.000000 0.447380 0.844850 1.498211
Ba2   Ba    Ba6+2 0.000000 0.552620 0.344850 1.498212
Ba3   Ba    Ba6+2 0.500000 0.947380 0.844850 1.498214
Ba4   Ba    Ba6+2 0.500000 0.052620 0.344850 1.498212
C21   C     C_3   0.737537 0.524573 0.032540 0.663181
C22   C     C_3   0.737534 0.475425 0.532542 0.663181
C23   C     C_3   0.237537 0.024573 0.032540 0.663181
C24   C     C_3   0.237534 0.975425 0.532543 0.663182
H41   H     H_    0.770577 0.514449 0.156787 0.156804
H42   H     H_    0.770575 0.485552 0.656788 0.156802
H43   H     H_    0.270577 0.014449 0.156787 0.156804
H44   H     H_    0.270575 0.985552 0.656788 0.156802
C25   C     C_3   0.648268 0.518838 0.021226 -1.068660
C26   C     C_3   0.648265 0.481161 0.521233 -1.068652
C27   C     C_3   0.148268 0.018838 0.021226 -1.068661
C28   C     C_3   0.148265 0.981161 0.521234 -1.068653
H45   H     H_    0.616256 0.507381 0.895442 0.276370
H46   H     H_    0.616251 0.492613 0.395449 0.276368
H47   H     H_    0.116256 0.007382 0.895442 0.276371
H48   H     H_    0.116252 0.992613 0.395450 0.276368
H49   H     H_    0.622237 0.567469 0.055257 0.283677
H50   H     H_    0.622232 0.432532 0.555276 0.283683
H51   H     H_    0.122237 0.067469 0.055258 0.283677
H52   H     H_    0.122232 0.932532 0.555276 0.283684
H53   H     H_    0.636787 0.477003 0.102722 0.245229
H54   H     H_    0.636788 0.523000 0.602723 0.245221
H55   H     H_    0.136787 0.977003 0.102722 0.245229
H56   H     H_    0.136788 0.023000 0.602724 0.245221
O45   O     O_3   0.092100 0.536880 0.086720 -0.423905
O46   O     O_3   0.092100 0.463120 0.586720 -0.423912
O47   O     O_3   0.592100 0.036880 0.086720 -0.423906
O48   O     O_3   0.592100 0.963120 0.586720 -0.423910
P13   P     P_3+3 0.897114 0.732917 0.075070 0.426163
P14   P     P_3+3 0.897112 0.267081 0.575070 0.426177
P15   P     P_3+3 0.397114 0.232917 0.075070 0.426164
P16   P     P_3+3 0.397112 0.767081 0.575070 0.426173
C29   C     C_3   0.999959 0.170167 0.560720 0.751514
C30   C     C_3   0.999962 0.829836 0.060728 0.751509
C31   C     C_3   0.499959 0.670167 0.560718 0.751514
C32   C     C_3   0.499962 0.329836 0.060728 0.751509
H57   H     H_    0.007594 0.209162 0.468800 0.028076
H58   H     H_    0.007595 0.790842 0.968803 0.028078
H59   H     H_    0.507594 0.709163 0.468800 0.028077
H60   H     H_    0.507595 0.290842 0.968802 0.028077
H61   H     H_    0.528828 0.586684 0.409925 0.245237
H62   H     H_    0.528832 0.413323 0.909944 0.245236
H63   H     H_    0.028829 0.086683 0.409930 0.245237
H64   H     H_    0.028832 0.913323 0.909944 0.245236
H65   H     H_    0.370598 0.627108 0.059861 0.230465
H66   H     H_    0.370618 0.372897 0.559871 0.230459
H67   H     H_    0.870607 0.127103 0.059884 0.230467
H68   H     H_    0.870620 0.872898 0.559868 0.230460
C33   C     C_R   0.131758 0.678986 0.923024 -0.181006
C34   C     C_R   0.131759 0.321011 0.423024 -0.180988
C35   C     C_R   0.631759 0.178985 0.923023 -0.181003
C36   C     C_R   0.631759 0.821011 0.423023 -0.180990
C37   C     C_R   0.853270 0.325528 0.264928 -0.505059
C38   C     C_R   0.853269 0.674476 0.764922 -0.505060
C39   C     C_R   0.353269 0.825528 0.264928 -0.505060
C40   C     C_R   0.353269 0.174476 0.764922 -0.505061
C41   C     C_R   0.790642 0.214399 0.294959 -0.172268
C42   C     C_R   0.790642 0.785601 0.794960 -0.172259
C43   C     C_R   0.290642 0.714399 0.294959 -0.172263
C44   C     C_R   0.290642 0.285602 0.794961 -0.172260
C45   C     C_R   0.843198 0.268286 0.359875 0.212924
C46   C     C_R   0.843198 0.731716 0.859873 0.212928
C47   C     C_R   0.343198 0.768286 0.359875 0.212925
C48   C     C_R   0.343198 0.231716 0.859874 0.212929
C49   C     C_R   0.809426 0.334447 0.107417 0.244374
C50   C     C_R   0.809426 0.665554 0.607411 0.244376
C51   C     C_R   0.309426 0.834447 0.107417 0.244372
C52   C     C_R   0.309426 0.165554 0.607411 0.244375
C53   C     C_R   0.750472 0.280863 0.043465 -0.061048
C54   C     C_R   0.750471 0.719138 0.543460 -0.061038
C55   C     C_R   0.250472 0.780863 0.043465 -0.061050
C56   C     C_R   0.250472 0.219138 0.543460 -0.061038
C57   C     C_R   0.242332 0.719036 0.137864 -0.127625
C58   C     C_R   0.242332 0.280965 0.637863 -0.127621
C59   C     C_R   0.742332 0.219035 0.137863 -0.127625
C60   C     C_R   0.742332 0.780965 0.637862 -0.127620
C61   C     C_R   0.181291 0.667148 0.077456 0.229095
C62   C     C_R   0.181292 0.332850 0.577456 0.229086
C63   C     C_R   0.681291 0.167148 0.077455 0.229099
C64   C     C_R   0.681292 0.832850 0.577456 0.229088
C65   C     C_R   0.147534 0.733372 0.824406 0.208214
C66   C     C_R   0.147534 0.266626 0.324402 0.208219
C67   C     C_R   0.647535 0.233372 0.824405 0.208219
C68   C     C_R   0.647533 0.766626 0.324402 0.208219
C69   C     C_R   0.196154 0.788413 0.893233 0.134551
C70   C     C_R   0.196154 0.211587 0.393226 0.134546
C71   C     C_R   0.696154 0.288413 0.893232 0.134548
C72   C     C_R   0.696153 0.711587 0.393226 0.134545
H69   H     H_    0.285783 0.670450 0.371151 0.176256
H70   H     H_    0.285784 0.329550 0.871155 0.176247
H71   H     H_    0.785783 0.170450 0.371150 0.176253
H72   H     H_    0.785784 0.829549 0.871155 0.176246
H73   H     H_    0.892420 0.367077 0.318958 0.164326
H74   H     H_    0.892418 0.632928 0.818950 0.164315
H75   H     H_    0.392420 0.867077 0.318958 0.164326
H76   H     H_    0.392418 0.132928 0.818951 0.164316
C73   C     C_3   0.076446 0.167881 0.690418 -0.795268
H77   H     H_    0.071873 0.129218 0.784484 0.271960
H78   H     H_    0.127104 0.153544 0.640578 0.173048
H79   H     H_    0.088003 0.220463 0.744121 0.283251
C74   C     C_3   0.076448 0.832121 0.190428 -0.795283
H80   H     H_    0.071879 0.870787 0.284491 0.271958
H81   H     H_    0.088000 0.779541 0.244133 0.283259
H82   H     H_    0.127109 0.846456 0.140589 0.173047
C75   C     C_3   0.576445 0.667880 0.690417 -0.795268
H83   H     H_    0.571871 0.629216 0.784482 0.271959
H84   H     H_    0.627104 0.653542 0.640577 0.173048
H85   H     H_    0.588003 0.720461 0.744120 0.283251
C76   C     C_3   0.576448 0.332121 0.190427 -0.795282
H86   H     H_    0.571879 0.370786 0.284492 0.271959
H87   H     H_    0.588000 0.279540 0.244131 0.283258
H88   H     H_    0.627109 0.346456 0.140589 0.173047
C77   C     C_3   0.756854 0.596388 0.977740 -0.773653
H89   H     H_    0.734346 0.601147 0.845457 0.206945
H90   H     H_    0.730685 0.639657 0.033308 0.251192
H91   H     H_    0.821952 0.601180 0.008702 0.241519
C78   C     C_3   0.756847 0.403610 0.477745 -0.773654
H92   H     H_    0.734339 0.398849 0.345461 0.206947
H93   H     H_    0.821945 0.398819 0.508707 0.241518
H94   H     H_    0.730676 0.360341 0.533315 0.251196
C79   C     C_3   0.256854 0.096388 0.977741 -0.773652
H95   H     H_    0.234346 0.101147 0.845457 0.206945
H96   H     H_    0.230685 0.139657 0.033309 0.251192
H97   H     H_    0.321952 0.101179 0.008701 0.241519
C80   C     C_3   0.256847 0.903610 0.477745 -0.773653
H98   H     H_    0.234340 0.898849 0.345461 0.206947
H99   H     H_    0.321944 0.898818 0.508708 0.241518
H100  H     H_    0.230675 0.860341 0.533314 0.251196
C81   C     C_3   0.666763 0.358818 0.837515 -0.896223
H101  H     H_    0.668809 0.391423 0.942959 0.248438
H102  H     H_    0.701188 0.379785 0.757311 0.297133
H103  H     H_    0.603858 0.359706 0.777554 0.235079
C82   C     C_3   0.666765 0.641180 0.337498 -0.896230
H104  H     H_    0.668806 0.608574 0.442939 0.248441
H105  H     H_    0.603862 0.640287 0.277522 0.235089
H106  H     H_    0.701196 0.620216 0.257305 0.297136
C83   C     C_3   0.166762 0.858818 0.837515 -0.896223
H107  H     H_    0.168809 0.891424 0.942959 0.248439
H108  H     H_    0.201188 0.879785 0.757312 0.297134
H109  H     H_    0.103858 0.859706 0.777553 0.235079
C84   C     C_3   0.166765 0.141180 0.337499 -0.896229
H110  H     H_    0.168807 0.108574 0.442941 0.248440
H111  H     H_    0.103862 0.140287 0.277524 0.235088
H112  H     H_    0.201195 0.120216 0.257306 0.297136
C85   C     C_3   0.055048 0.640798 0.865268 -0.667125
H113  H     H_    0.027935 0.621544 0.956100 0.266088
H114  H     H_    0.009335 0.679250 0.811700 0.169812
H115  H     H_    0.060355 0.595967 0.786563 0.253937
C86   C     C_3   0.055048 0.359194 0.365272 -0.667181
H116  H     H_    0.027940 0.378449 0.456107 0.266096
H117  H     H_    0.060351 0.404027 0.286569 0.253930
H118  H     H_    0.009334 0.320741 0.311705 0.169812
C87   C     C_3   0.555048 0.140799 0.865268 -0.667133
H119  H     H_    0.527936 0.121544 0.956101 0.266089
H120  H     H_    0.509335 0.179251 0.811702 0.169811
H121  H     H_    0.560353 0.095968 0.786561 0.253936
C88   C     C_3   0.555048 0.859194 0.365272 -0.667180
H122  H     H_    0.527940 0.878449 0.456107 0.266096
H123  H     H_    0.560350 0.904026 0.286569 0.253931
H124  H     H_    0.509334 0.820741 0.311705 0.169812
C89   C     C_3   0.231773 0.408630 0.209281 -0.797595
H125  H     H_    0.258684 0.405463 0.340256 0.194590
H126  H     H_    0.166894 0.407087 0.189088 0.234155
H127  H     H_    0.251301 0.362532 0.150181 0.253325
C90   C     C_3   0.231768 0.591372 0.709283 -0.797650
H128  H     H_    0.258629 0.594521 0.840275 0.194574
H129  H     H_    0.251339 0.637473 0.650267 0.253313
H130  H     H_    0.166888 0.592932 0.688989 0.234201
C91   C     C_3   0.731772 0.908630 0.209278 -0.797584
H131  H     H_    0.758684 0.905460 0.340253 0.194589
H132  H     H_    0.666892 0.907088 0.189085 0.234155
H133  H     H_    0.751297 0.862532 0.150171 0.253324
C92   C     C_3   0.731774 0.091371 0.709293 -0.797708
H134  H     H_    0.758666 0.094533 0.840265 0.194596
H135  H     H_    0.751313 0.137471 0.650231 0.253330
H136  H     H_    0.666900 0.092918 0.689070 0.234171

loop_
_geom_bond_atom_site_label_1
_geom_bond_atom_site_label_2
_geom_bond_distance
_ccdc_geom_bond_type
C43   H69   1.078562 S    
C28   H56   1.108764 S    
C55   C57   1.456968 A    
C3    H61   1.098450 S    
P1    O17   1.753372 S    
O23   P16   1.746269 S    
C88   H122  1.062250 S    
C6    H14   1.111062 S    
Ba1   Ba2   4.719884 S    
C17   H37   1.101595 S    
C1    H63   1.098449 S    
P3    O19   1.753372 S    
O13   P14   1.546747 D    
P3    O7    1.599925 S    
P5    O37   1.746791 S    
C74   H82   1.097740 S    
C8    H12   1.111706 S    
P7    O27   1.565070 D    
C91   H133  1.107990 S    
C39   H75   1.078294 S    
C13   C89   1.520963 S    
P2    Ba2   3.500634 S    
P7    O39   1.746791 S    
P15   C48   1.858998 S    
O31   Ba3   2.876311 S    
O24   P15   1.746265 S    
P8    O40   1.746804 S    
C89   H127  1.107981 S    
C11   H65   1.109739 S    
P12   C67   1.875505 S    
P9    O33   1.545005 D    
C81   H101  1.089135 S    
C92   H134  1.109097 S    
P1    O1    1.565764 D    
O2    Ba2   2.906594 S    
C19   H35   1.102946 S    
C12   H18   1.106812 S    
O9    P14   1.759147 S    
C30   H58   1.112994 S    
C92   H136  1.100739 S    
P3    O3    1.565764 D    
O12   Ba4   2.876895 S    
C29   H57   1.112989 S    
O41   C5    1.406061 S    
C84   H110  1.089138 S    
P4    O20   1.753372 S    
C57   C61   1.457433 A    
O9    Ba1   2.876862 S    
O44   C8    1.406065 S    
C22   C78   1.514535 S    
C25   H53   1.108764 S    
C14   H26   1.105514 S    
C17   H33   1.102946 S    
C78   H93   1.104380 S    
C16   H28   1.105509 S    
O20   C24   1.391689 S    
P8    O47   1.605357 S    
C24   C28   1.535850 S    
C90   H128  1.109133 S    
Ba1   O45   2.868551 S    
C79   H95   1.109923 S    
C55   C69   1.412756 A    
C58   C62   1.457453 A    
P11   O43   1.744870 S    
C24   C80   1.514535 S    
C36   C68   1.405197 A    
C16   C92   1.520969 S    
C35   C63   1.415845 A    
P7    O48   1.605402 S    
C76   H87   1.104886 S    
C87   H120  1.101665 S    
C20   H40   1.101599 S    
O38   C13   1.395886 S    
C5    H13   1.111058 S    
C32   C76   1.520810 S    
P10   C65   1.875502 S    
O25   Ba1   2.910267 S    
P5    O46   1.605402 S    
C68   C72   1.392497 A    
O11   Ba3   2.876862 S    
P9    C66   1.875518 S    
O10   Ba2   2.876895 S    
C4    H62   1.098447 S    
C6    H10   1.111706 S    
O43   C7    1.406064 S    
O27   Ba3   2.910267 S    
C3    H1    1.109472 S    
C5    H9    1.111702 S    
P7    C64   1.933383 S    
C26   H50   1.102926 S    
C2    H64   1.098447 S    
P4    O8    1.599969 S    
O14   P13   1.546745 D    
C85   H113  1.062271 S    
P6    O38   1.746804 S    
C73   H78   1.097744 S    
C51   C55   1.463057 A    
C36   C88   1.500025 S    
C19   H31   1.109511 S    
C88   H123  1.106782 S    
P4    O4    1.565765 D    
P14   C45   1.858979 S    
C24   H44   1.100050 S    
P12   O36   1.545007 D    
C9    H21   1.110451 S    
P8    O28   1.565070 D    
C4    H8    1.109875 S    
P9    O29   1.726504 S    
C4    C32   1.527646 S    
C86   H116  1.062250 S    
P10   O34   1.545006 D    
C44   C58   1.410555 A    
O17   C21   1.391687 S    
O5    Ba2   2.868620 S    
O32   Ba4   2.876278 S    
C38   C46   1.397788 A    
C26   H46   1.110784 S    
C56   C70   1.412768 A    
C34   C86   1.500025 S    
C26   H54   1.108765 S    
O7    Ba4   2.868620 S    
P5    O25   1.565070 D    
O11   P16   1.759147 S    
C85   H115  1.106789 S    
C76   H86   1.108337 S    
C15   C19   1.517367 S    
O15   P16   1.546746 D    
C14   C90   1.520985 S    
C59   C63   1.457434 A    
P6    C61   1.933354 S    
C17   H29   1.109511 S    
C75   H84   1.097746 S    
C70   C84   1.480107 S    
C81   H102  1.085159 S    
C23   C79   1.514524 S    
C34   C66   1.405196 A    
C83   H108  1.085159 S    
C65   C69   1.392483 A    
C31   H59   1.112989 S    
C41   C45   1.403796 A    
C43   C47   1.403795 A    
O3    Ba3   2.906536 S    
Ba2   O46   2.868618 S    
P1    O5    1.599925 S    
C18   H38   1.101597 S    
C78   H94   1.103531 S    
C13   C17   1.517365 S    
C60   C64   1.457455 A    
C84   H111  1.094609 S    
C27   H51   1.102927 S    
C40   C48   1.397790 A    
O37   C14   1.395882 S    
P6    Ba2   3.503002 S    
C69   C83   1.480105 S    
C34   C62   1.415846 A    
C89   H125  1.109185 S    
C37   C45   1.397795 A    
P11   O35   1.545005 D    
O39   C16   1.395880 S    
C7    H15   1.111058 S    
P2    O2    1.565765 D    
O1    Ba1   2.906536 S    
O21   P14   1.746271 S    
C38   H74   1.078290 S    
C56   C58   1.456981 A    
C22   H42   1.100049 S    
C20   H36   1.102944 S    
C19   H39   1.101594 S    
P2    C50   1.944336 S    
C21   H41   1.100049 S    
C74   H80   1.108337 S    
C35   C87   1.500022 S    
C82   H106  1.085156 S    
O8    Ba3   2.868686 S    
C85   H114  1.101664 S    
C53   C59   1.456967 A    
C27   H47   1.110784 S    
C23   H43   1.100048 S    
C87   H121  1.106789 S    
C32   H60   1.112992 S    
C28   H48   1.110784 S    
C37   C49   1.393950 A    
P10   O30   1.726493 S    
C83   H107  1.089135 S    
C40   H76   1.078289 S    
C75   H83   1.108339 S    
C88   H124  1.101669 S    
C42   H72   1.078562 S    
P1    Ba1   3.500608 S    
O22   P13   1.746263 S    
P12   O44   1.744870 S    
P16   C47   1.858978 S    
C44   H70   1.078563 S    
C71   C81   1.480105 S    
C8    C12   1.505727 S    
P3    Ba3   3.500608 S    
C49   C53   1.463056 A    
P6    O26   1.565070 D    
C5    C9    1.505714 S    
C25   H45   1.110783 S    
O28   Ba4   2.910207 S    
C54   C72   1.412769 A    
C11   H17   1.106806 S    
Ba4   O48   2.868618 S    
C36   C64   1.415845 A    
C21   C77   1.514525 S    
O26   Ba2   2.910207 S    
C80   H99   1.104380 S    
O22   C30   1.409477 S    
P9    O41   1.744867 S    
P13   C46   1.858998 S    
C37   H73   1.078292 S    
C18   H34   1.102945 S    
C89   H126  1.100850 S    
C72   C82   1.480109 S    
O24   C32   1.409477 S    
C1    H5    1.109874 S    
C75   H85   1.104884 S    
P2    O6    1.599969 S    
O30   Ba2   2.876278 S    
C13   H25   1.105509 S    
C33   C65   1.405196 A    
C20   H32   1.109507 S    
C27   H55   1.108763 S    
O4    Ba4   2.906594 S    
P11   O31   1.726501 S    
C43   C57   1.410543 A    
C66   C70   1.392498 A    
P12   O32   1.726491 S    
C16   C20   1.517357 S    
O19   C23   1.391688 S    
C31   C75   1.520811 S    
C40   C52   1.393942 A    
C73   H79   1.104885 S    
C41   C59   1.410543 A    
C23   C27   1.535851 S    
C86   H118  1.101667 S    
C39   C47   1.397794 A    
C29   C73   1.520812 S    
C90   H130  1.100810 S    
Ba2   O45   3.023743 S    
P4    Ba4   3.500634 S    
O40   C15   1.395891 S    
C21   C25   1.535851 S    
P5    C62   1.933383 S    
P3    C51   1.944309 S    
C84   H112  1.085157 S    
C3    C31   1.527647 S    
Ba3   Ba4   4.719884 S    
C67   C71   1.392483 A    
P10   O42   1.744871 S    
P8    C63   1.933355 S    
C54   C60   1.456983 A    
C28   H52   1.102926 S    
C11   H23   1.110452 S    
C1    H3    1.109473 S    
C33   C85   1.500020 S    
C10   H22   1.110457 S    
O16   P15   1.546745 D    
C2    H4    1.109473 S    
C52   C56   1.463078 A    
C83   H109  1.094610 S    
P5    Ba1   3.503027 S    
P1    C49   1.944309 S    
C79   H97   1.104380 S    
C30   C74   1.520811 S    
C86   H117  1.106784 S    
C73   H77   1.108339 S    
C1    C29   1.527647 S    
C92   H135  1.107914 S    
O21   C29   1.409482 S    
P2    O18   1.753372 S    
C38   C50   1.393943 A    
C7    H11   1.111702 S    
C9    H19   1.106805 S    
C4    H2    1.109473 S    
C41   H71   1.078560 S    
C82   H104  1.089137 S    
Ba3   O48   3.023734 S    
C42   C60   1.410555 A    
C53   C71   1.412758 A    
O29   Ba1   2.876311 S    
C10   H20   1.106812 S    
C10   H68   1.109737 S    
O10   P13   1.759171 S    
C91   H132  1.100858 S    
C3    H7    1.109872 S    
P11   C68   1.875521 S    
C18   H30   1.109507 S    
O12   P15   1.759171 S    
C15   H27   1.105511 S    
C15   C91   1.520969 S    
C35   C67   1.405198 A    
C9    H67   1.109738 S    
C6    C10   1.505728 S    
C77   H91   1.104380 S    
C78   H92   1.109920 S    
C81   H103  1.094612 S    
C8    H16   1.111062 S    
C12   H66   1.109738 S    
C90   H129  1.107952 S    
C39   C51   1.393948 A    
C76   H88   1.097738 S    
C2    C30   1.527645 S    
C25   H49   1.102927 S    
O42   C6    1.406065 S    
C14   C18   1.517361 S    
Ba4   O47   3.023743 S    
C74   H81   1.104885 S    
C82   H105  1.094608 S    
C80   H100  1.103532 S    
C77   H90   1.103531 S    
O6    Ba1   2.868686 S    
P8    Ba4   3.503002 S    
C91   H131  1.109196 S    
Ba1   O46   3.023734 S    
O18   C22   1.391688 S    
C7    C11   1.505715 S    
C50   C54   1.463079 A    
C12   H24   1.110455 S    
C2    H6    1.109874 S    
C79   H96   1.103530 S    
C80   H98   1.109921 S    
P6    O45   1.605357 S    
Ba3   O47   2.868551 S    
C42   C46   1.403811 A    
C22   C26   1.535853 S    
C33   C61   1.415845 A    
P4    C52   1.944338 S    
C44   C48   1.403809 A    
C77   H89   1.109922 S    
P7    Ba3   3.503027 S    
O23   C31   1.409483 S    
C87   H119  1.062270 S    
