data_mof_unit_45958.cif
_audit_creation_date              2012-12-11T15:54:08-0500
_audit_creation_method            fapswitch 2.2
_symmetry_space_group_name_H-M    P1
_symmetry_Int_Tables_number       1
_space_group_crystal_system       triclinic
_cell_length_a                    10.671149
_cell_length_b                    10.699692
_cell_length_c                    17.115559
_cell_angle_alpha                 80.779012
_cell_angle_beta                  99.380442
_cell_angle_gamma                 118.468537
_cell_volume                      1687.24744813

loop_
_atom_site_label
_atom_site_type_symbol
_atom_type_description
_atom_site_fract_x
_atom_site_fract_y
_atom_site_fract_z
_atom_type_partial_charge
C1    C     C_R   0.361412 0.229540 0.627587 0.551787
C2    C     C_1   0.320338 0.158902 0.777973 -0.055602
C3    C     C_1   0.334002 0.667533 0.278260 -0.050043
C4    C     C_R   0.370296 0.654399 0.586489 0.546853
C5    C     C_1   0.321431 0.677447 0.207623 -0.037434
C6    C     C_R   0.825496 0.667697 0.156027 -0.002589
C7    C     C_R   0.854816 0.573649 0.212947 -0.012392
C8    C     C_R   0.825463 0.554561 0.288989 0.022850
C9    C     C_R   0.739906 0.730428 0.258754 -0.144386
C10   C     C_R   0.776625 0.756364 0.180788 0.221878
C11   C     C_3   0.820235 0.420823 0.212146 -0.254902
C12   C     C_R   0.392420 0.827933 0.675502 -0.143774
C13   C     C_3   0.789131 0.400205 0.297792 -0.254419
C14   C     C_R   0.758107 0.624093 0.311632 -0.034215
C15   C     C_R   0.315048 0.144938 0.165582 0.002734
C16   C     C_R   0.777026 0.619055 0.626897 0.561310
C17   C     C_R   0.214978 0.171567 0.191963 0.072383
C18   C     C_R   0.215216 0.178315 0.270768 0.044316
C19   C     C_R   0.409671 0.117180 0.302940 -0.173274
C20   C     C_R   0.407346 0.108119 0.222068 -0.169393
C21   C     C_3   0.181819 0.293063 0.165506 -0.260939
C22   C     C_3   0.180219 0.300842 0.252418 -0.255875
C23   C     C_R   0.375780 0.849481 0.750955 -0.155524
C24   C     C_R   0.319764 0.162772 0.326666 0.012853
C25   C     C_R   0.892369 0.702177 0.855685 0.545245
C26   C     C_R   0.282546 0.749711 0.882967 0.556758
C27   C     C_R   0.283975 0.113594 0.857461 0.531166
C28   C     C_R   0.350244 0.224852 0.400461 0.538382
C29   C     C_R   0.883197 0.690441 0.081785 0.574838
C30   C     C_R   0.311745 0.702870 0.124466 0.576398
C31   C     C_R   0.285111 0.106061 0.085672 0.539797
C32   C     C_R   0.364743 0.654851 0.361106 0.538553
C33   C     C_R   0.710937 0.588693 0.389305 0.557416
C34   C     C_3   0.145362 0.455866 0.796680 -0.244957
C35   C     C_R   0.282445 0.734439 0.799629 0.005776
C36   C     C_R   0.187610 0.607719 0.765196 0.018560
C37   C     C_R   0.205149 0.585737 0.691087 0.014450
C38   C     C_3   0.165271 0.432010 0.715499 -0.249760
C39   C     C_R   0.316862 0.690498 0.648528 0.015225
C40   C     C_1   0.823380 0.657063 0.705978 -0.035030
C41   C     C_1   0.851387 0.684783 0.773650 -0.034674
C42   C     C_1   0.345102 0.187144 0.709753 -0.054530
Cr1   Cr    Cr6+3 0.608440 0.389080 0.519680 1.015446
Cr2   Cr    Cr6+3 0.288640 0.400090 0.490760 1.014179
Cr3   Cr    Cr6+3 0.602940 0.710800 0.489510 1.029407
Cr4   Cr    Cr6+3 0.052530 0.947560 0.964210 1.102826
Cr5   Cr    Cr6+3 0.059970 0.626800 0.992920 1.017102
Cr6   Cr    Cr6+3 0.373320 0.938440 0.995370 1.067677
H1    H     H_    0.474707 0.914875 0.642337 0.145569
H2    H     H_    0.072605 0.272457 0.268923 0.153316
H3    H     H_    0.443727 0.952574 0.773429 0.142200
H4    H     H_    0.031957 0.397543 0.810488 0.156790
H5    H     H_    0.224145 0.444643 0.844758 0.158799
H6    H     H_    0.256092 0.407983 0.716788 0.153657
H7    H     H_    0.063523 0.359402 0.682648 0.153874
H8    H     H_    0.693522 0.789767 0.277712 0.195597
H9    H     H_    0.915953 0.408881 0.205778 0.154791
H10   H     H_    0.684009 0.049146 0.130358 0.354608
H11   H     H_    0.723484 0.361993 0.171270 0.142319
H12   H     H_    0.675201 0.329816 0.307061 0.147864
H13   H     H_    0.867336 0.377356 0.340882 0.150549
H14   H     H_    0.487291 0.098379 0.345539 0.137448
H15   H     H_    0.477859 0.073782 0.203980 0.163292
H16   H     H_    0.075118 0.260889 0.131357 0.194472
H17   H     H_    0.271640 0.387656 0.137794 0.129921
H18   H     H_    0.269254 0.399883 0.274574 0.149891
O1    O     O_R   0.754020 0.497590 0.609930 -0.503560
O2    O     O_R   0.406180 0.826930 0.920660 -0.466910
O3    O     O_R   0.358620 0.062870 0.901950 -0.520760
O4    O     O_R   0.481420 0.271390 0.600630 -0.496062
O5    O     O_R   0.163910 0.085460 0.050210 -0.468124
O6    O     O_R   0.935200 0.815170 0.045770 -0.421347
O7    O     O_R   0.916120 0.596690 0.069430 -0.531632
O8    O     O_R   0.192310 0.631200 0.086170 -0.514092
O9    O     O_R   0.406770 0.819480 0.096420 -0.431137
O10   O     O_R   0.359170 0.055960 0.064880 -0.521235
O11   O     O_3   0.161940 0.837600 0.984160 -0.301126
O12   O     O_R   0.295080 0.533620 0.397890 -0.511651
O13   O     O_R   0.263810 0.254550 0.589590 -0.512088
O14   O     O_R   0.300820 0.531200 0.560890 -0.497425
O15   O     O_R   0.491480 0.744020 0.564270 -0.518747
O16   O     O_R   0.726290 0.693800 0.583010 -0.489144
O17   O     O_R   0.747830 0.500190 0.434090 -0.507580
O18   O     O_R   0.475680 0.273800 0.437630 -0.523303
O19   O     O_R   0.257620 0.257160 0.413750 -0.514611
O20   O     O_2   0.894830 0.011279 0.095914 -0.293622
O21   O     O_2   0.659442 0.833546 0.043505 -0.258275
O22   O     O_3   0.676546 0.962682 0.164906 -0.549910
O23   O     O_R   0.485280 0.746620 0.388440 -0.515937
O24   O     O_R   0.720550 0.696220 0.420010 -0.499281
O25   O     O_3   0.500010 0.499990 0.499980 -0.273509
O26   O     O_R   0.163320 0.092900 0.874450 -0.509279
O27   O     O_R   0.934650 0.822080 0.882840 -0.487512
O28   O     O_R   0.915520 0.604140 0.893670 -0.521478
O29   O     O_R   0.191760 0.638110 0.923230 -0.502607
S1    S     S_3+6 0.752439 0.893366 0.117858 0.004537

loop_
_geom_bond_atom_site_label_1
_geom_bond_atom_site_label_2
_ccdc_geom_bond_type
O22   S1    S    
C25   O27   A    
C8    C13   S    
C28   O18   A    
Cr1   O17   S    
Cr6   O10   S    
Cr3   O16   S    
Cr6   O3    S    
C14   C33   S    
C12   H1    S    
C7    C8    A    
C13   H12   S    
C7    C11   S    
C12   C23   A    
C18   C24   A    
C36   C37   A    
C4    O14   A    
C30   O8    A    
C29   O7    A    
C19   H14   S    
C22   H18   S    
C21   H16   S    
C38   H7    S    
C19   C20   A    
C2    C27   S    
Cr3   O23   S    
C9    C10   A    
Cr4   O6    S    
C27   O3    A    
C22   H2    S    
C29   O6    A    
C31   O5    A    
C25   O28   A    
C20   H15   S    
C34   C38   S    
C21   C22   S    
Cr1   O18   S    
Cr6   O9    S    
C11   H11   S    
C15   C20   A    
C4    O15   A    
Cr2   O14   S    
Cr5   O7    S    
C25   C41   S    
C16   O1    A    
Cr1   O25   S    
C35   C36   A    
Cr6   O11   S    
C9    C14   A    
C37   C38   S    
C1    C42   S    
C23   H3    S    
C32   O23   A    
C38   H6    S    
C4    C39   S    
C10   S1    S    
O21   S1    D    
C16   O16   A    
C17   C18   A    
C27   O26   A    
C9    H8    S    
Cr6   O2    S    
Cr3   O24   S    
C33   O17   A    
Cr4   O5    S    
Cr2   O25   S    
O20   S1    D    
C16   C40   S    
C40   C41   T    
Cr1   O4    S    
C23   C35   A    
C1    O13   A    
Cr5   O11   S    
Cr2   O19   S    
C5    C30   S    
C26   O29   A    
C15   C17   A    
Cr4   O26   S    
C8    C14   A    
C21   H17   S    
C18   C22   S    
Cr2   O13   S    
Cr3   O15   S    
C24   C28   S    
Cr5   O8    S    
C3    C5    T    
H10   O22   S    
C6    C10   A    
Cr4   O11   S    
C15   C31   S    
C6    C7    A    
C34   H4    S    
C1    O4    A    
C26   O2    A    
C12   C39   A    
Cr2   O12   S    
C19   C24   A    
C37   C39   A    
C33   O24   A    
C30   O9    A    
C11   C13   S    
C31   O10   A    
Cr4   O27   S    
C2    C42   T    
Cr5   O28   S    
C34   C36   S    
C3    C32   S    
Cr3   O25   S    
C17   C21   S    
C32   O12   A    
C26   C35   S    
C6    C29   S    
C13   H13   S    
C34   H5    S    
Cr1   O1    S    
C28   O19   A    
Cr5   O29   S    
C11   H9    S    
