data_mof_unit_65606.cif
_audit_creation_date              2012-12-10T18:48:41-0500
_audit_creation_method            fapswitch 2.2
_symmetry_space_group_name_H-M    P1
_symmetry_Int_Tables_number       1
_space_group_crystal_system       triclinic
_cell_length_a                    25.508817
_cell_length_b                    25.507744
_cell_length_c                    25.510678
_cell_angle_alpha                 119.996742
_cell_angle_beta                  89.999563
_cell_angle_gamma                 60.002132
_cell_volume                      11738.242934

loop_
_atom_site_label
_atom_site_type_symbol
_atom_type_description
_atom_site_fract_x
_atom_site_fract_y
_atom_site_fract_z
_atom_type_partial_charge
C1    C     C_R   0.850004 0.500006 0.849844 0.506424
C2    C     C_3   0.555388 0.432170 0.469331 -0.100005
C3    C     C_3   0.469348 0.518104 0.555328 -0.100003
C4    C     C_3   0.530652 0.481896 0.444672 -0.100003
C5    C     C_1   0.610364 0.499984 0.610427 -0.003538
C6    C     C_1   0.389636 0.500016 0.389573 -0.003538
C7    C     C_3   0.512322 0.549714 0.512428 -0.098921
C8    C     C_3   0.487678 0.450286 0.487572 -0.098921
C9    C     C_3   0.536425 0.499988 0.536452 0.049191
C10   C     C_3   0.463575 0.500012 0.463548 0.049191
C11   C     C_1   0.576986 0.499981 0.577039 -0.058535
C12   C     C_R   0.149996 0.499994 0.150156 0.506424
C13   C     C_1   0.423014 0.500019 0.422961 -0.058535
C14   C     C_3   0.530610 0.481839 0.037220 -0.099978
C15   C     C_3   0.469390 0.518161 0.962780 -0.099978
C16   C     C_R   0.650091 0.500003 0.650150 0.506263
C17   C     C_R   0.349909 0.499997 0.349850 0.506262
C18   C     C_3   0.555377 0.432160 0.962845 -0.099981
C19   C     C_3   0.444623 0.567840 0.037155 -0.099981
C20   C     C_1   0.610474 0.499997 0.889678 -0.003494
C21   C     C_1   0.389526 0.500003 0.110322 -0.003494
C22   C     C_3   0.512337 0.549681 0.037334 -0.098927
C23   C     C_3   0.512343 0.975266 0.037295 -0.098932
C24   C     C_3   0.487663 0.450319 0.962665 -0.098927
C25   C     C_3   0.536470 0.500001 0.963594 0.049180
C26   C     C_3   0.463530 0.499998 0.036406 0.049180
C27   C     C_1   0.577074 0.500001 0.923049 -0.058499
C28   C     C_1   0.422926 0.499998 0.076951 -0.058499
C29   C     C_3   0.987490 0.567862 0.037228 -0.099979
C30   C     C_3   0.012510 0.432138 0.962772 -0.099979
C31   C     C_3   0.012500 0.518219 0.962855 -0.099983
C32   C     C_3   0.987500 0.481781 0.037145 -0.099983
C33   C     C_1   0.889725 0.499988 0.889545 -0.003356
C34   C     C_3   0.487657 0.024734 0.962704 -0.098932
C35   C     C_1   0.110275 0.500012 0.110455 -0.003356
C36   C     C_3   0.937964 0.549633 0.037264 -0.098936
C37   C     C_3   0.062036 0.450367 0.962736 -0.098937
C38   C     C_3   0.963610 0.499990 0.963528 0.049172
C39   C     C_3   0.036390 0.500010 0.036472 0.049172
C40   C     C_R   0.849891 0.500025 0.650068 0.506359
C41   C     C_R   0.150109 0.499975 0.349932 0.506359
C42   C     C_1   0.923087 0.499984 0.922933 -0.058496
C43   C     C_1   0.076913 0.500016 0.077067 -0.058496
C44   C     C_3   0.037298 0.975288 0.444697 -0.099985
C45   C     C_3   0.536448 0.927131 0.963558 0.049175
C46   C     C_3   0.962702 0.024712 0.555303 -0.099985
C47   C     C_3   0.962918 0.024742 0.469295 -0.099996
C48   C     C_3   0.037082 0.975258 0.530705 -0.099996
C49   C     C_1   0.889677 0.220765 0.610394 -0.003468
C50   C     C_1   0.110323 0.779235 0.389606 -0.003468
C51   C     C_3   0.037333 0.024687 0.512478 -0.098925
C52   C     C_3   0.962667 0.975313 0.487522 -0.098925
C53   C     C_3   0.963588 0.072870 0.536440 0.049185
C54   C     C_3   0.036412 0.927129 0.463560 0.049185
C55   C     C_1   0.923044 0.154006 0.577013 -0.058530
C56   C     C_3   0.463552 0.072869 0.036442 0.049175
C57   C     C_1   0.076956 0.845994 0.422987 -0.058530
C58   C     C_3   0.036649 0.519021 0.530975 -0.100002
C59   C     C_3   0.963350 0.480979 0.469025 -0.100002
C60   C     C_3   0.962274 0.568077 0.555040 -0.099983
C61   C     C_3   0.037726 0.431923 0.444960 -0.099983
C62   C     C_1   0.889583 0.500040 0.610353 -0.003397
C63   C     C_1   0.110417 0.499960 0.389646 -0.003397
C64   C     C_R   0.650206 0.499985 0.849946 0.506351
C65   C     C_R   0.349794 0.500015 0.150054 0.506351
C66   C     C_3   0.037280 0.450966 0.512997 -0.098929
C67   C     C_1   0.577028 0.845997 0.922985 -0.058495
C68   C     C_3   0.962720 0.549034 0.487003 -0.098929
C69   C     C_3   0.963542 0.500021 0.536426 0.049180
C70   C     C_3   0.036458 0.499978 0.463574 0.049180
C71   C     C_1   0.922961 0.500038 0.576980 -0.058531
C72   C     C_1   0.077039 0.499962 0.423020 -0.058531
C73   C     C_R   0.849961 0.300203 0.650112 0.506323
C74   C     C_R   0.150039 0.699797 0.349888 0.506323
C75   C     C_R   0.650143 0.699804 0.849888 0.506355
C76   C     C_R   0.349857 0.300196 0.150112 0.506355
C77   C     C_3   0.444625 0.024684 0.037153 -0.099990
C78   C     C_1   0.422972 0.154002 0.077015 -0.058495
C79   C     C_3   0.555375 0.975316 0.962847 -0.099990
C80   C     C_3   0.469365 0.975277 0.962780 -0.099971
C81   C     C_3   0.530635 0.024723 0.037220 -0.099971
C82   C     C_1   0.610416 0.779240 0.889604 -0.003419
C83   C     C_1   0.389584 0.220760 0.110396 -0.003419
C84   C     C_3   0.444611 0.567830 0.530669 -0.100005
H1    H     H_    0.444648 0.954009 0.931705 0.106925
H2    H     H_    0.068042 0.953975 0.555481 0.106811
H3    H     H_    0.068435 0.954029 0.398756 0.106835
H4    H     H_    0.931565 0.045971 0.601244 0.106835
H5    H     H_    0.932441 0.954074 0.476791 0.108855
H6    H     H_    0.067559 0.045926 0.523209 0.108855
H7    H     H_    0.930782 0.624049 0.600766 0.106858
H8    H     H_    0.069218 0.375951 0.399234 0.106858
H9    H     H_    0.067257 0.534658 0.555967 0.106865
H10   H     H_    0.932743 0.465342 0.444033 0.106865
H11   H     H_    0.932545 0.589349 0.475842 0.108862
H12   H     H_    0.555352 0.045991 0.068295 0.106925
H13   H     H_    0.067455 0.410651 0.524158 0.108862
H14   H     H_    0.398625 0.045920 0.068172 0.106847
H15   H     H_    0.601375 0.954080 0.931828 0.106847
H16   H     H_    0.477036 0.046013 0.932511 0.108844
H17   H     H_    0.522964 0.953987 0.067489 0.108844
H18   H     H_    0.444612 0.532989 0.601288 0.106796
H19   H     H_    0.555388 0.467011 0.398712 0.106796
H20   H     H_    0.398602 0.623605 0.555420 0.106791
H21   H     H_    0.601398 0.376395 0.444580 0.106791
H22   H     H_    0.477079 0.409407 0.476886 0.108871
H23   H     H_    0.022304 0.533197 0.931841 0.106921
H24   H     H_    0.522921 0.590592 0.523115 0.108872
H25   H     H_    0.601379 0.376378 0.931829 0.106847
H26   H     H_    0.398621 0.623622 0.068171 0.106847
H27   H     H_    0.555312 0.466906 0.068291 0.106849
H28   H     H_    0.444688 0.533093 0.931709 0.106849
H29   H     H_    0.477051 0.409469 0.932434 0.108837
H30   H     H_    0.522949 0.590530 0.067566 0.108837
H31   H     H_    0.977696 0.466803 0.068159 0.106921
H32   H     H_    0.977676 0.623658 0.068312 0.106925
H33   H     H_    0.022323 0.376342 0.931688 0.106925
H34   H     H_    0.113516 0.409560 0.932574 0.108848
H35   H     H_    0.886484 0.590440 0.067426 0.108848
H36   H     H_    0.931958 0.046025 0.444518 0.106811
O1    O     O_3   0.750050 0.500010 0.750000 -0.435616
O2    O     O_R   0.332180 0.543100 0.332140 -0.536820
O3    O     O_R   0.789210 0.543100 0.875260 -0.536981
O4    O     O_R   0.210790 0.456900 0.124740 -0.536981
O5    O     O_R   0.667790 0.543110 0.667830 -0.536907
O6    O     O_R   0.332210 0.456890 0.332170 -0.536907
O7    O     O_R   0.875320 0.456920 0.667760 -0.536961
O8    O     O_R   0.124680 0.543080 0.332240 -0.536961
O9    O     O_R   0.667890 0.456890 0.789150 -0.536809
O10   O     O_R   0.332110 0.543110 0.210850 -0.536809
O11   O     O_R   0.875360 0.335610 0.667790 -0.536937
O12   O     O_3   0.249950 0.499990 0.250000 -0.435615
O13   O     O_R   0.124640 0.664390 0.332210 -0.536937
O14   O     O_R   0.667870 0.664400 0.875290 -0.536966
O15   O     O_R   0.332130 0.335600 0.124710 -0.536966
O16   O     O_R   0.789160 0.335600 0.667830 -0.536834
O17   O     O_R   0.210840 0.664400 0.332170 -0.536834
O18   O     O_R   0.667820 0.664410 0.789090 -0.536846
O19   O     O_R   0.332180 0.335590 0.210910 -0.536846
O20   O     O_R   0.789090 0.543120 0.667780 -0.536866
O21   O     O_R   0.210910 0.456880 0.332220 -0.536866
O22   O     O_R   0.667910 0.543090 0.875320 -0.536937
O23   O     O_R   0.332090 0.456910 0.124680 -0.536937
O24   O     O_R   0.875390 0.456910 0.789050 -0.536884
O25   O     O_R   0.124610 0.543090 0.210950 -0.536884
O26   O     O_R   0.667820 0.456900 0.667860 -0.536820
Zn1   Zn    Zn3+2 0.719220 0.561590 0.719210 0.943794
Zn2   Zn    Zn3+2 0.280780 0.438410 0.280790 0.943794
Zn3   Zn    Zn3+2 0.842430 0.438430 0.719180 0.943690
Zn4   Zn    Zn3+2 0.157570 0.561570 0.280820 0.943690
Zn5   Zn    Zn3+2 0.719260 0.438420 0.719240 0.943879
Zn6   Zn    Zn3+2 0.280740 0.561580 0.280760 0.943879
Zn7   Zn    Zn3+2 0.719300 0.561580 0.842360 0.943638
Zn8   Zn    Zn3+2 0.280700 0.438420 0.157640 0.943638

loop_
_geom_bond_atom_site_label_1
_geom_bond_atom_site_label_2
_ccdc_geom_bond_type
C61   C70   S    
C73   O11   A    
C34   C56   S    
C23   C45   S    
O4    Zn8   S    
O12   Zn4   S    
C14   C18   S    
C2    C4    S    
C18   H25   S    
C65   O10   A    
C75   O14   A    
C1    C33   S    
C56   C81   S    
C15   C19   S    
C29   C36   S    
C30   C38   S    
C80   H1    S    
O15   Zn8   S    
O1    Zn7   S    
C18   C24   S    
C33   C42   T    
C32   C36   S    
C66   H13   S    
C79   H15   S    
C58   H9    S    
C24   C26   S    
O9    Zn5   S    
C50   C74   S    
C51   H6    S    
C34   C79   S    
C17   O6    A    
C19   H26   S    
C66   C69   S    
C58   C60   S    
C74   O13   A    
C46   C52   S    
C56   C78   S    
C76   C83   S    
C4    H19   S    
C16   O26   A    
C32   C39   S    
C69   C71   S    
C36   H35   S    
C5    C16   S    
O21   Zn2   S    
C34   C80   S    
C61   C66   S    
C58   C66   S    
C48   C51   S    
C37   H34   S    
C22   C25   S    
C45   C67   S    
C34   H16   S    
O1    Zn1   S    
O17   Zn6   S    
C59   H10   S    
O1    Zn5   S    
C44   H3    S    
C35   C43   T    
C16   O5    A    
O25   Zn4   S    
C44   C47   S    
C47   C53   S    
C7    C84   S    
C40   C62   S    
C24   H29   S    
O22   Zn7   S    
C41   O8    A    
C52   H5    S    
C18   C25   S    
C4    C7    S    
C78   C83   T    
O20   Zn1   S    
C76   O15   A    
C52   C54   S    
C46   H4    S    
C53   C55   S    
C14   H27   S    
C74   O17   A    
C46   C48   S    
O19   Zn2   S    
C59   C61   S    
C68   H11   S    
O12   Zn2   S    
C19   C22   S    
C3    C8    S    
O5    Zn1   S    
C79   C81   S    
C81   H12   S    
O6    Zn2   S    
C58   C70   S    
O23   Zn8   S    
C39   C43   S    
C49   C55   T    
C40   O7    A    
C10   C13   S    
C23   C77   S    
C56   C77   S    
C31   C37   S    
C30   C37   S    
C8    H22   S    
C51   C53   S    
O2    Zn6   S    
C12   O25   A    
C20   C64   S    
C48   C54   S    
C1    O3    A    
C41   O21   A    
O24   Zn3   S    
C3    C9    S    
C59   C68   S    
O12   Zn8   S    
C12   O4    A    
C73   O16   A    
O18   Zn1   S    
C29   C31   S    
C29   C39   S    
C77   H14   S    
C45   C79   S    
C14   C26   S    
C12   C35   S    
C9    C11   S    
C59   C69   S    
C3    H18   S    
O8    Zn4   S    
C47   H36   S    
C20   C27   T    
C29   H32   S    
O10   Zn6   S    
C84   H20   S    
C49   C73   S    
O11   Zn3   S    
C41   C63   S    
C4    C10   S    
O16   Zn5   S    
C44   C51   S    
O3    Zn7   S    
C60   H7    S    
C7    C9    S    
C6    C17   S    
C15   C24   S    
C23   C81   S    
C21   C65   S    
C50   C57   T    
C31   H23   S    
C15   H28   S    
C21   C28   T    
C2    C8    S    
O13   Zn4   S    
C75   O18   A    
C19   C26   S    
C61   H8    S    
C75   C82   S    
C5    C11   T    
C47   C52   S    
C30   H33   S    
C64   O9    A    
C25   C27   S    
C2    H21   S    
C26   C28   S    
C31   C38   S    
C14   C22   S    
C36   C38   S    
C37   C39   S    
C1    O24   A    
O7    Zn3   S    
C6    C13   T    
C30   C32   S    
C77   C80   S    
C23   H17   S    
C64   O22   A    
C60   C69   S    
O12   Zn6   S    
C40   O20   A    
C46   C53   S    
C10   C84   S    
O1    Zn3   S    
C62   C71   T    
C45   C80   S    
C48   H2    S    
C76   O19   A    
C32   H31   S    
C15   C25   S    
O26   Zn5   S    
O14   Zn7   S    
C38   C42   S    
C44   C54   S    
C17   O2    A    
C22   H30   S    
C63   C72   T    
C60   C68   S    
C67   C82   T    
C8    C10   S    
C3    C84   S    
C68   C70   S    
C7    H24   S    
C70   C72   S    
C2    C9    S    
C65   O23   A    
C54   C57   S    
