data_mof_unit_57016.cif
_audit_creation_date              2012-12-10T21:29:37-0500
_audit_creation_method            fapswitch 2.2
_symmetry_space_group_name_H-M    P1
_symmetry_Int_Tables_number       1
_space_group_crystal_system       triclinic
_cell_length_a                    10.65077
_cell_length_b                    16.01057
_cell_length_c                    16.524119
_cell_angle_alpha                 88.801597
_cell_angle_beta                  90.269686
_cell_angle_gamma                 90.320477
_cell_volume                      2817.08361992

loop_
_atom_site_label
_atom_site_type_symbol
_atom_type_description
_atom_site_fract_x
_atom_site_fract_y
_atom_site_fract_z
_atom_type_partial_charge
C1    C     C_R   0.484164 0.490554 0.653576 0.926649
C2    C     C_R   0.486421 0.494949 0.091610 0.124997
C3    C     C_R   0.400598 0.409282 0.862735 -0.377435
C4    C     C_R   0.413761 0.553191 0.132183 -0.341606
C5    C     C_R   0.429426 0.410285 0.780457 0.453026
C6    C     C_R   0.424509 0.560727 0.215586 0.419601
C7    C     C_R   0.438090 0.763811 0.461815 0.010390
C8    C     C_R   0.567605 0.235979 0.533690 -0.001380
C9    C     C_R   0.441403 0.850856 0.464983 -0.252387
C10   C     C_R   0.562791 0.148940 0.530863 -0.291145
C11   C     C_R   0.525160 0.890675 0.518536 0.250750
C12   C     C_R   0.507903 0.509843 0.346376 0.933213
C13   C     C_R   0.472440 0.109340 0.481700 0.256884
C14   C     C_R   0.603485 0.840545 0.568887 -0.009085
C15   C     C_R   0.389382 0.159722 0.434951 -0.003440
C16   C     C_R   0.741449 0.498532 0.493307 0.887582
C17   C     C_R   0.261452 0.501244 0.513297 0.870631
C18   C     C_R   0.596382 0.752748 0.562470 -0.034595
C19   C     C_R   0.397758 0.247492 0.441297 -0.040039
C20   C     C_R   0.891093 0.339648 0.509805 -0.266010
C21   C     C_R   0.114947 0.660541 0.523821 -0.243063
C22   C     C_R   0.951518 0.270964 0.545721 0.515331
C23   C     C_R   0.434793 0.488262 0.738061 -0.273878
C24   C     C_R   0.057173 0.731592 0.491031 0.491412
C25   C     C_R   0.064092 0.282793 0.587344 -0.249065
C26   C     C_R   0.947084 0.722593 0.446043 -0.254045
C27   C     C_R   0.121161 0.361171 0.585994 -0.225989
C28   C     C_R   0.890210 0.644284 0.440661 -0.226925
C29   C     C_R   0.064133 0.429736 0.545096 0.085598
C30   C     C_R   0.942605 0.572914 0.480335 0.076359
C31   C     C_R   0.942078 0.421656 0.514601 0.025421
C32   C     C_R   0.062941 0.579778 0.513155 0.024775
C33   C     C_R   0.128521 0.505526 0.532212 -0.214492
C34   C     C_R   0.513650 0.512535 0.258317 -0.238042
C35   C     C_R   0.877810 0.495487 0.488677 -0.187355
C36   C     C_3   0.691186 0.882891 0.628494 -0.417789
C37   C     C_3   0.770888 0.823989 0.682161 -0.385439
C38   C     C_3   0.854887 0.873104 0.739433 -0.878059
C39   C     C_3   0.294778 0.117748 0.379499 -0.411558
C40   C     C_3   0.211083 0.177106 0.328953 -0.388113
C41   C     C_3   0.120472 0.128515 0.275519 -0.880865
C42   C     C_3   0.950242 0.147347 0.481565 0.075167
C43   C     C_3   0.883426 0.063585 0.475158 -0.840573
C44   C     C_3   0.061142 0.856734 0.552916 0.067385
C45   C     C_R   0.382034 0.561712 0.774679 -0.100286
C46   C     C_3   0.134905 0.937791 0.560999 -0.832034
C47   C     C_3   0.705073 0.414197 0.258306 -0.367558
C48   C     C_3   0.814553 0.474986 0.271412 -0.320059
C49   C     C_3   0.934479 0.428389 0.294937 -0.911739
C50   C     C_3   0.378686 0.645738 0.727482 -0.329232
C51   C     C_3   0.313713 0.722060 0.763139 -0.313782
C52   C     C_3   0.323435 0.797651 0.705490 -0.956260
C53   C     C_3   0.594420 0.317753 0.083088 0.082508
C54   C     C_3   0.679115 0.259210 0.037270 -0.811031
C55   C     C_3   0.157027 0.606556 0.909253 0.066872
C56   C     C_R   0.595406 0.458340 0.216539 -0.098224
C57   C     C_3   0.101247 0.682656 0.948975 -0.825636
C58   C     C_3   0.373909 0.272768 0.758780 0.095437
C59   C     C_3   0.381128 0.207062 0.694104 -0.817070
C60   C     C_3   0.229309 0.583348 0.265628 0.080088
C61   C     C_3   0.141683 0.651786 0.292426 -0.781543
C62   C     C_R   0.335438 0.553917 0.854753 0.479957
C63   C     C_R   0.577992 0.448422 0.132860 0.439806
C64   C     C_R   0.358827 0.480871 0.899570 0.116367
H1    H     H_    0.905494 0.776187 0.415440 0.160159
H2    H     H_    0.806122 0.640078 0.404002 0.170911
H3    H     H_    0.415566 0.353487 0.899568 0.165680
H4    H     H_    0.347181 0.592005 0.099118 0.205229
H5    H     H_    0.636236 0.266140 0.571859 0.181932
H6    H     H_    0.373667 0.733383 0.420956 0.174275
H7    H     H_    0.917792 0.916002 0.704644 0.256514
H8    H     H_    0.796808 0.910098 0.781148 0.268381
H9    H     H_    0.913600 0.829137 0.775907 0.248892
H10   H     H_    0.708459 0.782510 0.719043 0.226925
H11   H     H_    0.831489 0.785009 0.643674 0.212846
H12   H     H_    0.109166 0.230749 0.618369 0.153241
H13   H     H_    0.755301 0.924804 0.593595 0.207014
H14   H     H_    0.633590 0.922313 0.668489 0.217158
H15   H     H_    0.173347 0.090258 0.232071 0.265878
H16   H     H_    0.059546 0.086919 0.313130 0.259969
H17   H     H_    0.059966 0.172911 0.240858 0.248542
H18   H     H_    0.155340 0.216852 0.369626 0.210855
H19   H     H_    0.270498 0.217884 0.289353 0.222989
H20   H     H_    0.347246 0.077639 0.337316 0.217510
H21   H     H_    0.233549 0.076479 0.417220 0.203398
H22   H     H_    0.051239 0.135413 0.494891 0.149525
H23   H     H_    0.628988 0.113290 0.567297 0.191833
H24   H     H_    0.940867 0.181042 0.422127 0.145186
H25   H     H_    0.784097 0.073066 0.456753 0.263695
H26   H     H_    0.930211 0.024978 0.429259 0.211221
H27   H     H_    0.886535 0.030012 0.534508 0.254688
H28   H     H_    0.060977 0.823825 0.613037 0.151535
H29   H     H_    0.963077 0.872418 0.534895 0.151974
H30   H     H_    0.134804 0.972649 0.502308 0.253735
H31   H     H_    0.091427 0.977099 0.607680 0.209450
H32   H     H_    0.233475 0.924412 0.578881 0.270924
H33   H     H_    0.916221 0.382958 0.345064 0.263042
H34   H     H_    0.378715 0.886341 0.425839 0.182767
H35   H     H_    0.970752 0.394114 0.242256 0.262363
H36   H     H_    0.007233 0.473384 0.314871 0.248884
H37   H     H_    0.832766 0.512162 0.215034 0.239172
H38   H     H_    0.789718 0.518787 0.319804 0.194457
H39   H     H_    0.677162 0.384557 0.316672 0.203814
H40   H     H_    0.739059 0.361780 0.221521 0.236727
H41   H     H_    0.422829 0.818030 0.699657 0.273339
H42   H     H_    0.286294 0.782292 0.644713 0.281742
H43   H     H_    0.268235 0.850157 0.729614 0.260378
H44   H     H_    0.212625 0.708107 0.772723 0.238528
H45   H     H_    0.654200 0.711830 0.599369 0.142312
H46   H     H_    0.359855 0.739834 0.820728 0.277482
H47   H     H_    0.477501 0.665301 0.716300 0.221719
H48   H     H_    0.329882 0.634439 0.669228 0.206152
H49   H     H_    0.504298 0.323613 0.049067 0.146773
H50   H     H_    0.575354 0.289190 0.143915 0.123838
H51   H     H_    0.769493 0.251055 0.070232 0.250818
H52   H     H_    0.632711 0.197301 0.031693 0.202170
H53   H     H_    0.697944 0.285358 0.975694 0.266637
H54   H     H_    0.142407 0.551829 0.950837 0.158612
H55   H     H_    0.105448 0.595749 0.851518 0.128668
H56   H     H_    0.336128 0.288594 0.407361 0.143975
H57   H     H_    0.112207 0.738648 0.908768 0.246708
H58   H     H_    0.999745 0.671927 0.960528 0.215045
H59   H     H_    0.149581 0.694037 0.007468 0.261690
H60   H     H_    0.275764 0.296914 0.758885 0.123782
H61   H     H_    0.394752 0.241569 0.818008 0.143960
H62   H     H_    0.313314 0.155818 0.707800 0.200604
H63   H     H_    0.356847 0.235341 0.634252 0.258058
H64   H     H_    0.477167 0.180606 0.692593 0.261638
H65   H     H_    0.231554 0.533199 0.313320 0.141755
H66   H     H_    0.190115 0.557384 0.208657 0.134634
H67   H     H_    0.808955 0.325558 0.474238 0.176732
H68   H     H_    0.137130 0.702230 0.245363 0.251088
H69   H     H_    0.045966 0.625841 0.301844 0.210176
H70   H     H_    0.176744 0.678381 0.349714 0.269214
H71   H     H_    0.199494 0.670053 0.558647 0.167163
H72   H     H_    0.210170 0.368261 0.617146 0.170310
N1    N     N_2   0.362969 0.485523 0.984108 -0.168336
N2    N     N_2   0.474112 0.485317 0.007659 -0.106528
N3    N     N_R   0.515300 0.716920 0.509720 -0.116139
N4    N     N_R   0.484700 0.283080 0.490280 -0.116047
N5    N     N_2   0.533875 0.979886 0.523629 -0.194912
N6    N     N_2   0.462901 0.020141 0.476810 -0.193053
O1    O     O_R   0.494530 0.422540 0.612660 -0.551644
O2    O     O_3   0.118508 0.807661 0.493855 -0.625028
O3    O     O_3   0.654933 0.396091 0.089882 -0.597214
O4    O     O_3   0.286129 0.621244 0.894698 -0.616931
O5    O     O_3   0.463385 0.336904 0.742695 -0.579700
O6    O     O_3   0.350624 0.617684 0.254902 -0.587836
O7    O     O_R   0.505470 0.577460 0.387340 -0.575602
O8    O     O_R   0.504350 0.561840 0.618900 -0.652325
O9    O     O_R   0.495650 0.438160 0.381100 -0.640912
O10   O     O_R   0.678310 0.430340 0.496890 -0.629317
O11   O     O_R   0.321690 0.569660 0.503110 -0.628859
O12   O     O_R   0.688140 0.569650 0.503130 -0.619190
O13   O     O_R   0.311860 0.430350 0.496870 -0.620535
O14   O     O_3   0.895278 0.193123 0.544094 -0.625633
Zn1   Zn    Zn3+2 0.493440 0.406980 0.495830 0.936866
Zn2   Zn    Zn3+2 0.506560 0.593020 0.504170 0.930507

loop_
_geom_bond_atom_site_label_1
_geom_bond_atom_site_label_2
_ccdc_geom_bond_type
C7    N3    A    
C37   H10   S    
C34   C56   A    
C9    H34   S    
C23   C45   A    
C27   C29   A    
C14   C18   A    
C42   O14   S    
C5    C23   A    
C40   H19   S    
C18   H45   S    
C17   O11   A    
C41   H16   S    
C61   H69   S    
C55   H55   S    
C3    C64   A    
C2    C63   A    
C59   H62   S    
C15   C19   A    
C8    H5    S    
C43   H25   S    
C30   C35   A    
C5    O5    S    
C27   H72   S    
O9    Zn1   S    
C36   C37   S    
C24   C26   A    
C39   H20   S    
O12   Zn2   S    
C36   H13   S    
C16   C35   S    
C14   C36   S    
C38   H9    S    
C11   C14   A    
C57   H59   S    
C48   H37   S    
C59   H63   S    
C29   C33   A    
C45   C62   A    
O11   Zn2   S    
C62   C64   A    
C44   H29   S    
C61   H68   S    
C57   H58   S    
O10   Zn1   S    
C46   H31   S    
N3    Zn2   S    
C53   H49   S    
C51   H44   S    
C22   C25   A    
C54   H52   S    
C42   H22   S    
O7    Zn2   S    
C44   H28   S    
C9    C11   A    
C37   H11   S    
C52   H42   S    
C12   O9    A    
C17   C33   S    
C7    H6    S    
C50   H48   S    
C44   C46   S    
C61   H70   S    
O1    Zn1   S    
C64   N1    S    
C21   C32   A    
C38   H8    S    
C10   H23   S    
C43   H26   S    
C47   H39   S    
C51   C52   S    
C2    N2    S    
C40   H18   S    
C52   H43   S    
C4    C6    A    
C60   H66   S    
C39   C40   S    
C4    H4    S    
C58   O5    S    
C19   N4    A    
C55   O4    S    
C22   O14   S    
C58   C59   S    
C53   C54   S    
C49   H33   S    
C43   H27   S    
C6    C34   A    
C60   C61   S    
C28   H2    S    
C41   H15   S    
C37   C38   S    
C1    O1    A    
N4    Zn1   S    
C49   H35   S    
C6    O6    S    
C47   C48   S    
C46   H30   S    
C44   O2    S    
C41   H17   S    
C54   H51   S    
C53   O3    S    
C50   C51   S    
C56   C63   A    
C1    O8    A    
C16   O10   A    
C13   N6    S    
O13   Zn1   S    
C11   N5    S    
C15   C39   S    
C48   C49   S    
C20   C22   A    
C19   H56   S    
C1    C23   S    
C51   H46   S    
C13   C15   A    
C16   O12   A    
C31   C35   A    
C54   H53   S    
C42   H24   S    
C42   C43   S    
C39   H21   S    
C20   H67   S    
C12   C34   S    
C17   O13   A    
C53   H50   S    
C7    C9    A    
C38   H7    S    
C40   C41   S    
C47   H40   S    
O8    Zn2   S    
C26   H1    S    
C58   H60   S    
C12   O7    A    
C3    H3    S    
C55   H54   S    
C3    C5    A    
C10   C13   A    
C60   H65   S    
C52   H41   S    
C25   C27   A    
N1    N2    D    
C26   C28   A    
C48   H38   S    
C8    N4    A    
C25   H12   S    
C32   C33   A    
C55   C57   S    
C59   H64   S    
C29   C31   A    
C36   H14   S    
N5    N6    D    
C49   H36   S    
C30   C32   A    
C45   C50   S    
C24   O2    S    
C2    C4    A    
C28   C30   A    
C50   H47   S    
C63   O3    S    
C18   N3    A    
C57   H57   S    
C46   H32   S    
C58   H61   S    
C8    C10   A    
C62   O4    S    
C21   C24   A    
C60   O6    S    
C21   H71   S    
C47   C56   S    
C20   C31   A    
