data_mof_unit_33757.cif
_audit_creation_date              2012-12-10T16:38:40-0500
_audit_creation_method            fapswitch 2.2
_symmetry_space_group_name_H-M    P1
_symmetry_Int_Tables_number       1
_space_group_crystal_system       triclinic
_cell_length_a                    10.90457
_cell_length_b                    10.893343
_cell_length_c                    17.684689
_cell_angle_alpha                 98.289928
_cell_angle_beta                  73.210157
_cell_angle_gamma                 98.280652
_cell_volume                      1978.49501604

loop_
_atom_site_label
_atom_site_type_symbol
_atom_type_description
_atom_site_fract_x
_atom_site_fract_y
_atom_site_fract_z
_atom_type_partial_charge
C1    C     C_R   0.158659 0.480398 0.517017 0.565086
C2    C     C_R   0.526660 0.328567 0.925476 0.265262
C3    C     C_R   0.598118 0.272226 0.963386 0.016398
C4    C     C_R   0.842746 0.520739 0.483260 0.504653
C5    C     C_R   0.603896 0.321142 0.041658 -0.040259
C6    C     C_R   0.520828 0.413058 0.084449 -0.050200
C7    C     C_R   0.686413 0.278804 0.080105 0.301111
C8    C     C_R   0.674856 0.315531 0.161080 0.286576
C9    C     C_R   0.524721 0.459444 0.162329 -0.162119
C10   C     C_2   0.979855 0.529510 0.478558 0.255198
C11   C     C_2   0.022822 0.470321 0.526948 0.000412
C12   C     C_R   0.296094 0.646304 0.843726 -0.111588
C13   C     C_2   0.538311 0.966157 0.478947 -0.096676
C14   C     C_2   0.450654 0.039058 0.526923 0.000853
C15   C     C_R   0.470027 0.168812 0.516679 0.512899
C16   C     C_R   0.529571 0.832842 0.483276 0.513058
C17   C     C_R   0.564555 0.435518 0.287884 0.527134
C18   C     C_R   0.435936 0.562718 0.712828 0.497976
C19   C     C_R   0.397472 0.577090 0.800461 -0.043352
C20   C     C_R   0.592345 0.405538 0.201968 -0.026512
C21   C     C_R   0.252693 0.649959 0.926578 0.268421
C22   C     C_3   0.896360 0.269350 0.011985 -0.124512
C23   C     C_R   0.456366 0.512686 0.840885 -0.111051
C24   C     C_3   0.074940 0.721285 0.444815 -0.103030
C25   C     C_3   0.940658 0.395548 0.593155 -0.399690
C26   C     C_3   0.331746 0.996557 0.590395 -0.357315
C27   C     C_3   0.831123 0.333877 0.227853 -0.098397
C28   C     C_3   0.661522 0.156876 0.920327 -0.325211
C29   C     C_3   0.036009 0.651758 0.968227 -0.131356
C30   C     C_3   0.196743 0.418202 0.185876 -0.107721
C31   C     C_3   0.394162 0.201282 0.862075 -0.127553
C32   C     C_R   0.409875 0.508271 0.923500 -0.030825
C33   C     C_R   0.312089 0.583900 0.966897 -0.008178
C34   C     C_R   0.462050 0.434170 0.964210 -0.019949
C35   C     C_R   0.439675 0.459919 0.047479 -0.002529
C36   C     C_R   0.333618 0.528100 0.090197 0.253657
C37   C     C_R   0.272855 0.589685 0.049631 -0.089782
H1    H     H_    0.193885 0.642010 0.083922 0.178957
H2    H     H_    0.982499 0.759152 0.451588 0.132448
H3    H     H_    0.150255 0.770553 0.399108 0.157078
H4    H     H_    0.001122 0.360078 0.624458 0.107131
H5    H     H_    0.874261 0.455080 0.638255 0.154095
H6    H     H_    0.886339 0.312745 0.568703 0.161014
H7    H     H_    0.275665 0.076007 0.620260 0.102812
H8    H     H_    0.267220 0.926722 0.563572 0.144855
H9    H     H_    0.359443 0.957532 0.637003 0.152702
H10   H     H_    0.795066 0.358054 0.292962 0.145987
H11   H     H_    0.863829 0.420966 0.197922 0.092290
H12   H     H_    0.619766 0.007139 0.434749 0.098293
H13   H     H_    0.916733 0.283275 0.217532 0.125822
H14   H     H_    0.767456 0.179288 0.900288 0.149226
H15   H     H_    0.635229 0.081019 0.959716 0.168220
H16   H     H_    0.631085 0.118007 0.866342 0.159920
H17   H     H_    0.024188 0.564310 0.996591 0.093106
H18   H     H_    0.024591 0.629859 0.907023 0.112644
H19   H     H_    0.957473 0.707953 0.003587 0.158965
H20   H     H_    0.250777 0.334709 0.168604 0.130247
H21   H     H_    0.120314 0.408905 0.154493 0.086647
H22   H     H_    0.148514 0.421764 0.250524 0.178124
H23   H     H_    0.475101 0.537980 0.194329 0.198439
H24   H     H_    0.312918 0.259846 0.885019 0.118076
H25   H     H_    0.383934 0.128177 0.902141 0.123993
H26   H     H_    0.387740 0.153169 0.803408 0.145069
H27   H     H_    0.249425 0.697007 0.813487 0.143395
H28   H     H_    0.540901 0.468411 0.807157 0.200627
H29   H     H_    0.935550 0.315738 0.061548 0.121480
H30   H     H_    0.889140 0.340014 0.974203 0.084373
H31   H     H_    0.966436 0.205689 0.974611 0.137692
H32   H     H_    0.103215 0.742132 0.501372 0.111970
O1    O     O_3   0.500000 0.500000 0.500000 -0.442053
O2    O     O_R   0.470800 0.371790 0.332500 -0.514405
O3    O     O_R   0.380610 0.619380 0.674980 -0.553137
O4    O     O_R   0.632640 0.524780 0.317540 -0.552638
O5    O     O_R   0.515950 0.484050 0.674980 -0.536809
O6    O     O_3   0.776846 0.198119 0.040354 -0.542672
O7    O     O_3   0.067755 0.592358 0.419137 -0.566643
O8    O     O_3   0.736450 0.252640 0.199905 -0.534527
O9    O     O_3   0.155195 0.722161 0.968142 -0.570047
O10   O     O_3   0.280326 0.528877 0.171272 -0.571960
O11   O     O_3   0.514499 0.274533 0.851725 -0.589716
O12   O     O_R   0.535460 0.243030 0.556410 -0.537922
O13   O     O_R   0.437420 0.784080 0.535340 -0.550664
O14   O     O_R   0.223560 0.397520 0.472140 -0.527039
O15   O     O_R   0.803560 0.575360 0.436110 -0.529115
O16   O     O_R   0.209690 0.568800 0.556400 -0.555015
O17   O     O_R   0.763190 0.458310 0.535350 -0.578570
O18   O     O_R   0.414000 0.207090 0.472140 -0.537723
O19   O     O_R   0.613120 0.765800 0.436110 -0.531952
Zn1   Zn    Zn3+2 0.577310 0.422690 0.565550 0.920667
Zn2   Zn    Zn3+2 0.403760 0.371330 0.445150 0.964038
Zn3   Zn    Zn3+2 0.634990 0.589920 0.423760 0.943390
Zn4   Zn    Zn3+2 0.383940 0.616050 0.565540 0.917924

loop_
_geom_bond_atom_site_label_1
_geom_bond_atom_site_label_2
_ccdc_geom_bond_type
C27   H11   S    
C31   H24   S    
C35   C36   A    
C1    C11   S    
C25   H6    S    
C6    C9    A    
C26   H7    S    
C7    C8    A    
C15   O12   A    
C8    C20   A    
O5    Zn1   S    
C36   C37   A    
C18   C19   S    
C5    C6    A    
C12   H27   S    
C28   H14   S    
C21   C33   A    
C29   H17   S    
C11   C25   S    
C30   H20   S    
C17   C20   S    
O13   Zn4   S    
C6    C35   A    
C34   C35   A    
C22   H29   S    
C26   H8    S    
C10   O7    S    
C29   O9    S    
O1    Zn3   S    
C21   O9    S    
O15   Zn3   S    
C27   H13   S    
O12   Zn1   S    
C2    C34   A    
C18   O5    A    
C13   C14   D    
C17   O4    A    
C31   H25   S    
O1    Zn2   S    
C22   O6    S    
O16   Zn4   S    
C24   H32   S    
C18   O3    A    
C31   H26   S    
C31   O11   S    
O4    Zn3   S    
C25   H4    S    
C5    C7    A    
C24   O7    S    
C7    O6    S    
C29   H18   S    
C3    C5    A    
C12   C21   A    
C36   O10   S    
C33   C37   A    
C32   C34   A    
C19   C23   A    
C37   H1    S    
C9    C20   A    
C4    O15   A    
O19   Zn3   S    
C30   H22   S    
C16   O13   A    
C14   C26   S    
C22   H31   S    
C13   H12   S    
C30   O10   S    
C17   O2    A    
C8    O8    S    
O18   Zn2   S    
C1    O16   A    
C4    C10   S    
C15   O18   A    
C27   H10   S    
O14   Zn2   S    
C3    C28   S    
O1    Zn4   S    
C27   O8    S    
O17   Zn1   S    
C25   H5    S    
C28   H16   S    
C29   H19   S    
C1    O14   A    
C9    H23   S    
C23   C32   A    
C23   H28   S    
C2    C3    A    
C32   C33   A    
C28   H15   S    
O2    Zn2   S    
O3    Zn4   S    
C30   H21   S    
C12   C19   A    
C24   H3    S    
C22   H30   S    
C2    O11   S    
C10   C11   D    
C26   H9    S    
O1    Zn1   S    
C4    O17   A    
C13   C16   S    
C16   O19   A    
C14   C15   S    
C24   H2    S    
