data_mof_unit_24812.cif
_audit_creation_date              2013-03-05T16:06:55-0500
_audit_creation_method            fapswitch 2.2
_symmetry_space_group_name_H-M    P1
_symmetry_Int_Tables_number       1
_space_group_crystal_system       triclinic
_cell_length_a                    10.831995
_cell_length_b                    9.516277
_cell_length_c                    10.810102
_cell_angle_alpha                 89.947453
_cell_angle_beta                  90.203798
_cell_angle_gamma                 90.035402
_cell_volume                      1114.30044944

loop_
_atom_site_label
_atom_site_type_symbol
_atom_site_description
_atom_site_fract_x
_atom_site_fract_y
_atom_site_fract_z
_atom_type_partial_charge
O1    O     O_R   0.319640 0.618740 0.499990 -0.598193
O2    O     O_R   0.680360 0.618740 0.500010 -0.602102
O3    O     O_R   0.319620 0.381170 0.499990 -0.600650
O4    O     O_R   0.680380 0.381170 0.500010 -0.561248
C1    C     C_R   0.262053 0.499932 0.499905 0.775954
C2    C     C_R   0.737941 0.499979 0.500073 0.840407
O5    O     O_R   0.499990 0.618810 0.319660 -0.579412
O6    O     O_R   0.500010 0.618810 0.680340 -0.585099
O7    O     O_R   0.499960 0.381240 0.319650 -0.542118
O8    O     O_R   0.500040 0.381240 0.680350 -0.550263
C3    C     C_R   0.504458 0.500030 0.262374 0.866914
C4    C     C_R   0.505353 0.500034 0.737640 0.872993
Cu1   Cu    Cu3+1 0.500000 0.640660 0.500000 0.965029
Cu2   Cu    Cu3+1 0.500000 0.359340 0.500000 1.021485
C5    C     C_R   0.482451 0.619149 0.063199 0.117122
C6    C     C_R   0.482868 0.619165 0.936501 0.102609
C7    C     C_R   0.520172 0.501273 0.129472 -0.271246
C8    C     C_R   0.521671 0.501672 0.870685 -0.268935
C9    C     C_R   0.579413 0.390237 0.065834 0.233730
C10   C     C_R   0.581089 0.390949 0.935233 0.240698
C11   C     C_3   0.365310 0.700677 0.928651 -0.416655
C12   C     C_3   0.364854 0.700717 0.069226 -0.437260
H1    H     H_    0.379483 0.806862 0.888133 0.222269
H2    H     H_    0.287606 0.639115 0.109748 0.189301
H3    H     H_    0.288351 0.638989 0.887232 0.191531
H4    H     H_    0.378778 0.806922 0.109732 0.217749
C13   C     C_R   0.063748 0.372222 0.499800 -0.176249
C14   C     C_R   0.936033 0.372250 0.499933 -0.098476
H5    H     H_    0.111719 0.272373 0.499639 0.151700
H6    H     H_    0.887918 0.272417 0.499902 0.164953
C15   C     C_R   0.871764 0.499974 0.500086 -0.007542
C16   C     C_R   0.128200 0.499918 0.499885 -0.023223
C17   C     C_R   0.936204 0.627661 0.500170 -0.173876
C18   C     C_R   0.063916 0.627636 0.500036 -0.176697
H7    H     H_    0.888229 0.727509 0.500332 0.157866
H8    H     H_    0.112014 0.727476 0.500067 0.153247
C19   C     C_R   0.418463 0.074453 0.428081 0.024385
C20   C     C_R   0.582032 0.074327 0.571216 0.031747
H9    H     H_    0.353244 0.130570 0.370378 0.123564
H10   H     H_    0.648212 0.130230 0.627657 0.183941
C21   C     C_R   0.418552 0.925591 0.427970 -0.006717
C22   C     C_R   0.581764 0.925535 0.571598 -0.006074
H11   H     H_    0.353416 0.869494 0.370162 0.116861
H12   H     H_    0.647228 0.869443 0.629047 0.138440
N1    N     N_R   0.500000 0.852070 0.500000 -0.170183
N2    N     N_R   0.500000 0.147940 0.500000 -0.171827
N3    N     N_R   0.641097 0.280471 0.132626 0.170402
O9    O     O_R   0.592580 0.155532 0.137966 -0.314178
O10   O     O_R   0.736085 0.310171 0.201824 -0.359829
N4    N     N_R   0.647257 0.284038 0.869576 0.145640
O11   O     O_R   0.735451 0.318919 0.794091 -0.391374
O12   O     O_R   0.619777 0.152024 0.884623 -0.331111

loop_
_geom_bond_atom_site_label_1
_geom_bond_atom_site_label_2
_geom_bond_distance
_ccdc_geom_bond_type
N4    O12   1.301072 A    
O7    Cu2   1.960519 S    
C15   C17   1.400949 A    
C6    C11   1.493572 S    
C13   H5    1.083280 S    
C21   H11   1.081816 S    
C8    C10   1.416915 A    
C9    C10   1.411997 A    
O6    C4    1.289632 A    
C1    C16   1.449889 S    
C14   H6    1.083319 S    
N4    O11   1.301282 A    
C19   N2    1.367070 A    
C5    C12   1.493739 S    
C19   H9    1.081711 S    
C21   N1    1.367122 A    
C11   C12   1.519657 S    
O5    C3    1.290381 A    
O7    C3    1.289369 A    
O2    C2    1.291182 A    
O3    Cu2   1.965015 S    
C22   H12   1.081745 S    
C19   C21   1.416611 A    
O1    C1    1.290937 A    
O8    C4    1.290655 A    
N3    O10   1.301015 A    
C20   H10   1.079898 S    
C17   C18   1.383378 A    
C20   C22   1.415943 A    
C18   H8    1.083294 S    
C11   H1    1.111747 S    
O4    Cu2   1.964759 S    
C12   H2    1.112306 S    
C20   N2    1.366703 A    
O4    C2    1.290805 A    
O1    Cu1   1.964635 S    
C7    C9    1.416634 A    
C5    C6    1.369640 A    
C2    C15   1.449571 S    
O6    Cu1   1.960361 S    
O3    C1    1.291120 A    
O5    Cu1   1.960741 S    
Cu1   N1    2.011836 S    
C6    C8    1.391826 A    
C12   H4    1.111800 S    
C9    N3    1.433503 S    
C4    C8    1.448523 S    
C13   C14   1.383416 A    
C5    C7    1.391227 A    
O2    Cu1   1.964890 S    
C11   H3    1.112307 S    
C3    C7    1.447369 S    
C10   N4    1.434715 S    
C17   H7    1.083289 S    
C13   C16   1.401080 A    
Cu1   Cu2   2.677119 S    
C14   C15   1.401088 A    
N3    O9    1.300940 A    
O8    Cu2   1.960897 S    
Cu2   N2    2.011741 S    
C22   N1    1.366588 A    
C16   C18   1.401120 A    
