data_mof_unit_35777.cif
_audit_creation_date              2012-12-11T17:34:25-0500
_audit_creation_method            fapswitch 2.2
_symmetry_space_group_name_H-M    P1
_symmetry_Int_Tables_number       1
_space_group_crystal_system       triclinic
_cell_length_a                    23.766306
_cell_length_b                    7.221763
_cell_length_c                    20.647341
_cell_angle_alpha                 89.736073
_cell_angle_beta                  105.422023
_cell_angle_gamma                 89.715334
_cell_volume                      3416.09133193

loop_
_atom_site_label
_atom_site_type_symbol
_atom_type_description
_atom_site_fract_x
_atom_site_fract_y
_atom_site_fract_z
_atom_type_partial_charge
O1    O     O_R   0.449110 0.494310 0.552140 -0.541119
O2    O     O_R   0.550890 0.994310 0.447860 -0.533439
O3    O     O_R   0.440010 0.824420 0.415850 -0.527643
O4    O     O_R   0.559990 0.324420 0.584150 -0.540306
C1    C     C_R   0.425314 0.656371 0.390919 0.737098
C2    C     C_R   0.574452 0.154700 0.609190 0.737782
O5    O     O_R   0.442260 0.824040 0.549660 -0.537344
O6    O     O_R   0.557740 0.324040 0.450340 -0.543812
O7    O     O_R   0.553160 0.993960 0.582620 -0.528015
O8    O     O_R   0.446840 0.493960 0.417380 -0.537982
C3    C     C_R   0.428549 0.655516 0.567488 0.674123
C4    C     C_R   0.571335 0.155369 0.432346 0.677530
O9    O     O_3   0.536380 0.660670 0.510660 -0.375064
O10   O     O_3   0.463620 0.160670 0.489340 -0.373960
V1    V     V_3+5 0.493250 0.935680 0.498020 1.431005
V2    V     V_3+5 0.506750 0.435680 0.501980 1.390702
C5    C     C_R   0.822604 0.910576 0.169672 -0.137881
C6    C     C_R   0.176710 0.410209 0.829288 -0.137602
H1    H     H_    0.805270 0.784577 0.185321 0.105931
H2    H     H_    0.193512 0.284136 0.812907 0.105645
C7    C     C_R   0.862033 0.898680 0.129816 -0.169320
C8    C     C_R   0.137339 0.398297 0.869230 -0.167640
H3    H     H_    0.874163 0.762958 0.115753 0.122743
H4    H     H_    0.124706 0.262510 0.882599 0.121641
C9    C     C_R   0.885651 0.059966 0.108891 -0.052714
C10   C     C_R   0.114375 0.559697 0.891074 -0.051806
C11   C     C_R   0.868278 0.233137 0.128767 -0.167136
C12   C     C_R   0.132364 0.732955 0.872049 -0.169372
H5    H     H_    0.885209 0.360733 0.113878 0.125631
H6    H     H_    0.115973 0.860644 0.887685 0.125357
C13   C     C_R   0.828904 0.244526 0.168518 -0.140769
C14   C     C_R   0.171677 0.744361 0.832217 -0.140829
H7    H     H_    0.816521 0.379388 0.183194 0.105880
H8    H     H_    0.184522 0.879330 0.818206 0.105817
C15   C     C_R   0.805946 0.083545 0.189354 0.131663
C16   C     C_R   0.193972 0.583311 0.810437 0.131872
C17   C     C_1   0.765717 0.096489 0.231178 -0.061638
C18   C     C_1   0.234104 0.596406 0.768467 -0.061463
C19   C     C_1   0.732237 0.108150 0.266274 -0.061432
C20   C     C_1   0.267476 0.608327 0.733231 -0.062334
C21   C     C_R   0.670254 0.960023 0.330416 -0.142418
C22   C     C_R   0.321325 0.463874 0.659077 -0.137323
H9    H     H_    0.683034 0.825085 0.316255 0.105283
H10   H     H_    0.302368 0.331267 0.665660 0.108378
C23   C     C_R   0.631523 0.971402 0.370948 -0.154461
C24   C     C_R   0.360013 0.475495 0.618487 -0.185704
H11   H     H_    0.615631 0.843806 0.387117 0.121927
H12   H     H_    0.369593 0.350756 0.594427 0.124164
C25   C     C_R   0.613714 0.144576 0.390288 -0.048005
C26   C     C_R   0.385871 0.645417 0.609092 -0.049843
C27   C     C_R   0.636381 0.305948 0.368179 -0.176813
C28   C     C_R   0.371123 0.803927 0.640846 -0.160150
H13   H     H_    0.624128 0.441637 0.382061 0.118559
H14   H     H_    0.390105 0.936995 0.635077 0.128591
C29   C     C_R   0.675182 0.294132 0.327558 -0.137477
C30   C     C_R   0.332248 0.791955 0.681383 -0.141199
H15   H     H_    0.691834 0.420216 0.311076 0.105946
H16   H     H_    0.321857 0.915563 0.705534 0.107708
C31   C     C_R   0.692228 0.121101 0.308362 0.131410
C32   C     C_R   0.307317 0.621711 0.690920 0.130923
C33   C     C_R   0.638981 0.100933 0.796718 -0.224339
C34   C     C_R   0.356707 0.713459 0.204344 -0.225642
H17   H     H_    0.722547 0.062483 0.909954 0.126788
H18   H     H_    0.271367 0.722258 0.091777 0.126497
H19   H     H_    0.623643 0.087186 0.841492 0.116548
H20   H     H_    0.370016 0.753576 0.159970 0.115919
C35   C     C_R   0.617307 0.142392 0.675908 -0.073129
C36   C     C_R   0.382155 0.652194 0.324285 -0.074460
C37   C     C_R   0.903526 0.070202 0.767836 -0.159864
C38   C     C_R   0.099564 0.499884 0.231369 -0.158394
C39   C     C_R   0.865676 0.090167 0.704025 -0.120273
C40   C     C_R   0.138467 0.490796 0.294862 -0.121142
C41   C     C_R   0.805591 0.103509 0.695359 -0.157420
C42   C     C_R   0.197381 0.530208 0.303875 -0.157423
C43   C     C_R   0.781428 0.096221 0.750967 0.090371
C44   C     C_R   0.219216 0.581108 0.248963 0.090804
C45   C     C_R   0.820723 0.073596 0.816584 0.065840
C46   C     C_R   0.178628 0.592961 0.183714 0.066054
C47   C     C_R   0.719691 0.109548 0.743622 0.079026
C48   C     C_R   0.279901 0.619764 0.256599 0.078359
C49   C     C_R   0.699029 0.094935 0.801925 0.098730
C50   C     C_R   0.298019 0.671911 0.198931 0.100000
C51   C     C_R   0.738272 0.072835 0.865370 -0.180496
C52   C     C_R   0.257544 0.682941 0.135876 -0.180968
C53   C     C_R   0.798056 0.063455 0.872723 -0.190414
C54   C     C_R   0.198966 0.643518 0.128248 -0.193064
C55   C     C_R   0.677528 0.135337 0.680677 -0.285414
C56   C     C_R   0.323348 0.609756 0.319240 -0.286332
C57   C     C_R   0.598039 0.123900 0.734456 0.286233
C58   C     C_R   0.398867 0.703403 0.266226 0.288352
C59   C     C_R   0.882035 0.061669 0.824534 -0.079238
C60   C     C_R   0.118569 0.551200 0.175364 -0.081974
H21   H     H_    0.689870 0.148011 0.634277 0.108988
H22   H     H_    0.312885 0.572823 0.365288 0.110942
H23   H     H_    0.950083 0.062304 0.773106 0.104587
H24   H     H_    0.054151 0.466002 0.225796 0.106466
H25   H     H_    0.779260 0.118621 0.644379 0.109731
H26   H     H_    0.224679 0.519137 0.354537 0.109663
H27   H     H_    0.883126 0.096271 0.660677 0.120965
H28   H     H_    0.122857 0.451361 0.337649 0.121099
H29   H     H_    0.826461 0.046425 0.922971 0.108543
H30   H     H_    0.169607 0.653371 0.078275 0.113661
O11   O     O_R   0.053190 0.709680 0.082610 -0.531563
O12   O     O_R   0.946810 0.209680 0.917390 -0.530318
O13   O     O_R   0.057740 0.380240 0.950340 -0.539828
O14   O     O_R   0.942260 0.880240 0.049660 -0.540356
C61   C     C_R   0.071519 0.548929 0.932550 0.674351
C62   C     C_R   0.928510 0.049026 0.067443 0.673972
O15   O     O_R   0.060000 0.379940 0.084150 -0.532580
O16   O     O_R   0.940000 0.879940 0.915850 -0.533058
O17   O     O_R   0.949110 0.210100 0.052140 -0.536965
O18   O     O_R   0.050890 0.710100 0.947860 -0.538070
C63   C     C_R   0.074900 0.547613 0.108981 0.676823
C64   C     C_R   0.925312 0.049307 0.890978 0.677973
O19   O     O_3   0.963630 0.543720 0.989330 -0.371364
O20   O     O_3   0.036370 0.043720 0.010670 -0.372350
V3    V     V_3+5 0.006750 0.268680 0.001980 1.413163
V4    V     V_3+5 0.993250 0.768680 0.998020 1.409582
N1    N     N_2   0.537360 0.120229 0.730942 -0.541319
H31   H     H_    0.526403 0.046416 0.768688 0.252847
C65   C     C_3   0.505806 0.293806 0.714548 -0.520464
H32   H     H_    0.489759 0.340598 0.757672 0.184141
H33   H     H_    0.467794 0.272306 0.670713 0.203582
H34   H     H_    0.533384 0.405348 0.702122 0.197848
N2    N     N_2   0.457863 0.749932 0.269893 -0.530934
H35   H     H_    0.463595 0.836896 0.232397 0.253657
C66   C     C_3   0.500161 0.599870 0.286190 -0.522943
H36   H     H_    0.520834 0.579106 0.244394 0.182816
H37   H     H_    0.480008 0.466784 0.295169 0.193656
H38   H     H_    0.534539 0.635857 0.332180 0.194223

loop_
_geom_bond_atom_site_label_1
_geom_bond_atom_site_label_2
_ccdc_geom_bond_type
C18   C20   T    
C20   C32   S    
C29   C31   A    
C11   H5    S    
C21   H9    S    
C61   O18   A    
C38   H24   S    
O1    C3    A    
O2    C4    A    
O16   V4    S    
C2    O7    A    
C47   C55   A    
C4    C25   S    
O15   V3    S    
C42   H26   S    
C41   H25   S    
O13   C61   A    
C42   C44   A    
C14   C16   A    
O11   C63   A    
C44   C46   A    
C55   H21   S    
C35   C57   A    
O20   V3    S    
C22   C24   A    
C23   H11   S    
C37   C39   A    
H18   C52   S    
C65   H34   S    
C57   N1    S    
C33   C57   A    
C12   H6    S    
C25   C27   A    
C36   C58   A    
C13   H7    S    
C60   C63   S    
O16   C64   A    
C27   C29   A    
O15   C63   A    
C46   C54   A    
O5    V1    S    
C34   C50   A    
C45   C53   A    
O6    V2    S    
O14   V4    S    
C41   C43   A    
O13   V3    S    
C22   H10   S    
C1    C36   S    
C49   C51   A    
C28   H14   S    
C56   H22   S    
N1    C65   S    
C24   H12   S    
C34   H20   S    
C11   C13   A    
C12   C14   A    
C21   C31   A    
C40   C42   A    
C22   C32   A    
C39   C41   A    
C37   H23   S    
C39   H27   S    
C5    C7    A    
C30   C32   A    
H17   C51   S    
C27   H13   S    
C14   H8    S    
O4    V2    S    
O5    C3    A    
C66   H37   S    
C26   C28   A    
C23   C25   A    
O6    C4    A    
O19   V4    S    
C19   C31   S    
O1    V2    S    
O2    V1    S    
C43   C45   A    
C65   H32   S    
O12   C64   A    
C48   C50   A    
C2    C35   S    
C51   C53   A    
C50   C52   A    
C7    H3    S    
N2    H35   S    
C36   C56   A    
C8    H4    S    
O4    C2    A    
C66   H36   S    
C54   H30   S    
O3    V1    S    
C47   C49   A    
O12   V3    S    
C40   H28   S    
C7    C9    A    
C45   C59   A    
C15   C17   S    
C6    C8    A    
C10   C12   A    
C38   C60   A    
C44   C48   A    
C52   C54   A    
O3    C1    A    
C10   C61   S    
C38   C40   A    
N1    H31   S    
C59   C64   S    
C9    C11   A    
C24   C26   A    
C35   C55   A    
C62   O17   A    
O17   V3    S    
C46   C60   A    
C29   H15   S    
O7    V1    S    
C66   H38   S    
C1    O8    A    
C17   C19   T    
C3    C26   S    
C33   C49   A    
O18   V4    S    
C6    C16   A    
O14   C62   A    
C34   C58   A    
C13   C15   A    
C16   C18   S    
C5    H1    S    
C58   N2    S    
C30   H16   S    
C6    H2    S    
C65   H33   S    
C53   H29   S    
O11   V4    S    
C33   H19   S    
C48   C56   A    
C8    C10   A    
O9    V2    S    
N2    C66   S    
C21   C23   A    
O10   V1    S    
O8    V2    S    
C5    C15   A    
C37   C59   A    
C43   C47   A    
C28   C30   A    
C9    C62   S    
