data_mof_unit_58379.cif
_audit_creation_date              2012-12-11T16:21:32-0500
_audit_creation_method            fapswitch 2.2
_symmetry_space_group_name_H-M    P1
_symmetry_Int_Tables_number       1
_space_group_crystal_system       triclinic
_cell_length_a                    8.613224
_cell_length_b                    16.536801
_cell_length_c                    17.303388
_cell_angle_alpha                 107.704662
_cell_angle_beta                  84.286647
_cell_angle_gamma                 97.492521
_cell_volume                      2323.14706262

loop_
_atom_site_label
_atom_site_type_symbol
_atom_type_description
_atom_site_fract_x
_atom_site_fract_y
_atom_site_fract_z
_atom_type_partial_charge
Ba1   Ba    Ba6+2 0.638770 0.457640 0.528600 1.671975
Ba2   Ba    Ba6+2 0.171410 0.542370 0.471460 1.661478
C1    C     C_3   0.780619 0.157934 0.751976 -0.248407
C2    C     C_R   0.112728 0.249305 0.480045 -0.292450
C3    C     C_2   0.517516 0.855759 0.575269 -0.089274
C4    C     C_3   0.375007 0.235382 0.665661 0.289395
C5    C     C_2   0.548070 0.773936 0.554927 0.113562
C6    C     C_2   0.817771 0.809508 0.498760 0.014581
C7    C     C_3   0.771371 0.896303 0.500590 -0.053287
C8    C     C_3   0.641891 0.926500 0.566845 0.012148
C9    C     C_2   0.901300 0.968630 0.502936 -0.049227
C10   C     C_2   0.890295 0.030088 0.466731 0.057519
C11   C     C_R   0.162450 0.077641 0.429594 0.046849
C12   C     C_3   0.817060 0.225458 0.703154 0.336321
C13   C     C_R   0.017494 0.100688 0.469003 -0.025895
C14   C     C_R   0.281693 0.138839 0.416512 -0.136865
C15   C     C_R   0.257100 0.225091 0.440436 0.056080
C16   C     C_3   0.373124 0.147434 0.679796 -0.136158
C17   C     C_R   0.991174 0.188555 0.494991 -0.046496
C18   C     C_R   0.102628 0.490336 0.723491 -0.225868
C19   C     C_R   0.956469 0.519784 0.750570 0.107112
C20   C     C_R   0.894806 0.520887 0.828823 -0.066697
C21   C     C_R   0.975246 0.486855 0.876587 -0.017129
C22   C     C_R   0.112601 0.447702 0.843971 -0.139851
C23   C     C_3   0.994778 0.276087 0.281940 0.325329
C24   C     C_R   0.175120 0.448168 0.766077 0.000230
C25   C     C_R   0.896470 0.480903 0.160516 -0.080754
C26   C     C_R   0.854512 0.494460 0.243026 -0.007957
C27   C     C_R   0.633216 0.568906 0.230310 0.054249
C28   C     C_3   0.357620 0.711936 0.765532 0.210669
C29   C     C_R   0.679028 0.556417 0.146439 -0.088593
C30   C     C_R   0.814680 0.514163 0.113040 -0.015390
C31   C     C_1   0.870459 0.501753 0.028936 0.025992
C32   C     C_1   0.917886 0.493556 0.959214 0.033640
C33   C     C_R   0.729045 0.543129 0.278549 -0.227385
C34   C     C_3   0.057902 0.206239 0.210890 -0.246098
C35   C     C_3   0.391997 0.779421 0.849466 -0.146314
C36   C     C_3   0.517362 0.301076 0.251268 0.166475
C37   C     C_3   0.560584 0.231095 0.168269 -0.101409
C38   C     C_3   0.848511 0.718606 0.667422 0.163606
C39   C     C_3   0.878725 0.817089 0.701789 -0.222805
C40   C     C_2   0.769718 0.311583 0.752463 0.531292
C41   C     C_2   0.345225 0.748634 0.923193 0.455950
C42   C     C_2   0.468737 0.381467 0.241668 0.432985
C43   C     C_2   0.598544 0.151918 0.187217 0.580851
C44   C     C_2   0.697419 0.267182 0.121032 0.514556
C45   C     C_3   0.501598 0.765585 0.276543 0.381236
C46   C     C_3   0.424597 0.199490 0.111002 -0.371486
C47   C     C_3   0.689130 0.185327 0.835005 -0.454595
C48   C     C_2   0.774680 0.851270 0.776554 0.610415
C49   C     C_2   0.048742 0.847345 0.717604 0.547108
C50   C     C_3   0.994332 0.236865 0.685570 -0.420939
C51   C     C_3   0.883404 0.234550 0.335845 -0.345544
C52   C     C_2   0.230575 0.126741 0.731935 0.505757
C53   C     C_3   0.506292 0.807453 0.368301 -0.317456
C54   C     C_3   0.403572 0.910652 0.279366 -0.384208
C55   C     C_2   0.618631 0.847883 0.177699 0.511748
C56   C     C_3   0.473286 0.828080 0.228077 -0.134323
C57   C     C_2   0.056891 0.672880 0.246549 0.533659
C58   C     C_2   0.048946 0.854095 0.219607 0.574586
C59   C     C_2   0.084570 0.338270 0.499580 0.572129
C60   C     C_3   0.760686 0.021685 0.411630 -0.297689
C61   C     C_2   0.591726 0.587441 0.092682 0.493430
C62   C     C_3   0.694645 0.569588 0.368149 -0.310104
C63   C     C_3   0.390239 0.077280 0.598253 -0.391836
C64   C     C_2   0.186026 0.694654 0.756584 0.461625
C65   C     C_3   0.424805 0.630572 0.762006 -0.332964
C66   C     C_3   0.970476 0.745532 0.298644 0.272109
C67   C     C_3   0.918972 0.799468 0.249483 -0.160555
C68   C     C_2   0.707758 0.752728 0.520402 -0.291578
H1    H     H_    0.333648 0.837618 0.856307 0.148059
H2    H     H_    0.135264 0.170333 0.232903 0.083485
H3    H     H_    0.961160 0.160541 0.179910 0.191230
H4    H     H_    0.715741 0.099103 0.713875 0.165803
H5    H     H_    0.615245 0.740042 0.253586 -0.107782
H6    H     H_    0.386745 0.793682 0.182620 0.136645
H7    H     H_    0.858975 0.716785 0.322108 -0.133066
H8    H     H_    0.859209 0.756498 0.195643 -0.002811
H9    H     H_    0.486493 0.249004 0.632190 0.148722
H10   H     H_    0.833079 0.840385 0.288506 0.078722
H11   H     H_    0.407862 0.873904 0.608590 0.099901
H12   H     H_    0.519104 0.799763 0.850539 0.120659
H13   H     H_    0.390200 0.118153 0.383819 0.088693
H14   H     H_    0.737637 0.689915 0.515782 0.041323
H15   H     H_    0.999059 0.975037 0.540355 0.103350
H16   H     H_    0.993456 0.443920 0.133027 0.111676
H17   H     H_    0.172083 0.418734 0.879424 0.103962
H18   H     H_    0.280881 0.233248 0.625766 -0.022080
H19   H     H_    0.786950 0.549301 0.852776 0.094415
H20   H     H_    0.164039 0.504313 0.670970 0.095191
H21   H     H_    0.476075 0.149364 0.713805 0.097867
H22   H     H_    0.795816 0.337557 0.815759 -0.063656
H23   H     H_    0.622785 0.319619 0.287181 -0.004240
H24   H     H_    0.222641 0.734504 0.940883 0.087239
H25   H     H_    0.436341 0.430833 0.295981 0.034120
H26   H     H_    0.555825 0.140606 0.244629 -0.009264
H27   H     H_    0.689439 0.325366 0.105658 0.029121
H28   H     H_    0.467467 0.159142 0.050577 0.144668
H29   H     H_    0.370802 0.251714 0.099930 0.162140
H30   H     H_    0.333243 0.158058 0.134707 0.124963
H31   H     H_    0.765794 0.230038 0.880831 0.143577
H32   H     H_    0.583935 0.216229 0.832256 0.133584
H33   H     H_    0.649984 0.128303 0.855775 0.186725
H34   H     H_    0.726294 0.701270 0.649423 0.029266
H35   H     H_    0.784600 0.832775 0.830781 0.063369
H36   H     H_    0.135258 0.839289 0.666986 0.039910
H37   H     H_    0.032668 0.175983 0.644819 0.122575
H38   H     H_    0.030020 0.288913 0.657580 0.091286
H39   H     H_    0.053925 0.255360 0.743344 0.068938
H40   H     H_    0.846419 0.283166 0.391628 0.128076
H41   H     H_    0.777419 0.202096 0.304970 0.114615
H42   H     H_    0.940834 0.185578 0.350325 0.044094
H43   H     H_    0.211746 0.168017 0.793650 0.030269
H44   H     H_    0.553937 0.764590 0.395634 0.067579
H45   H     H_    0.931107 0.697002 0.613519 0.053600
H46   H     H_    0.583900 0.867389 0.381621 0.049016
H47   H     H_    0.387126 0.820129 0.396989 0.160120
H48   H     H_    0.370572 0.945422 0.238698 0.169013
H49   H     H_    0.297391 0.895775 0.316407 0.160205
H50   H     H_    0.489185 0.954350 0.320682 0.130117
H51   H     H_    0.661679 0.797065 0.127077 0.023283
H52   H     H_    0.087565 0.627195 0.274214 0.056199
H53   H     H_    0.137289 0.824658 0.174430 0.029322
H54   H     H_    0.043451 0.363491 0.455618 -0.002799
H55   H     H_    0.773722 0.074489 0.383648 0.142364
H56   H     H_    0.850980 0.845544 0.655350 0.020508
H57   H     H_    0.768639 0.963582 0.359758 0.136716
H58   H     H_    0.644261 0.019939 0.445269 0.096948
H59   H     H_    0.652812 0.603329 0.040436 0.002882
H60   H     H_    0.673173 0.636933 0.386568 0.057149
H61   H     H_    0.600364 0.525837 0.387001 0.126664
H62   H     H_    0.791817 0.574552 0.403028 0.168272
H63   H     H_    0.512606 0.083116 0.570861 0.155787
H64   H     H_    0.307654 0.082215 0.554733 0.113563
H65   H     H_    0.365627 0.013082 0.607237 0.158675
H66   H     H_    0.145704 0.661715 0.697169 -0.021175
H67   H     H_    0.889729 0.135874 0.763642 0.166491
H68   H     H_    0.418034 0.584557 0.700366 0.121619
H69   H     H_    0.547499 0.648238 0.780403 0.161145
H70   H     H_    0.359123 0.600000 0.806318 0.061018
H71   H     H_    0.096246 0.312868 0.316292 0.036513
H72   H     H_    0.123343 0.235969 0.166364 0.134398
O1    O     O_2   0.563480 0.287900 0.421550 -0.474777
O2    O     O_2   0.313007 0.537901 0.236240 -0.386870
O3    O     O_3   0.380936 0.697982 0.262314 -0.555508
O4    O     O_3   0.344560 0.396140 0.441010 -0.492887
O5    O     O_3   0.942720 0.544140 0.599330 -0.481995
O6    O     O_2   0.129060 0.458130 0.306750 -0.454570
O7    O     O_3   0.911604 0.325109 0.250322 -0.630548
O8    O     O_2   0.143860 0.812486 0.508166 -0.499227
O9    O     O_3   0.065035 0.796808 0.361578 -0.613811
O10   O     O_3   0.805120 0.340890 0.569250 -0.419884
O11   O     O_2   0.668099 0.192393 0.488035 -0.505226
O12   O     O_3   0.865665 0.679747 0.726975 -0.608067
O13   O     O_3   0.391051 0.267202 0.293995 -0.682020
O14   O     O_3   0.731616 0.192863 0.631459 -0.612309
O15   O     O_2   0.681260 0.541920 0.693290 -0.456323
O16   O     O_3   0.399420 0.384560 0.615960 -0.443074
O17   O     O_2   0.494206 0.455494 0.766922 -0.426369
O18   O     O_2   0.708125 0.354716 0.721214 -0.527404
O19   O     O_2   0.445577 0.740442 0.964596 -0.565108
O20   O     O_2   0.460375 0.392037 0.175464 -0.615899
O21   O     O_2   0.663535 0.095846 0.136034 -0.504128
O22   O     O_2   0.815586 0.230740 0.096452 -0.541517
O23   O     O_3   0.361111 0.300230 0.740215 -0.623669
O24   O     O_2   0.682111 0.901663 0.777538 -0.577763
O25   O     O_2   0.091036 0.883912 0.786092 -0.545233
O26   O     O_2   0.136925 0.063729 0.706678 -0.592687
O27   O     O_2   0.688384 0.919720 0.191958 -0.526114
O28   O     O_2   0.092360 0.663624 0.174444 -0.583206
O29   O     O_2   0.052229 0.931874 0.243048 -0.572908
O30   O     O_2   0.114066 0.386168 0.565693 -0.603219
O31   O     O_2   0.450989 0.593048 0.103614 -0.500084
O32   O     O_2   0.092406 0.715156 0.815193 -0.602227
O33   O     O_2   0.246830 0.712160 0.578490 -0.501596
O34   O     O_3   0.465730 0.603870 0.559050 -0.502864
O35   O     O_3   0.005180 0.659120 0.430820 -0.508517
O36   O     O_3   0.433621 0.747728 0.705206 -0.635380
O37   O     O_3   0.867570 0.455870 0.400730 -0.507528
O38   O     O_3   0.410870 0.615450 0.384100 -0.498904
P1    P     P_3+3 0.397200 0.301470 0.401420 0.948920
P2    P     P_3+3 0.862850 0.568080 0.686620 1.043911
P3    P     P_3+3 0.355946 0.398280 0.720851 1.020498
P4    P     P_3+3 0.413100 0.698540 0.598650 0.964915
P5    P     P_3+3 0.439811 0.607180 0.278876 1.041162
P6    P     P_3+3 0.801539 0.228805 0.546405 0.959288
P7    P     P_3+3 0.944679 0.434709 0.299294 0.935594
P8    P     P_3+3 0.008209 0.770344 0.452077 0.935536

loop_
_geom_bond_atom_site_label_1
_geom_bond_atom_site_label_2
_ccdc_geom_bond_type
C51   H40   S    
C45   O3    S    
Ba1   O34   S    
C58   H53   S    
C49   O25   D    
C5    C68   S    
Ba2   O37   S    
C1    C47   S    
C56   H6    S    
C6    P8    S    
C16   C63   S    
C13   C17   A    
O35   P8    S    
Ba2   O38   S    
C5    P4    S    
C59   H54   S    
C16   H21   S    
O1    P1    D    
Ba1   O16   S    
C23   C51   S    
C17   P6    S    
O8    P8    D    
C36   C37   S    
Ba2   O33   S    
C38   H45   S    
O37   P7    S    
O11   P6    D    
Ba2   O6    S    
C52   H43   S    
C41   H24   S    
C4    H18   S    
Ba1   O10   S    
C23   O7    S    
Ba1   Ba2   S    
C65   H68   S    
C1    H4    S    
C34   H72   S    
Ba2   O34   S    
C3    H11   S    
C2    C17   A    
C12   C50   S    
C62   H62   S    
C26   C33   A    
C27   P5    S    
C66   C67   S    
C48   O24   D    
C48   H35   S    
C21   C22   A    
C10   C13   S    
C33   C62   S    
C1    H67   S    
Ba2   O35   S    
C57   O28   D    
C68   H14   S    
O16   P3    S    
C28   C65   S    
C37   C43   S    
C24   P3    S    
C51   H41   S    
C57   H52   S    
C4    O23   S    
C44   O22   D    
C19   C20   A    
C54   H50   S    
C38   O12   S    
C67   H8    S    
O9    P8    S    
C42   O20   D    
C36   O13   S    
C46   H30   S    
C4    H9    S    
C7    C8    S    
C28   C64   S    
C61   O31   D    
C55   O27   D    
O2    P5    D    
C19   P2    S    
C4    C16   S    
C23   H71   S    
O23   P3    S    
C29   C61   S    
C50   H37   S    
O10   P6    S    
C34   H3    S    
C26   P7    S    
C52   O26   D    
C47   H32   S    
C3    C5    D    
Ba1   P1    S    
C6    C7    S    
Ba2   O5    S    
C18   H20   S    
C2    C59   S    
C14   H13   S    
C28   C35   S    
O3    P5    S    
O6    P7    D    
C35   C41   S    
C25   H16   S    
C36   C42   S    
Ba1   O1    S    
C57   C66   S    
C38   H34   S    
C10   C60   S    
C29   C30   A    
C62   H61   S    
C9    C10   D    
C21   C32   S    
C31   C32   T    
C28   O36   S    
C59   O30   D    
Ba2   P4    S    
C50   H39   S    
C65   H70   S    
C7    C9    S    
C63   H65   S    
C1    C12   S    
C37   C44   S    
C64   H66   S    
C2    C15   A    
C41   O19   D    
O5    P2    S    
C38   C39   S    
C44   H27   S    
C62   H60   S    
O7    P7    S    
C35   H1    S    
C54   H49   S    
C35   H12   S    
Ba1   O5    S    
O15   P2    D    
C39   C48   S    
C65   H69   S    
C51   H42   S    
C45   C53   S    
C53   H47   S    
C66   H7    S    
O34   P4    S    
C46   H29   S    
O4    P1    S    
C12   O14   S    
C25   C30   A    
C58   O29   D    
C54   H48   S    
C39   H56   S    
C40   O18   D    
C63   H64   S    
C22   C24   A    
C37   C46   S    
C47   H33   S    
C60   H55   S    
Ba1   P2    S    
O13   P1    S    
C53   H44   S    
O14   P6    S    
Ba2   O4    S    
C46   H28   S    
C27   C33   A    
C6    C68   D    
C12   C40   S    
C30   C31   S    
C11   C13   A    
C43   O21   D    
C45   H5    S    
C3    C8    S    
C27   C29   A    
C42   H25   S    
C45   C56   S    
C60   H58   S    
Ba1   O37   S    
C55   C56   S    
C14   C15   A    
C18   C24   A    
C58   C67   S    
C9    H15   S    
C49   H36   S    
O12   P2    S    
C36   H23   S    
Ba1   O15   S    
C20   H19   S    
C54   C56   S    
C40   H22   S    
C61   H59   S    
C22   H17   S    
C63   H63   S    
O38   P5    S    
C16   C52   S    
C23   C34   S    
C55   H51   S    
C15   P1    S    
C60   H57   S    
Ba1   O4    S    
C18   C19   A    
C50   H38   S    
C53   H46   S    
C11   C14   A    
C25   C26   A    
C66   O9    S    
C20   C21   A    
C64   O32   D    
C67   H10   S    
O17   P3    D    
C43   H26   S    
C39   C49   S    
O36   P4    S    
C34   H2    S    
C47   H31   S    
O33   P4    D    
