data_mof_unit_42538.cif
_audit_creation_date              2013-03-05T15:44:58-0500
_audit_creation_method            fapswitch 2.2
_symmetry_space_group_name_H-M    P1
_symmetry_Int_Tables_number       1
_space_group_crystal_system       triclinic
_cell_length_a                    10.969795
_cell_length_b                    11.015964
_cell_length_c                    18.814869
_cell_angle_alpha                 90.443059
_cell_angle_beta                  90.291407
_cell_angle_gamma                 119.207351
_cell_volume                      1984.40902324

loop_
_atom_site_label
_atom_site_type_symbol
_atom_site_description
_atom_site_fract_x
_atom_site_fract_y
_atom_site_fract_z
_atom_type_partial_charge
O1    O     O_R   0.766500 0.250040 0.579790 -0.513317
O2    O     O_R   0.798570 0.516780 0.574780 -0.542431
C1    C     C_R   0.868887 0.637645 0.604751 0.541899
O3    O     O_R   0.984000 0.732950 0.581090 -0.507532
O4    O     O_R   0.218600 0.700890 0.574760 -0.506451
C2    C     C_R   0.274521 0.634523 0.602355 0.553303
O5    O     O_R   0.249390 0.515350 0.579940 -0.539287
O6    O     O_R   0.982790 0.280900 0.573700 -0.503481
C3    C     C_R   0.889645 0.294456 0.610258 0.548109
O7    O     O_R   0.766600 0.251130 0.419260 -0.477683
O8    O     O_R   0.798660 0.517790 0.425980 -0.457432
C4    C     C_R   0.863362 0.639864 0.398516 0.576784
O9    O     O_R   0.984100 0.734040 0.420570 -0.459324
O10   O     O_R   0.218690 0.701900 0.425960 -0.486224
C5    C     C_R   0.208098 0.596705 0.388942 0.551000
O11   O     O_R   0.249490 0.516440 0.419420 -0.471510
O12   O     O_R   0.982880 0.281910 0.424890 -0.501330
C6    C     C_R   0.860670 0.224414 0.397589 0.568341
Cr1   Cr    Cr6+3 0.791660 0.390250 0.499930 1.078801
Cr2   Cr    Cr6+3 0.098520 0.708290 0.500540 1.075450
Cr3   Cr    Cr6+3 0.109770 0.401430 0.499480 1.062711
O13   O     O_3   0.999980 0.499990 0.499980 -0.325335
C7    C     C_R   0.317329 0.773837 0.712090 -0.144334
H1    H     H_    0.288258 0.843554 0.686461 0.127426
C8    C     C_R   0.328511 0.776023 0.785741 -0.134403
H2    H     H_    0.313512 0.848881 0.816979 0.190873
C9    C     C_R   0.363706 0.686446 0.819768 0.038509
C10   C     C_R   0.389606 0.594918 0.779216 -0.137670
H3    H     H_    0.414134 0.522590 0.804180 0.154946
C11   C     C_R   0.382147 0.593690 0.706256 -0.135806
H4    H     H_    0.399927 0.519062 0.676838 0.125028
C12   C     C_R   0.336904 0.676720 0.672466 0.038329
C13   C     C_R   0.834312 0.165818 0.825661 0.001540
C14   C     C_R   0.084605 0.262722 0.847717 0.254145
C15   C     C_R   0.201795 0.261955 0.820526 0.243799
C16   C     C_R   0.217353 0.266286 0.746695 -0.170690
C17   C     C_R   0.120351 0.275536 0.701485 -0.147135
C18   C     C_R   0.994507 0.262655 0.728553 -0.027749
C19   C     C_R   0.971894 0.234836 0.801867 -0.021594
H5    H     H_    0.309787 0.273408 0.724255 0.123801
C20   C     C_R   0.764220 0.247784 0.723528 0.010172
C21   C     C_R   0.726018 0.164695 0.782957 0.018126
C22   C     C_R   0.667046 0.283520 0.695329 -0.071472
C23   C     C_R   0.527263 0.208739 0.709592 -0.089908
C24   C     C_R   0.482686 0.106616 0.759547 -0.064660
C25   C     C_R   0.580372 0.083769 0.796041 -0.053592
C26   C     C_R   0.887816 0.272954 0.688160 -0.019044
H6    H     H_    0.147471 0.289260 0.646455 0.189349
H7    H     H_    0.539148 0.998946 0.831832 0.152597
H8    H     H_    0.454651 0.225461 0.678220 0.097560
H9    H     H_    0.694273 0.359207 0.656241 0.167438
H10   H     H_    0.372758 0.048344 0.770182 0.168967
C27   C     C_R   0.712591 0.580344 0.709345 -0.173847
H11   H     H_    0.620567 0.523312 0.676213 0.118396
C28   C     C_R   0.700592 0.574342 0.782905 -0.163285
H12   H     H_    0.600118 0.516171 0.805833 0.186246
C29   C     C_R   0.817428 0.649294 0.826793 0.031425
C30   C     C_R   0.950360 0.720265 0.796297 0.209060
C31   C     C_R   0.962159 0.725766 0.723272 -0.116015
H13   H     H_    0.065128 0.783321 0.701180 0.142033
C32   C     C_R   0.844339 0.653925 0.679234 -0.009987
C33   C     C_R   0.233241 0.513717 0.270589 -0.106844
H14   H     H_    0.213512 0.417700 0.295149 0.173027
C34   C     C_R   0.254416 0.528909 0.197543 0.208218
C35   C     C_R   0.298347 0.661217 0.166262 0.000051
C36   C     C_R   0.275252 0.757077 0.204385 -0.126118
H15   H     H_    0.286634 0.848815 0.178148 0.218981
C37   C     C_R   0.241444 0.735865 0.276979 -0.111904
H16   H     H_    0.227401 0.812934 0.306329 0.219916
C38   C     C_R   0.232551 0.618849 0.311722 -0.041693
C39   C     C_R   0.698222 0.085481 0.304246 -0.070816
H17   H     H_    0.615100 0.070616 0.339920 0.209467
C40   C     C_R   0.672846 0.068873 0.231376 0.188146
C41   C     C_R   0.783537 0.077434 0.186704 -0.021813
C42   C     C_R   0.914091 0.114860 0.217865 -0.138305
H18   H     H_    0.998222 0.119130 0.186564 0.216965
C43   C     C_R   0.940807 0.156374 0.288641 -0.087783
H19   H     H_    0.045436 0.197830 0.309784 0.202976
C44   C     C_R   0.833027 0.146156 0.331266 0.000452
C45   C     C_R   0.901652 0.788363 0.294533 0.145296
C46   C     C_R   0.903115 0.790660 0.221382 -0.182137
H20   H     H_    0.971983 0.888646 0.196532 0.191313
C47   C     C_R   0.813023 0.673345 0.180609 -0.061012
C48   C     C_R   0.719556 0.549321 0.214302 0.157478
C49   C     C_R   0.714893 0.546442 0.289129 0.142401
C50   C     C_R   0.815874 0.662112 0.329023 -0.028413
O14   O     O_R   0.895110 0.806860 0.920430 -0.431592
O15   O     O_R   0.872260 0.046970 0.925000 -0.450502
C51   C     C_R   0.799191 0.094213 0.893322 0.573513
O16   O     O_R   0.691430 0.085060 0.918550 -0.506688
O17   O     O_R   0.451490 0.822460 0.925250 -0.515424
C52   C     C_R   0.400222 0.701990 0.894971 0.581890
O18   O     O_R   0.413330 0.603360 0.920440 -0.468070
O19   O     O_R   0.676110 0.626250 0.926750 -0.499880
C53   C     C_R   0.797692 0.689728 0.898054 0.571075
O20   O     O_R   0.895350 0.809870 0.080950 -0.518256
O21   O     O_R   0.872490 0.049760 0.073800 -0.457896
C54   C     C_R   0.766386 0.043938 0.110127 0.543871
O22   O     O_R   0.691680 0.088070 0.079070 -0.396517
O23   O     O_R   0.451720 0.825250 0.074050 -0.502527
C55   C     C_R   0.387086 0.700340 0.101322 0.555788
O24   O     O_R   0.413580 0.606370 0.080960 -0.435570
O25   O     O_R   0.676340 0.629040 0.075550 -0.451869
C56   C     C_R   0.797455 0.697753 0.105667 0.573062
Cr4   Cr    Cr6+3 0.874790 0.925890 0.000070 1.173249
Cr5   Cr    Cr6+3 0.574120 0.948670 0.999300 1.147747
Cr6   Cr    Cr6+3 0.551420 0.625320 0.000920 1.186169
O26   O     O_3   0.666780 0.833290 0.000090 -0.361250
N1    N     N_R   0.073115 0.796220 0.839057 0.056551
O27   O     O_R   0.096454 0.736253 0.892784 -0.306414
O28   O     O_R   0.143159 0.930938 0.834047 -0.348994
N2    N     N_R   0.225159 0.408050 0.155557 0.099208
O29   O     O_R   0.243343 0.309546 0.182346 -0.277022
O30   O     O_R   0.156150 0.384544 0.095998 -0.232133
N3    N     N_R   0.539416 0.054560 0.208242 0.078189
O31   O     O_R   0.445720 0.032459 0.256104 -0.315806
O32   O     O_R   0.525227 0.106761 0.149301 -0.193798
N4    N     N_R   0.990713 0.914694 0.333134 0.084139
O33   O     O_R   0.945844 0.947357 0.390173 -0.325993
O34   O     O_R   0.115641 0.999250 0.310416 -0.301700
N5    N     N_R   0.634069 0.426506 0.172683 0.125682
O35   O     O_R   0.687715 0.392933 0.119571 -0.257785
O36   O     O_R   0.502448 0.349103 0.186629 -0.157946
N6    N     N_R   0.609651 0.426453 0.324494 0.127592
O37   O     O_R   0.599377 0.305185 0.313802 -0.240600
O38   O     O_R   0.530215 0.440155 0.371347 -0.297361
N7    N     N_R   0.303474 0.256916 0.867371 0.110215
O39   O     O_R   0.428142 0.292456 0.845261 -0.385441
O40   O     O_R   0.267421 0.201632 0.929940 -0.205826
Cl1   Cl    Cl    0.091903 0.330545 0.934215 -0.416561

loop_
_geom_bond_atom_site_label_1
_geom_bond_atom_site_label_2
_geom_bond_distance
_ccdc_geom_bond_type
C2    C12   1.447535 S    
C28   H12   1.063648 S    
C55   O24   1.261518 A    
C30   N1    1.428159 S    
C20   C21   1.381997 A    
C36   C37   1.408257 A    
C15   C16   1.398762 A    
C35   C55   1.495661 S    
C22   C23   1.369934 A    
N2    O30   1.300556 A    
O21   C54   1.327382 A    
C41   C54   1.472640 S    
O4    Cr2   1.944143 S    
C43   H19   1.079427 S    
C25   H7    1.063737 S    
O8    Cr1   1.960042 S    
C17   C18   1.415033 A    
C13   C21   1.425749 A    
C10   H3    1.068447 S    
N1    O28   1.300664 A    
C21   C25   1.423144 A    
O4    C2    1.273064 A    
C34   N2    1.436568 S    
C1    C32   1.454526 S    
C5    O11   1.309128 A    
C54   O22   1.279743 A    
C33   C38   1.391038 A    
C49   N6    1.433476 S    
C14   C15   1.389843 A    
C40   C41   1.445547 A    
O22   Cr5   2.070212 S    
N4    O33   1.302183 A    
O23   C55   1.312201 A    
C33   C34   1.392723 A    
C37   H16   1.081990 S    
C27   C32   1.392439 A    
O6    C3    1.301508 A    
N3    O32   1.296215 A    
O14   C53   1.274945 A    
C45   C50   1.408461 A    
Cr6   O26   2.005396 S    
O21   Cr4   1.947226 S    
C27   C28   1.389958 A    
C36   H15   1.079705 S    
C31   H13   1.077296 S    
Cr3   O13   1.976246 S    
C20   C22   1.407054 A    
O17   Cr5   1.951774 S    
C39   C44   1.383639 A    
N2    O29   1.300000 A    
C46   C47   1.402083 A    
C46   H20   1.081679 S    
C43   C44   1.391006 A    
C20   C26   1.415301 A    
Cr4   O26   1.993906 S    
C45   N4    1.438375 S    
O19   Cr6   1.955613 S    
C31   C32   1.401432 A    
O1    Cr1   2.084119 S    
C47   C56   1.462154 S    
C14   C19   1.407708 A    
O10   Cr2   1.954372 S    
C16   H5    1.067621 S    
Cr1   O13   1.996877 S    
O1    C3    1.317432 A    
C48   C49   1.409091 A    
O16   Cr5   2.095216 S    
C41   C42   1.405788 A    
O17   C52   1.287890 A    
C39   C40   1.390406 A    
C6    C44   1.454881 S    
C24   H10   1.074824 S    
C48   N5    1.435596 S    
C27   H11   1.082106 S    
O12   Cr3   1.950267 S    
C42   H18   1.079061 S    
N7    O40   1.301508 A    
C33   H14   1.079033 S    
C13   C51   1.454371 S    
C47   C48   1.404493 A    
O14   Cr4   2.067008 S    
O7    Cr1   2.067987 S    
C7    H1    1.080384 S    
O12   C6    1.273405 A    
C18   C26   1.442943 A    
C9    C52   1.454424 S    
C13   C19   1.395904 A    
O15   C51   1.294452 A    
C17   H6    1.070077 S    
C15   N7    1.440558 S    
C42   C43   1.387123 A    
C49   C50   1.418917 A    
Cr2   O13   2.003167 S    
C3    C26   1.485215 S    
C28   C29   1.397193 A    
C30   C31   1.379708 A    
N7    O39   1.297054 A    
O24   Cr6   2.077929 S    
C9    C10   1.396201 A    
C23   C24   1.368310 A    
O20   Cr4   2.075562 S    
N6    O38   1.301288 A    
C23   H8    1.075589 S    
C5    C38   1.479167 S    
C16   C17   1.401502 A    
O9    Cr2   2.062685 S    
O2    Cr1   1.948665 S    
C45   C46   1.376771 A    
O6    Cr3   1.974015 S    
O8    C4    1.289245 A    
N5    O35   1.301674 A    
O11   Cr3   2.093129 S    
C2    O5    1.270578 A    
C8    C9    1.382651 A    
O23   Cr5   1.973956 S    
C40   N3    1.457381 S    
C4    C50   1.470924 S    
C7    C12   1.399981 A    
O20   C56   1.270608 A    
O2    C1    1.291272 A    
C8    H2    1.067350 S    
C39   H17   1.082114 S    
O5    Cr3   2.069687 S    
N1    O27   1.302509 A    
C34   C35   1.426048 A    
C11   C12   1.391365 A    
O15   Cr4   1.959502 S    
C11   H4    1.082041 S    
C22   H9    1.045911 S    
C29   C30   1.403466 A    
C18   C19   1.412105 A    
Cr5   O26   1.977350 S    
O7    C6    1.271436 A    
C10   C11   1.374321 A    
C52   O18   1.261201 A    
C7    C8    1.389528 A    
O19   C53   1.289298 A    
N4    O34   1.301827 A    
N5    O36   1.298621 A    
O3    Cr2   2.072414 S    
C24   C25   1.393375 A    
C4    O9    1.284298 A    
C14   Cl1   1.770523 S    
C37   C38   1.410467 A    
C35   C36   1.394646 A    
C29   C53   1.459715 S    
O25   C56   1.289756 A    
O10   C5    1.302596 A    
O25   Cr6   1.943170 S    
N3    O31   1.302002 A    
C51   O16   1.234099 A    
O18   Cr6   2.063841 S    
C1    O3    1.270466 A    
N6    O37   1.298635 A    
