data_mof_unit_48723.cif
_audit_creation_date              2012-10-26T17:11:02-0400
_audit_creation_method            fapswitch 2.2
_symmetry_space_group_name_H-M    P1
_symmetry_Int_Tables_number       1
_space_group_crystal_system       triclinic
_cell_length_a                    27.981634
_cell_length_b                    18.808327
_cell_length_c                    16.810696
_cell_angle_alpha                 89.99579
_cell_angle_beta                  62.610226
_cell_angle_gamma                 89.99106
_cell_volume                      7855.46257705

loop_
_atom_site_label
_atom_site_type_symbol
_atom_type_description
_atom_site_fract_x
_atom_site_fract_y
_atom_site_fract_z
_atom_type_partial_charge
C1    C     C_R   0.296139 0.730975 0.328761 0.555831
C2    C     C_R   0.462936 0.123267 0.457512 -0.126097
C3    C     C_R   0.925168 0.095438 0.067282 0.556367
C4    C     C_R   0.424312 0.406089 0.068119 0.558408
C5    C     C_R   0.574792 0.595497 0.932754 0.556521
C6    C     C_R   0.575747 0.406199 0.931816 0.558775
C7    C     C_R   0.425087 0.595306 0.067362 0.556107
C8    C     C_R   0.048144 0.498521 0.507380 0.021179
C9    C     C_R   0.950572 0.498500 0.497054 0.024184
C10   C     C_R   0.548872 0.998699 0.504874 0.021687
C11   C     C_R   0.451310 0.998678 0.494555 0.021693
C12   C     C_R   0.021448 0.562933 0.511966 -0.008171
C13   C     C_R   0.441240 0.873823 0.531887 -0.127619
C14   C     C_R   0.972592 0.434306 0.508328 -0.012070
C15   C     C_R   0.977573 0.562854 0.491507 -0.007592
C16   C     C_R   0.025449 0.434139 0.498385 -0.025122
C17   C     C_R   0.521996 0.063090 0.510033 -0.008341
C18   C     C_R   0.473689 0.934466 0.504735 -0.007451
C19   C     C_R   0.478119 0.063090 0.489544 -0.008339
C20   C     C_R   0.526606 0.934497 0.494407 -0.007534
C21   C     C_R   0.128947 0.435550 0.489188 -0.030567
C22   C     C_R   0.883302 0.560987 0.467403 0.026081
C23   C     C_R   0.870205 0.435414 0.513296 0.025704
C24   C     C_R   0.537105 0.123231 0.542230 -0.125999
C25   C     C_R   0.116290 0.561279 0.534358 0.031660
C26   C     C_R   0.629331 0.935495 0.488014 0.025451
C27   C     C_R   0.383576 0.061174 0.466259 0.026322
C28   C     C_R   0.370830 0.935461 0.511597 0.025551
C29   C     C_R   0.616483 0.061170 0.533510 0.026257
C30   C     C_R   0.177364 0.435407 0.497384 -0.031672
C31   C     C_R   0.828876 0.563253 0.479614 -0.000954
C32   C     C_R   0.822108 0.435307 0.504149 0.005349
C33   C     C_R   0.170888 0.563404 0.521251 0.004531
C34   C     C_R   0.677652 0.935356 0.496482 0.005402
C35   C     C_R   0.057654 0.373163 0.472409 -0.066720
C36   C     C_R   0.329036 0.063334 0.479065 -0.001809
C37   C     C_R   0.322424 0.935344 0.503366 0.005437
C38   C     C_R   0.670998 0.063330 0.520844 -0.001101
C39   C     C_R   0.202219 0.500528 0.494164 0.037123
C40   C     C_R   0.797443 0.500460 0.506627 0.026679
C41   C     C_R   0.702392 0.000493 0.493722 0.026640
C42   C     C_R   0.297659 0.000496 0.506226 0.026003
C43   C     C_R   0.097873 0.498472 0.510570 -0.044785
C44   C     C_R   0.901299 0.498312 0.492342 -0.056225
C45   C     C_R   0.598284 0.998463 0.509083 -0.056498
C46   C     C_R   0.962683 0.622893 0.458774 -0.126324
C47   C     C_R   0.401849 0.998441 0.490517 -0.056400
C48   C     C_R   0.612469 0.876900 0.453515 0.260508
C49   C     C_R   0.419948 0.119738 0.435527 0.265426
C50   C     C_R   0.387857 0.876794 0.545760 0.260504
C51   C     C_R   0.580078 0.119706 0.564261 0.265464
C52   C     C_R   0.111027 0.376428 0.456609 0.260464
C53   C     C_R   0.919801 0.619385 0.436546 0.265400
C54   C     C_R   0.886804 0.376818 0.548210 0.262173
C55   C     C_R   0.079942 0.619879 0.565074 0.263632
C56   C     C_R   0.939952 0.373834 0.535543 -0.128079
C57   C     C_R   0.036826 0.623278 0.543403 -0.127141
C58   C     C_R   0.224634 0.770861 0.949836 0.066363
C59   C     C_R   0.781422 0.242207 0.045966 0.067716
C60   C     C_R   0.775181 0.771201 0.050287 0.066283
C61   C     C_R   0.704150 0.269531 0.671197 0.576729
C62   C     C_R   0.218643 0.241981 0.954017 0.066313
C63   C     C_R   0.724833 0.271247 0.949690 0.066263
C64   C     C_R   0.281154 0.741708 0.046190 0.068019
C65   C     C_R   0.275322 0.270837 0.050187 0.066061
C66   C     C_R   0.718523 0.742242 0.954103 0.067825
C67   C     C_R   0.273938 0.804703 0.926779 -0.059756
C68   C     C_R   0.732220 0.208216 0.068789 -0.060538
C69   C     C_R   0.726195 0.805750 0.072769 -0.059638
C70   C     C_R   0.267581 0.207401 0.931677 -0.061670
C71   C     C_R   0.773950 0.305492 0.926968 -0.059599
C72   C     C_R   0.703878 0.730941 0.671235 0.555898
C73   C     C_R   0.231767 0.708114 0.069353 -0.060641
C74   C     C_R   0.226460 0.305645 0.072443 -0.056009
C75   C     C_R   0.767591 0.707937 0.931527 -0.060374
C76   C     C_R   0.302111 0.790305 0.975074 -0.059499
C77   C     C_R   0.703935 0.222771 0.020838 -0.060245
C78   C     C_R   0.697962 0.791468 0.024539 -0.059331
C79   C     C_R   0.295910 0.221857 0.979581 -0.060169
C80   C     C_R   0.802152 0.291166 0.975241 -0.059283
C81   C     C_R   0.203523 0.722718 0.021345 -0.060181
C82   C     C_R   0.198212 0.291406 0.024229 -0.056112
C83   C     C_R   0.295840 0.269551 0.328811 0.553405
C84   C     C_R   0.795911 0.722453 0.979428 -0.060097
C85   C     C_R   0.153252 0.841414 0.938470 0.071141
C86   C     C_R   0.852954 0.170018 0.055123 0.074558
C87   C     C_R   0.846786 0.841393 0.061420 0.071498
C88   C     C_R   0.146911 0.170171 0.945041 0.074344
C89   C     C_R   0.653329 0.341581 0.938416 0.071423
C90   C     C_R   0.352503 0.669285 0.055587 0.073829
C91   C     C_R   0.347019 0.340950 0.061126 0.070200
C92   C     C_R   0.646856 0.670284 0.945084 0.074714
C93   C     C_R   0.122386 0.857909 0.893322 -0.013993
C94   C     C_R   0.796134 0.230963 0.328761 0.556167
C95   C     C_R   0.880229 0.146765 0.104086 -0.013574
C96   C     C_R   0.877625 0.857890 0.106626 -0.013961
C97   C     C_R   0.119710 0.146847 0.895989 -0.013995
C98   C     C_R   0.622421 0.357972 0.893305 -0.013937
C99   C     C_R   0.380038 0.646449 0.104286 -0.014027
C100  C     C_R   0.377717 0.357714 0.106511 -0.014335
C101  C     C_R   0.619691 0.646885 0.896003 -0.013562
C102  C     C_R   0.138223 0.830585 0.807531 -0.166758
C103  C     C_R   0.862190 0.170102 0.192218 -0.170002
C104  C     C_R   0.861744 0.830606 0.192451 -0.166944
C105  C     C_R   0.204134 0.769503 0.671199 0.576765
C106  C     C_R   0.137817 0.170105 0.807804 -0.170230
C107  C     C_R   0.638248 0.330609 0.807537 -0.166861
C108  C     C_R   0.362184 0.670069 0.192257 -0.170707
C109  C     C_R   0.361735 0.330611 0.192451 -0.167595
C110  C     C_R   0.637816 0.670106 0.807800 -0.170505
C111  C     C_R   0.181698 0.783848 0.767974 -0.003687
C112  C     C_R   0.819902 0.218712 0.231347 -0.012366
C113  C     C_R   0.818230 0.783944 0.232044 -0.003700
C114  C     C_R   0.180140 0.218655 0.768649 -0.012896
C115  C     C_R   0.681762 0.283938 0.767952 -0.003536
C116  C     C_R   0.203885 0.230928 0.671234 0.557183
C117  C     C_R   0.319872 0.718643 0.231375 -0.012740
C118  C     C_R   0.318248 0.283905 0.232040 -0.015814
C119  C     C_R   0.680110 0.718698 0.768659 -0.012497
C120  C     C_R   0.206187 0.757516 0.819526 0.081991
C121  C     C_R   0.798116 0.249745 0.178309 0.069800
C122  C     C_R   0.793664 0.757734 0.180549 0.082113
C123  C     C_R   0.201975 0.249608 0.821658 0.070029
C124  C     C_R   0.706337 0.257741 0.819445 0.082151
C125  C     C_R   0.298003 0.749513 0.178372 0.069482
C126  C     C_R   0.293741 0.257566 0.180517 0.073770
C127  C     C_R   0.795842 0.769547 0.328807 0.576617
C128  C     C_R   0.701888 0.749738 0.821699 0.069701
C129  C     C_R   0.193569 0.789320 0.902348 -0.008250
C130  C     C_R   0.812619 0.222103 0.092743 -0.008168
C131  C     C_R   0.806334 0.789497 0.097683 -0.008289
C132  C     C_R   0.187388 0.222045 0.907291 -0.008765
C133  C     C_R   0.693721 0.289592 0.902241 -0.008237
C134  C     C_R   0.312308 0.721564 0.093018 -0.008339
C135  C     C_R   0.306507 0.289144 0.097521 -0.012253
C136  C     C_R   0.687293 0.722218 0.907355 -0.008119
C137  C     C_R   0.198414 0.631062 0.521113 0.594705
C138  C     C_R   0.559143 0.873919 0.467091 -0.127790
C139  C     C_R   0.797649 0.368642 0.491807 0.592767
C140  C     C_R   0.801537 0.631012 0.479102 0.596483
C141  C     C_R   0.202016 0.368719 0.509201 0.554069
C142  C     C_R   0.698435 0.131036 0.521020 0.596321
C143  C     C_R   0.297761 0.868669 0.491516 0.592131
C144  C     C_R   0.301571 0.131040 0.478963 0.596402
C145  C     C_R   0.702261 0.868666 0.508433 0.592327
C146  C     C_R   0.924274 0.906160 0.068160 0.558345
C147  C     C_R   0.074795 0.095490 0.932752 0.556004
C148  C     C_R   0.075743 0.906189 0.931818 0.558302
Cu1   Cu    Cu3+1 0.209920 0.785290 0.495070 1.074328
Cu2   Cu    Cu3+1 0.504760 0.500000 0.075850 1.063799
Cu3   Cu    Cu3+1 0.995240 0.000000 0.924150 1.065314
Cu4   Cu    Cu3+1 0.004760 1.000000 0.075850 1.065638
Cu5   Cu    Cu3+1 0.790080 0.214710 0.504930 1.079874
Cu6   Cu    Cu3+1 0.790080 0.785290 0.504930 1.074264
Cu7   Cu    Cu3+1 0.209920 0.214710 0.495070 1.097246
Cu8   Cu    Cu3+1 0.709920 0.285290 0.495070 1.073787
Cu9   Cu    Cu3+1 0.290080 0.714710 0.504930 1.078611
Cu10  Cu    Cu3+1 0.290080 0.285290 0.504930 1.072145
Cu11  Cu    Cu3+1 0.709920 0.714710 0.495070 1.077819
Cu12  Cu    Cu3+1 0.495240 0.500000 0.924150 1.063718
H1    H     H_    0.545356 0.826976 0.446370 0.105118
H2    H     H_    0.840327 0.317192 0.956937 0.131833
H3    H     H_    0.833954 0.696097 0.961325 0.130691
H4    H     H_    0.160239 0.317885 0.042164 0.132965
H5    H     H_    0.665790 0.196654 0.039124 0.130517
H6    H     H_    0.340430 0.816013 0.956501 0.131269
H7    H     H_    0.333856 0.195295 0.961658 0.130833
H8    H     H_    0.659892 0.817740 0.042652 0.131558
H9    H     H_    0.290177 0.842457 0.871995 0.135504
H10   H     H_    0.716221 0.169942 0.122994 0.127451
H11   H     H_    0.710261 0.843963 0.127042 0.135382
H12   H     H_    0.487710 0.170600 0.440989 0.104721
H13   H     H_    0.283339 0.168763 0.877879 0.127441
H14   H     H_    0.790014 0.343499 0.872470 0.135624
H15   H     H_    0.215589 0.670106 0.123859 0.126350
H16   H     H_    0.210642 0.344037 0.126517 0.131716
H17   H     H_    0.783460 0.669460 0.877546 0.127555
H18   H     H_    0.117558 0.847687 0.769921 0.174406
H19   H     H_    0.880232 0.148465 0.231851 0.175926
H20   H     H_    0.882422 0.847668 0.230049 0.174344
H21   H     H_    0.119792 0.148464 0.768157 0.175934
H22   H     H_    0.617534 0.347621 0.769970 0.174326
H23   H     H_    0.455126 0.826839 0.552375 0.104895
H24   H     H_    0.380374 0.648667 0.231786 0.175828
H25   H     H_    0.382326 0.347834 0.230126 0.176217
H26   H     H_    0.619827 0.648404 0.768129 0.175480
H27   H     H_    0.631887 0.793348 0.375655 0.328441
H28   H     H_    0.445522 0.204618 0.360942 0.322448
H29   H     H_    0.368791 0.792651 0.622579 0.328172
H30   H     H_    0.554433 0.204542 0.638923 0.322423
H31   H     H_    0.181928 0.347905 0.367208 0.326036
H32   H     H_    0.945674 0.704011 0.361536 0.322406
H33   H     H_    0.867170 0.292685 0.625077 0.329300
H34   H     H_    0.512288 0.170532 0.558831 0.104806
H35   H     H_    0.054498 0.704919 0.639387 0.322576
H36   H     H_    0.044032 0.325778 0.452220 0.147913
H37   H     H_    0.987611 0.670094 0.441937 0.104603
H38   H     H_    0.953521 0.326899 0.556672 0.103858
H39   H     H_    0.012108 0.670667 0.559741 0.105231
H40   H     H_    0.165237 0.696911 0.039889 0.130366
I1    I     I_    0.288695 0.502827 0.412707 -0.304077
I2    I     I_    0.365544 0.625273 0.927951 -0.263306
I3    I     I_    0.355259 0.394779 0.941506 -0.258717
I4    I     I_    0.632679 0.627999 0.074129 -0.263423
I5    I     I_    0.260068 0.667650 0.780128 -0.255082
I6    I     I_    0.745932 0.341314 0.219494 -0.263931
I7    I     I_    0.739533 0.668136 0.220090 -0.256008
I8    I     I_    0.254391 0.340937 0.780364 -0.261829
I9    I     I_    0.760374 0.168032 0.780006 -0.255698
I10   I     I_    0.245986 0.841240 0.219333 -0.263858
I11   I     I_    0.239560 0.168015 0.220187 -0.222608
I12   I     I_    0.710875 0.502909 0.586978 -0.285960
I13   I     I_    0.754206 0.841161 0.780411 -0.263801
I14   I     I_    0.788924 0.002881 0.412871 -0.285236
I15   I     I_    0.211141 0.002893 0.587208 -0.284154
I16   I     I_    0.145712 0.896385 0.056937 -0.256236
I17   I     I_    0.866734 0.127152 0.926558 -0.261079
I18   I     I_    0.854657 0.895905 0.942450 -0.255895
I19   I     I_    0.132708 0.127896 0.074107 -0.250817
I20   I     I_    0.645694 0.396490 0.056983 -0.256274
O1    O     O_R   0.255040 0.869590 0.478480 -0.479990
O2    O     O_R   0.817950 0.203450 0.375560 -0.514380
O3    O     O_R   0.817950 0.796550 0.375560 -0.506315
O4    O     O_R   0.182050 0.203450 0.624440 -0.510613
O5    O     O_R   0.682050 0.296550 0.624440 -0.506431
O6    O     O_R   0.317950 0.703450 0.375560 -0.514430
O7    O     O_R   0.317950 0.296550 0.375560 -0.503960
O8    O     O_R   0.682050 0.703450 0.624440 -0.514981
O9    O     O_R   0.250530 0.763330 0.367210 -0.482934
O10   O     O_R   0.749470 0.236670 0.632790 -0.458648
O11   O     O_R   0.749470 0.763330 0.632790 -0.482758
O12   O     O_R   0.744960 0.130410 0.521520 -0.478857
O13   O     O_R   0.250530 0.236670 0.367210 -0.471361
O14   O     O_R   0.750530 0.263330 0.367210 -0.482912
O15   O     O_R   0.249470 0.736670 0.632790 -0.458888
O16   O     O_R   0.249470 0.263330 0.632790 -0.482514
O17   O     O_R   0.750530 0.736670 0.367210 -0.458638
O18   O     O_R   0.177260 0.690030 0.513710 -0.465695
O19   O     O_R   0.822740 0.309970 0.486290 -0.468681
O20   O     O_R   0.822740 0.690030 0.486290 -0.464729
O21   O     O_R   0.177260 0.309970 0.513710 -0.479122
O22   O     O_R   0.677260 0.190030 0.513710 -0.464962
O23   O     O_R   0.744960 0.869590 0.521520 -0.480120
O24   O     O_R   0.322740 0.809970 0.486290 -0.468881
O25   O     O_R   0.322740 0.190030 0.486290 -0.464442
O26   O     O_R   0.677260 0.809970 0.513710 -0.468731
O27   O     O_R   0.051640 0.926880 0.885090 -0.515120
O28   O     O_R   0.948360 0.073120 0.114910 -0.514932
O29   O     O_R   0.948360 0.926880 0.114910 -0.515170
O30   O     O_R   0.051640 0.073120 0.885090 -0.514887
O31   O     O_R   0.551640 0.426880 0.885090 -0.514976
O32   O     O_R   0.448360 0.573120 0.114910 -0.515225
O33   O     O_R   0.448360 0.426880 0.114910 -0.515274
O34   O     O_R   0.255040 0.130410 0.478480 -0.476266
O35   O     O_R   0.551640 0.573120 0.885090 -0.515404
O36   O     O_R   0.940620 0.926560 0.986760 -0.472453
O37   O     O_R   0.059380 0.073440 0.013240 -0.470087
O38   O     O_R   0.059380 0.926560 0.013240 -0.472684
O39   O     O_R   0.940620 0.073440 0.986760 -0.469842
O40   O     O_R   0.440620 0.426560 0.986760 -0.471794
O41   O     O_R   0.559380 0.573440 0.013240 -0.469623
O42   O     O_R   0.559380 0.426560 0.013240 -0.472342
O43   O     O_R   0.440620 0.573440 0.986760 -0.470050
O44   O     O_3   0.649923 0.828669 0.396611 -0.662994
O45   O     O_R   0.755040 0.369590 0.478480 -0.480219
O46   O     O_3   0.416520 0.168788 0.377150 -0.668711
O47   O     O_3   0.350529 0.828463 0.602678 -0.662961
O48   O     O_3   0.583453 0.168730 0.622707 -0.669653
O49   O     O_3   0.145509 0.326488 0.398292 -0.654627
O50   O     O_3   0.916610 0.668269 0.377790 -0.669604
O51   O     O_3   0.849233 0.328434 0.604473 -0.663156
O52   O     O_3   0.083526 0.669108 0.623123 -0.669320
O53   O     O_R   0.244960 0.630410 0.521520 -0.477420
O54   O     O_R   0.244960 0.369590 0.521520 -0.470012
O55   O     O_R   0.755040 0.630410 0.478480 -0.478787
O56   O     O_R   0.182050 0.796550 0.624440 -0.505980

loop_
_geom_bond_atom_site_label_1
_geom_bond_atom_site_label_2
_ccdc_geom_bond_type
C1    O6    A    
Cu8   O5    S    
C14   C56   A    
C147  O30   A    
C116  O4    A    
C65   C79   A    
C72   O11   A    
C123  C132  A    
C105  O15   A    
C122  C131  A    
C36   C42   A    
C8    C43   A    
Cu12  O40   S    
C121  C130  A    
C112  C121  A    
C25   C43   A    
C81   H40   S    
Cu7   O4    S    
Cu3   O39   S    
C11   C18   A    
C83   O7    A    
C49   O46   S    
C67   H9    S    
C59   C130  S    
C99   C108  A    
C145  O23   A    
C11   C19   A    
C33   C39   A    
C30   C141  S    
Cu2   Cu12  S    
C145  O26   A    
C106  C114  A    
C60   C84   A    
C120  I5    S    
C6    C98   S    
C140  O55   A    
Cu9   O24   S    
C29   C51   A    
C126  I11   S    
C128  C136  A    
C16   C35   A    
Cu9   O53   S    
C90   C134  A    
C34   C145  S    
C3    O39   A    
C75   C84   A    
C124  I9    S    
Cu7   O13   S    
C58   C129  S    
C77   H5    S    
C113  C127  S    
Cu6   O20   S    
H27   O44   S    
C140  O20   A    
C31   C40   A    
C62   C70   A    
C93   C148  S    
C13   C18   A    
C69   H11   S    
C87   I18   S    
C20   C138  A    
C37   C42   A    
C71   C80   A    
C118  C126  A    
C42   I15   S    
C26   C45   A    
Cu10  O16   S    
C21   C43   A    
C85   C93   A    
Cu4   O37   S    
C26   C34   A    
C22   C44   A    
C113  C122  A    
C83   O13   A    
C10   C20   A    
C13   H23   S    
C6    O31   A    
C29   C38   A    
C61   C115  S    
Cu12  O43   S    
C64   C73   A    
Cu5   O12   S    
C76   H6    S    
Cu8   O22   S    
Cu10  O25   S    
C91   C100  A    
C22   C53   A    
Cu11  O26   S    
C2    H12   S    
C21   C30   A    
C103  H19   S    
C88   C97   A    
C92   I4    S    
C127  O3    A    
C128  I13   S    
C85   C129  A    
C119  C128  A    
C23   C44   A    
C24   C51   A    
C11   C47   A    
Cu6   O3    S    
C100  C109  A    
C8    C16   A    
C144  O25   A    
C57   H39   S    
Cu7   Cu10  S    
C5    O41   A    
Cu11  O55   S    
C38   C142  S    
Cu12  O31   S    
C12   C57   A    
C69   C78   A    
C92   C136  A    
C34   C41   A    
Cu1   O1    S    
C4    O33   A    
C74   C82   A    
C7    O32   A    
H35   O52   S    
C122  I7    S    
C60   C131  S    
C73   C81   A    
Cu4   O29   S    
C50   O47   S    
C95   C103  A    
C109  C118  A    
Cu10  O54   S    
Cu3   O30   S    
C56   H38   S    
C14   C16   A    
Cu11  O17   S    
C66   C78   A    
C5    C101  S    
C17   C24   A    
C89   C133  A    
C22   C31   A    
Cu5   O19   S    
C107  H22   S    
C141  O54   A    
C120  C129  A    
C97   C147  S    
Cu1   O56   S    
C62   C132  S    
C96   C104  A    
C38   C41   A    
C58   C81   A    
C33   C137  S    
H32   O50   S    
C108  H24   S    
C94   O14   A    
Cu2   O33   S    
C146  O29   A    
C109  H25   S    
C101  C110  A    
C142  O22   A    
C139  O19   A    
C48   O44   S    
C148  O27   A    
C141  O21   A    
C65   C74   A    
C139  O45   A    
C29   C45   A    
C103  C112  A    
C86   I17   S    
C73   H15   S    
C9    C14   A    
C68   H10   S    
C106  H21   S    
C74   H16   S    
C2    C49   A    
C1    O9    A    
C59   C68   A    
C137  O53   A    
C59   C80   A    
C142  O12   A    
C52   O49   S    
C12   C15   A    
C24   H34   S    
Cu3   Cu4   S    
C80   H2    S    
C87   C96   A    
C116  O16   A    
C10   C45   A    
Cu1   O18   S    
C64   C76   A    
C91   C135  A    
C75   H17   S    
C6    O42   A    
C1    C117  S    
Cu11  O8    S    
Cu6   O11   S    
Cu5   Cu8   S    
C7    O43   A    
C102  C111  A    
C107  C115  A    
C65   C135  S    
C84   H3    S    
C7    C99   S    
C35   H36   S    
C32   C139  S    
C92   C101  A    
C114  C123  A    
C124  C133  A    
C28   C47   A    
C87   C131  A    
Cu1   Cu9   S    
C63   C71   A    
C126  C135  A    
C127  O17   A    
C55   C57   A    
C102  H18   S    
C66   C136  S    
C147  O37   A    
C85   I16   S    
C3    O28   A    
C97   C106  A    
C17   C19   A    
C28   C50   A    
C61   O10   A    
Cu7   O21   S    
C90   C99   A    
C27   C49   A    
C83   C118  S    
C23   C54   A    
C63   C77   A    
H29   O47   S    
C27   C47   A    
C68   C77   A    
C114  C116  S    
Cu6   O23   S    
C110  H26   S    
C9    C44   A    
C115  C124  A    
C37   C143  S    
C146  O36   A    
C70   C79   A    
C137  O18   A    
C93   C102  A    
C108  C117  A    
C86   C130  A    
C25   C55   A    
C148  O38   A    
C54   C56   A    
C46   H37   S    
C110  C119  A    
C143  O1    A    
Cu8   O14   S    
C125  I10   S    
C88   I19   S    
C64   C134  S    
Cu2   O32   S    
C62   C82   A    
C26   C48   A    
C27   C36   A    
C82   H4    S    
C96   C146  S    
C63   C133  S    
C40   I12   S    
C78   H8    S    
C121  I6    S    
C71   H14   S    
C48   C138  A    
C89   C98   A    
C90   I2    S    
Cu1   O9    S    
C23   C32   A    
C5    O35   A    
C4    C100  S    
C9    C15   A    
C28   C37   A    
Cu12  O35   S    
Cu6   Cu11  S    
C55   O52   S    
C125  C134  A    
Cu9   O6    S    
C89   I20   S    
Cu3   O27   S    
C41   I14   S    
C105  O56   A    
C104  H20   S    
C144  O34   A    
C60   C69   A    
C143  O24   A    
C51   O48   S    
H33   O51   S    
C66   C75   A    
Cu10  O7    S    
C46   C53   A    
C94   C112  S    
C104  C113  A    
Cu7   O34   S    
C3    C95   S    
C123  I8    S    
C138  H1    S    
C18   C20   A    
C32   C40   A    
C39   I1    S    
C105  C111  S    
Cu5   O10   S    
C70   H13   S    
C61   O5    A    
Cu4   O28   S    
C72   C119  S    
C86   C95   A    
C98   C107  A    
Cu2   O41   S    
C13   C50   A    
Cu4   O38   S    
C58   C67   A    
Cu5   O2    S    
Cu9   O15   S    
C4    O40   A    
C53   O50   S    
C72   O8    A    
H28   O46   S    
C35   C52   A    
C94   O2    A    
C79   H7    S    
C88   C132  A    
H31   O49   S    
C111  C120  A    
Cu2   O42   S    
C67   C76   A    
C10   C17   A    
C15   C46   A    
H30   O48   S    
C31   C140  S    
C36   C144  S    
C117  C125  A    
C25   C33   A    
C21   C52   A    
C91   I3    S    
C8    C12   A    
C2    C19   A    
C30   C39   A    
Cu3   O36   S    
Cu8   O45   S    
C54   O51   S    
