data_mof_unit_26379.cif
_audit_creation_date              2013-03-05T15:59:21-0500
_audit_creation_method            fapswitch 2.2
_symmetry_space_group_name_H-M    P1
_symmetry_Int_Tables_number       1
_space_group_crystal_system       triclinic
_cell_length_a                    10.505453
_cell_length_b                    12.619329
_cell_length_c                    13.129503
_cell_angle_alpha                 82.242345
_cell_angle_beta                  90.508584
_cell_angle_gamma                 102.732822
_cell_volume                      1681.86643417

loop_
_atom_site_label
_atom_site_type_symbol
_atom_site_description
_atom_site_fract_x
_atom_site_fract_y
_atom_site_fract_z
_atom_type_partial_charge
O1    O     O_R   0.467970 0.366730 0.627150 -0.622501
O2    O     O_R   0.510820 0.544830 0.662520 -0.619765
C1    C     C_R   0.480003 0.438739 0.691155 0.840155
O3    O     O_R   0.664630 0.410960 0.482340 -0.595673
O4    O     O_R   0.707470 0.589060 0.517710 -0.627479
C2    C     C_R   0.742397 0.501275 0.499283 0.935159
Zn1   Zn    Zn3+2 0.471390 0.381080 0.476380 0.963982
Zn2   Zn    Zn3+2 0.528610 0.618920 0.523620 0.930159
O5    O     O_R   0.489180 0.455170 0.337480 -0.599683
O6    O     O_R   0.532030 0.633270 0.372850 -0.640092
O7    O     O_R   0.292530 0.410940 0.482290 -0.622003
O8    O     O_R   0.335370 0.589040 0.517660 -0.646092
C3    C     C_R   0.512602 0.561065 0.308765 0.917235
C4    C     C_R   0.257789 0.499084 0.499829 0.865214
C5    C     C_3   0.935797 0.418261 0.567215 -0.231177
C6    C     C_3   0.046951 0.512936 0.592942 -0.142838
H1    H     H_    0.089223 0.522429 0.669887 0.135834
H2    H     H_    0.878852 0.351556 0.623689 0.150312
C7    C     C_3   0.122603 0.498210 0.498651 -0.015687
C8    C     C_3   0.014419 0.403150 0.472958 -0.201477
C9    C     C_3   0.956213 0.488823 0.405991 0.360092
C10   C     C_3   0.066332 0.583503 0.429179 -0.234647
C11   C     C_3   0.987302 0.597855 0.523552 -0.179419
C12   C     C_3   0.878137 0.503150 0.497991 -0.085041
H3    H     H_    0.028558 0.324443 0.451122 0.165136
H4    H     H_    0.123151 0.649645 0.372098 0.148085
H5    H     H_    0.972994 0.676907 0.544400 0.162424
C13   C     C_R   0.405008 0.700352 0.064206 -0.175972
H6    H     H_    0.434489 0.744248 0.216186 0.147729
H7    H     H_    0.316108 0.698320 0.873329 0.149406
H8    H     H_    0.363327 0.770213 0.037717 0.136876
C14   C     C_R   0.500506 0.596341 0.200057 -0.043054
C15   C     C_R   0.498741 0.300216 0.838442 -0.196870
C16   C     C_R   0.510203 0.271635 0.943358 -0.138141
C17   C     C_R   0.496542 0.344842 0.010600 -0.167772
C18   C     C_R   0.464588 0.446523 0.973630 0.085435
C19   C     C_R   0.432799 0.466841 0.869525 0.086661
C20   C     C_R   0.463319 0.528853 0.036384 0.062431
C21   C     C_R   0.410070 0.620737 0.000158 0.179428
C22   C     C_R   0.360982 0.630703 0.901316 -0.235983
C23   C     C_R   0.372288 0.554804 0.836542 -0.198980
C24   C     C_R   0.516331 0.523208 0.133768 -0.211593
C25   C     C_R   0.448057 0.687113 0.164921 -0.206277
C26   C     C_R   0.464420 0.399342 0.800818 -0.107398
H9    H     H_    0.566454 0.459450 0.161811 0.189528
H10   H     H_    0.520783 0.246464 0.786586 0.151089
H11   H     H_    0.508221 0.318592 0.091134 0.141868
H12   H     H_    0.535304 0.194541 0.972365 0.146598
H13   H     H_    0.331717 0.565021 0.760751 0.166008
C27   C     C_R   0.321020 0.088298 0.345630 -0.301612
H14   H     H_    0.300019 0.254931 0.329170 0.143232
H15   H     H_    0.290514 0.881615 0.314450 0.152977
H16   H     H_    0.252662 0.066503 0.285562 0.150409
N1    N     N_R   0.432930 0.222190 0.444670 -0.102456
C28   C     C_R   0.652867 0.799490 0.630554 0.022739
C29   C     C_R   0.684177 0.903814 0.659481 -0.248222
C30   C     C_R   0.626157 0.985288 0.610206 -0.194801
C31   C     C_R   0.536163 0.962512 0.531063 0.017503
C32   C     C_R   0.507858 0.854714 0.504342 0.238341
C33   C     C_R   0.473342 0.041816 0.477640 -0.014099
C34   C     C_R   0.383898 0.011637 0.399123 0.193588
C35   C     C_R   0.358274 0.905393 0.374402 -0.292330
C36   C     C_R   0.419689 0.828363 0.426150 -0.209644
C37   C     C_R   0.495488 0.150628 0.498427 -0.038159
C38   C     C_R   0.347284 0.194298 0.369929 0.014984
N2    N     N_R   0.566370 0.776980 0.554790 -0.131956
H17   H     H_    0.561725 0.181331 0.556094 0.119893
H18   H     H_    0.697353 0.735731 0.668756 0.141563
H19   H     H_    0.653588 0.064691 0.635705 0.133466
H20   H     H_    0.753034 0.921474 0.720051 0.152820
H21   H     H_    0.396482 0.748607 0.403058 0.206903
N3    N     N_R   0.908855 0.476536 0.302597 0.200164
O9    O     O_R   0.987882 0.463518 0.231946 -0.399365
O10   O     O_R   0.790044 0.482685 0.279055 -0.427170

loop_
_geom_bond_atom_site_label_1
_geom_bond_atom_site_label_2
_geom_bond_distance
_ccdc_geom_bond_type
C5    H2    1.110692 S    
C28   C29   1.388338 A    
Zn2   N2    2.042552 S    
C3    C14   1.449697 S    
C7    C8    1.531654 S    
C17   H11   1.078827 S    
C28   H18   1.081672 S    
N1    C38   1.354398 A    
Zn1   O7    2.000317 S    
C18   C19   1.407324 A    
C20   C24   1.389352 A    
C32   N2    1.364554 A    
O4    C2    1.293635 A    
O7    C4    1.293479 A    
C8    H3    1.110590 S    
C31   C33   1.422141 A    
C5    C6    1.546620 S    
C29   C30   1.391703 A    
C16   C17   1.390812 A    
H14   C38   1.081938 S    
O5    C3    1.307335 A    
C17   C18   1.419014 A    
C6    H1    1.110594 S    
C11   C12   1.534087 S    
C11   H5    1.110513 S    
C9    C10   1.530099 S    
H6    C25   1.082230 S    
C15   H10   1.083502 S    
O3    Zn1   1.984242 S    
C23   H13   1.081923 S    
C5    C8    1.549647 S    
C1    C26   1.456756 S    
C27   H16   1.083872 S    
C9    N3    1.457819 S    
C37   H17   1.076375 S    
C7    C10   1.531609 S    
N3    O10   1.299557 A    
C21   C22   1.392323 A    
C13   C21   1.404216 A    
C31   C32   1.417982 A    
C33   C34   1.421887 A    
O1    C1    1.304433 A    
C24   H9    1.078669 S    
C35   C36   1.383181 A    
Zn2   O8    1.984244 S    
C2    C12   1.421192 S    
C15   C16   1.387127 A    
H7    C22   1.083958 S    
O3    C2    1.292536 A    
C5    C12   1.534254 S    
O8    C4    1.291596 A    
C6    C11   1.547052 S    
C29   H20   1.082564 S    
C16   H12   1.082758 S    
C28   N2    1.357345 A    
Zn1   O5    1.924484 S    
C22   C23   1.388004 A    
O1    Zn1   1.963226 S    
C15   C26   1.402728 A    
C4    C7    1.417760 S    
C13   H8    1.083793 S    
O2    Zn2   1.924482 S    
C36   H21   1.066409 S    
N3    O9    1.300640 A    
O6    C3    1.304541 A    
O4    Zn2   2.000314 S    
C13   C25   1.394293 A    
C32   C36   1.400711 A    
C33   C37   1.404750 A    
C19   C26   1.409650 A    
C18   C20   1.412751 A    
O2    C1    1.309104 A    
H15   C35   1.084442 S    
C30   C31   1.414069 A    
C20   C21   1.419835 A    
N1    C37   1.351638 A    
C6    C7    1.530842 S    
C14   C25   1.399853 A    
C19   C23   1.414293 A    
C34   C35   1.390032 A    
C27   C38   1.384976 A    
C8    C9    1.530061 S    
Zn2   O6    1.963229 S    
C10   H4    1.110886 S    
C9    C12   1.518687 S    
C27   C34   1.398404 A    
C14   C24   1.387062 A    
C10   C11   1.550017 S    
Zn1   N1    2.054802 S    
C30   H19   1.077370 S    
