data_mof_unit_21111.cif
_audit_creation_date              2012-12-10T21:11:35-0500
_audit_creation_method            fapswitch 2.2
_symmetry_space_group_name_H-M    P1
_symmetry_Int_Tables_number       1
_space_group_crystal_system       triclinic
_cell_length_a                    17.508741
_cell_length_b                    16.728611
_cell_length_c                    10.609003
_cell_angle_alpha                 89.76316
_cell_angle_beta                  92.217428
_cell_angle_gamma                 89.954403
_cell_volume                      3104.9895268

loop_
_atom_site_label
_atom_site_type_symbol
_atom_type_description
_atom_site_fract_x
_atom_site_fract_y
_atom_site_fract_z
_atom_type_partial_charge
C1    C     C_R   0.353084 0.500058 0.503025 0.906723
C2    C     C_R   0.458960 0.167883 0.406401 -0.358751
C3    C     C_R   0.438411 0.749040 0.449144 0.504230
C4    C     C_R   0.542442 0.252020 0.590523 0.533818
C5    C     C_R   0.561400 0.748429 0.552045 0.509046
C6    C     C_R   0.457616 0.252667 0.409465 0.535445
C7    C     C_R   0.500226 0.876285 0.500123 0.054256
C8    C     C_R   0.500240 0.124622 0.499316 0.035542
C9    C     C_1   0.500309 0.963925 0.499713 -0.004132
C10   C     C_1   0.500261 0.036966 0.499366 0.003613
C11   C     C_R   0.510977 0.500104 0.260139 0.874834
C12   C     C_R   0.646948 0.500056 0.497735 0.907848
C13   C     C_R   0.487098 0.499800 0.738675 0.879045
C14   C     C_R   0.539285 0.646976 0.107427 -0.247783
C15   C     C_R   0.454536 0.352783 0.888343 -0.138426
C16   C     C_R   0.449305 0.644764 0.886346 -0.239204
C17   C     C_R   0.542148 0.353554 0.111445 -0.136751
C18   C     C_R   0.517625 0.720174 0.049920 0.178353
C19   C     C_R   0.473243 0.279074 0.946973 0.188753
C20   C     C_R   0.468328 0.718959 0.941576 0.177315
C21   C     C_R   0.523158 0.279431 0.055535 0.188141
C22   C     C_R   0.477712 0.572438 0.938522 0.036352
C23   C     C_R   0.887590 0.503157 0.531229 -0.075384
C24   C     C_R   0.514924 0.426484 0.059555 0.025545
C25   C     C_R   0.513093 0.573263 0.058020 0.033230
C26   C     C_R   0.480547 0.426047 0.939366 0.025214
C27   C     C_R   0.472842 0.499227 0.873339 -0.207094
C28   C     C_R   0.521642 0.500112 0.124280 -0.205562
C29   C     C_R   0.849579 0.574763 0.498946 0.462440
C30   C     C_R   0.152747 0.427644 0.546252 0.456062
C31   C     C_R   0.156059 0.573595 0.568541 0.450365
C32   C     C_R   0.848847 0.430209 0.538637 0.429116
C33   C     C_R   0.769489 0.572229 0.482105 -0.346659
C34   C     C_R   0.116179 0.501049 0.564681 -0.067179
C35   C     C_R   0.230671 0.428420 0.521142 -0.340163
C36   C     C_R   0.234711 0.572191 0.550360 -0.334101
C37   C     C_R   0.769905 0.429383 0.522712 -0.314250
C38   C     C_R   0.729959 0.500428 0.499363 -0.163685
C39   C     C_R   0.271311 0.500369 0.522323 -0.164161
C40   C     C_3   0.616101 0.206327 0.198637 -0.808332
C41   C     C_3   0.382259 0.793600 0.789465 -0.803191
C42   C     C_3   0.381965 0.205090 0.803380 -0.818047
C43   C     C_3   0.599299 0.798677 0.202625 -0.806814
C44   C     C_3   0.857038 0.716169 0.495165 0.095766
C45   C     C_1   0.967809 0.503571 0.551323 0.095306
C46   C     C_3   0.829256 0.752477 0.368598 -0.346916
C47   C     C_3   0.781785 0.827659 0.387895 -0.969720
C48   C     C_3   0.145116 0.291804 0.599747 0.091197
C49   C     C_3   0.163327 0.229075 0.500608 -0.357063
C50   C     C_3   0.213474 0.162188 0.556419 -0.993717
C51   C     C_3   0.134100 0.708220 0.519381 0.104090
C52   C     C_3   0.179005 0.772247 0.593790 -0.335965
C53   C     C_3   0.203810 0.840164 0.508126 -0.962712
C54   C     C_3   0.896284 0.314496 0.461490 0.100046
C55   C     C_3   0.926249 0.231814 0.499836 -0.299365
C56   C     C_1   0.035498 0.502858 0.562496 0.106040
C57   C     C_3   0.939584 0.180003 0.384692 -0.995945
C58   C     C_3   0.366178 0.711741 0.276132 0.093455
C59   C     C_3   0.292227 0.669919 0.232941 -0.338535
C60   C     C_3   0.287559 0.658921 0.090250 -0.949342
C61   C     C_3   0.656064 0.271391 0.708359 0.081701
C62   C     C_3   0.666516 0.234460 0.839983 -0.347125
C63   C     C_3   0.748308 0.205328 0.864942 -0.962013
C64   C     C_3   0.630607 0.710517 0.728715 0.094620
C65   C     C_3   0.700855 0.663279 0.776247 -0.322241
C66   C     C_3   0.702036 0.651528 0.918832 -0.962322
C67   C     C_R   0.437459 0.833592 0.450917 -0.366044
C68   C     C_3   0.342253 0.274760 0.299087 0.064056
C69   C     C_3   0.326661 0.243077 0.165664 -0.334318
C70   C     C_3   0.243150 0.218966 0.144608 -0.982801
C71   C     C_R   0.541405 0.167153 0.592554 -0.363836
C72   C     C_R   0.562712 0.833012 0.550065 -0.380743
H1    H     H_    0.576937 0.646876 0.190477 0.183607
H2    H     H_    0.572070 0.134360 0.666528 0.167485
H3    H     H_    0.612737 0.864521 0.586905 0.164425
H4    H     H_    0.428217 0.135984 0.331859 0.167949
H5    H     H_    0.555889 0.159277 0.044343 0.216963
H6    H     H_    0.600117 0.236338 0.286835 0.246516
H7    H     H_    0.632555 0.143985 0.223935 0.241045
H8    H     H_    0.666053 0.236490 0.157898 0.231730
H9    H     H_    0.484822 0.835199 0.874858 0.228373
H10   H     H_    0.402653 0.766522 0.701767 0.246536
H11   H     H_    0.331636 0.760632 0.822136 0.242314
H12   H     H_    0.417702 0.354106 0.804378 0.163058
H13   H     H_    0.364748 0.856207 0.768494 0.247018
H14   H     H_    0.438737 0.159845 0.963112 0.216283
H15   H     H_    0.399828 0.233913 0.714923 0.246637
H16   H     H_    0.365619 0.142592 0.779970 0.244767
H17   H     H_    0.331374 0.236145 0.840214 0.232804
H18   H     H_    0.498628 0.837686 0.107690 0.228628
H19   H     H_    0.577444 0.771611 0.289574 0.243292
H20   H     H_    0.651804 0.767099 0.174757 0.248432
H21   H     H_    0.614370 0.861950 0.222562 0.247060
H22   H     H_    0.899919 0.757546 0.538866 0.157515
H23   H     H_    0.412836 0.642716 0.801894 0.180274
H24   H     H_    0.810586 0.712647 0.563281 0.134816
H25   H     H_    0.879543 0.767914 0.312511 0.223005
H26   H     H_    0.794187 0.708653 0.313499 0.220228
H27   H     H_    0.729297 0.812696 0.438619 0.286120
H28   H     H_    0.764719 0.854072 0.294843 0.266052
H29   H     H_    0.815589 0.872577 0.442962 0.262105
H30   H     H_    0.104463 0.265086 0.665754 0.152994
H31   H     H_    0.196897 0.307128 0.659372 0.126431
H32   H     H_    0.109211 0.203061 0.461229 0.232969
H33   H     H_    0.192905 0.257781 0.421754 0.219787
H34   H     H_    0.579913 0.355323 0.194195 0.162649
H35   H     H_    0.269481 0.186556 0.590406 0.264991
H36   H     H_    0.223727 0.116860 0.482776 0.268365
H37   H     H_    0.184977 0.132766 0.636013 0.271229
H38   H     H_    0.078870 0.734723 0.485094 0.167000
H39   H     H_    0.164287 0.690833 0.433135 0.120204
H40   H     H_    0.142635 0.796888 0.667952 0.223362
H41   H     H_    0.230573 0.745601 0.641317 0.225642
H42   H     H_    0.241893 0.817087 0.435254 0.278395
H43   H     H_    0.235661 0.885635 0.565098 0.266561
H44   H     H_    0.153089 0.869098 0.461213 0.259228
H45   H     H_    0.737251 0.625174 0.455731 0.202487
H46   H     H_    0.938118 0.343971 0.399899 0.161636
H47   H     H_    0.840933 0.306463 0.407333 0.118934
H48   H     H_    0.980773 0.238139 0.555751 0.239662
H49   H     H_    0.884163 0.201801 0.559959 0.214784
H50   H     H_    0.885131 0.171042 0.329306 0.266698
H51   H     H_    0.961969 0.120720 0.415850 0.265822
H52   H     H_    0.981984 0.208601 0.323681 0.269464
H53   H     H_    0.414872 0.680126 0.235289 0.187801
H54   H     H_    0.364253 0.774438 0.240266 0.116572
H55   H     H_    0.288897 0.610287 0.278997 0.238046
H56   H     H_    0.259584 0.373225 0.500512 0.162238
H57   H     H_    0.242783 0.706380 0.261084 0.205255
H58   H     H_    0.293768 0.717335 0.041622 0.271198
H59   H     H_    0.231324 0.632767 0.061475 0.266437
H60   H     H_    0.333130 0.617518 0.061240 0.275573
H61   H     H_    0.691681 0.326084 0.707539 0.172197
H62   H     H_    0.678404 0.230811 0.634998 0.110063
H63   H     H_    0.653266 0.280275 0.911381 0.234504
H64   H     H_    0.626787 0.183486 0.850539 0.219671
H65   H     H_    0.762583 0.158104 0.796389 0.263071
H66   H     H_    0.754207 0.179969 0.961732 0.264863
H67   H     H_    0.267317 0.626875 0.557705 0.206093
H68   H     H_    0.789121 0.255750 0.856954 0.276610
H69   H     H_    0.579070 0.683330 0.768427 0.184208
H70   H     H_    0.636376 0.773189 0.762813 0.116936
H71   H     H_    0.701277 0.603623 0.730631 0.242666
H72   H     H_    0.753243 0.695999 0.751268 0.202769
H73   H     H_    0.696211 0.709807 0.967291 0.269966
H74   H     H_    0.756937 0.623485 0.950937 0.264678
H75   H     H_    0.654855 0.611207 0.944514 0.277591
H76   H     H_    0.307551 0.329654 0.309885 0.164329
H77   H     H_    0.322441 0.230764 0.369998 0.122205
H78   H     H_    0.740165 0.373116 0.530044 0.162582
H79   H     H_    0.340554 0.290309 0.096285 0.235685
H80   H     H_    0.363489 0.190375 0.149486 0.218582
H81   H     H_    0.228321 0.170403 0.211071 0.268461
H82   H     H_    0.233670 0.197036 0.046600 0.268184
H83   H     H_    0.205126 0.271095 0.158779 0.266876
H84   H     H_    0.387361 0.865561 0.414808 0.165710
N1    N     N_R   0.500000 0.707230 0.500000 -0.164496
N2    N     N_R   0.500000 0.292770 0.500000 -0.172482
N3    N     N_2   0.552123 0.205449 0.107760 -0.307339
N4    N     N_2   0.442705 0.793016 0.886434 -0.320565
N5    N     N_2   0.444266 0.204756 0.897353 -0.306428
N6    N     N_2   0.541337 0.795515 0.101792 -0.320899
O1    O     O_R   0.389110 0.566570 0.499990 -0.575527
O2    O     O_3   0.108657 0.358291 0.539835 -0.645567
O3    O     O_3   0.117405 0.643175 0.599737 -0.635962
O4    O     O_3   0.887506 0.360541 0.571276 -0.636503
O5    O     O_3   0.373219 0.708827 0.408954 -0.631891
O6    O     O_3   0.579116 0.295429 0.686165 -0.600813
O7    O     O_3   0.625630 0.707440 0.595714 -0.633695
O8    O     O_3   0.420112 0.296602 0.314893 -0.597822
O9    O     O_R   0.610890 0.433430 0.500010 -0.620734
O10   O     O_R   0.610890 0.566570 0.500010 -0.572617
O11   O     O_R   0.389110 0.433430 0.499990 -0.621686
O12   O     O_R   0.499990 0.566540 0.316770 -0.631408
O13   O     O_R   0.500010 0.433460 0.683230 -0.568314
O14   O     O_R   0.500010 0.566540 0.683230 -0.627468
O15   O     O_R   0.499990 0.433460 0.316770 -0.569032
O16   O     O_3   0.894168 0.642277 0.475957 -0.644160
Zn1   Zn    Zn3+2 0.500000 0.588860 0.500000 0.977319
Zn2   Zn    Zn3+2 0.500000 0.411140 0.500000 0.990962

loop_
_geom_bond_atom_site_label_1
_geom_bond_atom_site_label_2
_ccdc_geom_bond_type
C13   O14   A    
C55   H49   S    
C34   C56   S    
C47   H29   S    
C32   O4    S    
C70   H81   S    
C63   H65   S    
C63   H68   S    
C14   C18   A    
C40   N3    S    
C30   O2    S    
C37   H78   S    
C60   H60   S    
C49   H32   S    
C42   N5    S    
C3    O5    S    
C12   O10   A    
C52   H41   S    
C53   H42   S    
C25   C28   A    
C15   C19   A    
C1    O11   A    
C26   C27   A    
C62   C63   S    
C30   C35   A    
H18   N6    S    
C23   C45   S    
C23   C29   A    
C19   C21   A    
C24   C26   A    
C5    C72   A    
C69   C70   S    
C19   N5    S    
C65   H71   S    
C64   H69   S    
C52   H40   S    
C59   H55   S    
C41   H11   S    
C29   C33   A    
C47   H27   S    
C7    C9    S    
N1    Zn1   S    
C62   H64   S    
C64   O7    S    
N2    Zn2   S    
C66   H73   S    
C68   H77   S    
C57   H50   S    
C46   C47   S    
C68   O8    S    
O14   Zn1   S    
C4    N2    A    
C31   O3    S    
C45   C56   T    
C68   C69   S    
C16   H23   S    
C22   C25   A    
C16   C22   A    
C40   H8    S    
C11   O15   A    
C43   H20   S    
C9    C10   T    
C68   H76   S    
C53   H44   S    
C46   H26   S    
C59   C60   S    
H9    N4    S    
C54   H47   S    
C50   H36   S    
C21   N3    S    
C2    C6    A    
C54   O4    S    
C72   H3    S    
C60   H59   S    
C6    N2    A    
C44   C46   S    
C61   H62   S    
C12   O9    A    
C55   H48   S    
C33   H45   S    
C2    C8    A    
C31   C34   A    
C17   C24   A    
C30   C34   A    
C61   H61   S    
C51   C52   S    
C69   H79   S    
C14   H1    S    
C44   O16   S    
C7    C72   A    
C65   H72   S    
C15   C26   A    
C49   H33   S    
O11   Zn2   S    
C58   C59   S    
C48   H31   S    
C50   H37   S    
C43   H19   S    
C47   H28   S    
C70   H83   S    
C67   H84   S    
C62   H63   S    
C35   C39   A    
C37   C38   A    
C44   H24   S    
C57   H51   S    
C41   N4    S    
C16   C20   A    
O15   Zn2   S    
C48   H30   S    
C40   H7    S    
H14   N5    S    
C32   C37   A    
C58   O5    S    
C66   H75   S    
C15   H12   S    
H5    N3    S    
O10   Zn1   S    
C48   C49   S    
C46   H25   S    
C58   H54   S    
C51   H38   S    
C5    N1    A    
C29   O16   S    
C55   C57   S    
O1    Zn1   S    
C50   H35   S    
C63   H66   S    
C40   H6    S    
O9    Zn2   S    
C51   O3    S    
C42   H16   S    
C60   H58   S    
C2    H4    S    
C52   C53   S    
C6    O8    S    
C13   O13   A    
C54   C55   S    
C59   H57   S    
C11   O12   A    
C51   H39   S    
C70   H82   S    
C69   H80   S    
C36   C39   A    
C3    C67   A    
C24   C28   A    
C71   H2    S    
O13   Zn2   S    
C48   O2    S    
C41   H13   S    
C33   C38   A    
C22   C27   A    
C42   H17   S    
C64   C65   S    
C61   O6    S    
C54   H46   S    
C17   H34   S    
C23   C32   A    
C57   H52   S    
C18   N6    S    
C64   H70   S    
C11   C28   S    
C41   H10   S    
C43   H21   S    
C18   C20   A    
C65   C66   S    
C14   C25   A    
C12   C38   S    
C61   C62   S    
C36   H67   S    
C17   C21   A    
C66   H74   S    
C44   H22   S    
C1    C39   S    
C7    C67   A    
C43   N6    S    
C4    O6    S    
C1    O1    A    
C58   H53   S    
C8    C10   S    
C49   C50   S    
C20   N4    S    
C35   H56   S    
C3    N1    A    
C5    O7    S    
C31   C36   A    
C13   C27   S    
C42   H15   S    
O12   Zn1   S    
C4    C71   A    
C53   H43   S    
C8    C71   A    
