data_mof_unit_30023.cif
_audit_creation_date              2012-10-26T18:28:53-0400
_audit_creation_method            fapswitch 2.2
_symmetry_space_group_name_H-M    P1
_symmetry_Int_Tables_number       1
_space_group_crystal_system       triclinic
_cell_length_a                    11.662994
_cell_length_b                    13.015946
_cell_length_c                    15.803704
_cell_angle_alpha                 92.244505
_cell_angle_beta                  73.878038
_cell_angle_gamma                 99.919815
_cell_volume                      2270.1790831

loop_
_atom_site_label
_atom_site_type_symbol
_atom_type_description
_atom_site_fract_x
_atom_site_fract_y
_atom_site_fract_z
_atom_type_partial_charge
C1    C     C_R   0.520695 0.700811 0.501669 0.548662
C2    C     C_R   0.358740 0.016356 0.468872 0.015263
C3    C     C_R   0.630383 0.874802 0.526341 -0.111891
C4    C     C_R   0.369755 0.125196 0.473428 -0.111826
C5    C     C_R   0.443127 0.860911 0.485568 -0.144833
C6    C     C_R   0.557015 0.139084 0.514200 -0.145088
C7    C     C_R   0.449969 0.969046 0.488406 0.032801
C8    C     C_R   0.550210 0.030954 0.511309 0.032784
C9    C     C_R   0.941246 0.598229 0.580681 -0.180899
C10   C     C_R   0.058759 0.401791 0.419315 -0.181582
C11   C     C_R   0.822660 0.588547 0.573105 0.041801
C12   C     C_R   0.479329 0.299187 0.498284 0.548976
C13   C     C_R   0.177347 0.411476 0.426881 0.041754
C14   C     C_R   0.859159 0.457237 0.465388 0.041005
C15   C     C_R   0.140840 0.542755 0.534628 0.040886
C16   C     C_R   0.426615 0.495131 0.668423 0.547088
C17   C     C_R   0.573457 0.506350 0.331681 0.545903
C18   C     C_R   0.979291 0.464244 0.470755 0.007371
C19   C     C_R   0.020713 0.535767 0.529251 0.007584
C20   C     C_R   0.381928 0.492027 0.765200 -0.026652
C21   C     C_R   0.618060 0.521874 0.235725 -0.025953
C22   C     C_R   0.217241 0.455531 0.900250 0.017052
C23   C     C_R   0.352841 0.481404 0.089822 -0.140874
C24   C     C_R   0.773789 0.597784 0.105958 0.016616
C25   C     C_R   0.258685 0.464831 0.807828 -0.114806
C26   C     C_R   0.736572 0.570001 0.195939 -0.115131
C27   C     C_R   0.465057 0.514420 0.814610 -0.144373
C28   C     C_R   0.536028 0.498003 0.185717 -0.139466
C29   C     C_R   0.428403 0.510720 0.906966 0.019200
C30   C     C_R   0.565644 0.529688 0.097372 0.020266
C31   C     C_R   0.303693 0.476720 0.949958 0.049906
C32   C     C_R   0.686825 0.577989 0.056548 0.048187
C33   C     C_R   0.513987 0.536139 0.957155 0.035107
C34   C     C_R   0.634216 0.585548 0.918858 -0.140487
C35   C     C_R   0.477353 0.514385 0.048901 0.035331
C36   C     C_3   0.083021 0.420960 0.946547 -0.282831
C37   C     C_3   0.995799 0.412052 0.888914 -0.451098
C38   C     C_3   0.903005 0.652069 0.062758 -0.282962
C39   C     C_3   0.992212 0.661169 0.118863 -0.451499
C40   C     C_3   0.748419 0.049841 0.556335 -0.278615
C41   C     C_3   0.839336 0.990774 0.578350 -0.454346
C42   C     C_3   0.251849 0.950157 0.443266 -0.278708
C43   C     C_3   0.161023 0.009222 0.421124 -0.454327
C44   C     C_R   0.268453 0.464196 0.041778 -0.142192
C45   C     C_R   0.717769 0.606706 0.967434 -0.142018
C46   C     C_R   0.467989 0.185837 0.495623 -0.022530
C47   C     C_R   0.532103 0.814159 0.504213 -0.022278
C48   C     C_R   0.641456 0.983645 0.530819 0.015211
Cu1   Cu    Cu3+1 0.386820 0.492450 0.493500 0.926762
Cu2   Cu    Cu3+1 0.613180 0.507550 0.506500 0.925527
H1    H     H_    0.175092 0.439117 0.078285 0.097808
H2    H     H_    0.196351 0.447913 0.767802 0.135457
H3    H     H_    0.315951 0.471644 0.160044 0.102903
H4    H     H_    0.665899 0.613437 0.851684 0.097116
H5    H     H_    0.631622 0.188531 0.531207 0.124026
H6    H     H_    0.368507 0.811458 0.468581 0.124128
H7    H     H_    0.302848 0.164309 0.458931 0.133175
H8    H     H_    0.697273 0.835687 0.540860 0.133097
H9    H     H_    0.173815 0.597240 0.579515 0.112604
H10   H     H_    0.826178 0.402727 0.420521 0.113366
H11   H     H_    0.005194 0.487344 0.854813 0.143899
H12   H     H_    0.807253 0.646247 0.933394 0.098443
H13   H     H_    0.012297 0.348742 0.840110 0.150628
H14   H     H_    0.901223 0.392670 0.931117 0.148944
H15   H     H_    0.071283 0.344027 0.978785 0.144208
H16   H     H_    0.054158 0.478010 0.998667 0.143056
H17   H     H_    0.965654 0.713141 0.175821 0.150576
H18   H     H_    0.996959 0.582998 0.142181 0.142870
H19   H     H_    0.083979 0.695692 0.078358 0.146407
H20   H     H_    0.941204 0.608627 0.002670 0.140647
H21   H     H_    0.899864 0.731988 0.042204 0.144535
H22   H     H_    0.794095 0.937368 0.635437 0.146314
H23   H     H_    0.238067 0.362986 0.387133 0.117216
H24   H     H_    0.882821 0.946283 0.520404 0.146194
H25   H     H_    0.911322 0.047466 0.596355 0.139513
H26   H     H_    0.799336 0.104593 0.501170 0.139726
H27   H     H_    0.712546 0.096312 0.615292 0.145899
H28   H     H_    0.117415 0.053693 0.479040 0.146450
H29   H     H_    0.206379 0.062649 0.364068 0.146617
H30   H     H_    0.089118 0.952532 0.403019 0.139051
H31   H     H_    0.287806 0.903674 0.384337 0.146051
H32   H     H_    0.200844 0.895416 0.498419 0.139644
H33   H     H_    0.761942 0.637046 0.612845 0.116867
H34   H     H_    0.970431 0.654083 0.626277 0.079502
H35   H     H_    0.029571 0.345937 0.373722 0.080262
H36   H     H_    0.448654 0.454144 0.218029 0.116479
H37   H     H_    0.559435 0.530891 0.779058 0.124280
H38   H     H_    0.797797 0.588241 0.236718 0.135286
N1    N     N_R   0.216750 0.481110 0.483710 -0.227997
N2    N     N_R   0.783250 0.518890 0.516290 -0.228252
O1    O     O_R   0.419950 0.645670 0.495380 -0.507122
O2    O     O_R   0.580050 0.354330 0.504620 -0.506921
O3    O     O_R   0.611110 0.658410 0.506370 -0.510384
O4    O     O_R   0.388890 0.341590 0.493630 -0.509659
O5    O     O_R   0.350820 0.490050 0.621260 -0.504194
O6    O     O_R   0.649180 0.509950 0.378740 -0.504618
O7    O     O_R   0.541970 0.502800 0.632250 -0.504724
O8    O     O_R   0.458030 0.497200 0.367750 -0.503149

loop_
_geom_bond_atom_site_label_1
_geom_bond_atom_site_label_2
_ccdc_geom_bond_type
C21   C26   A    
C38   H20   S    
C10   H35   S    
C27   C29   A    
C32   C45   A    
C14   C18   A    
C5    H6    S    
C2    C7    A    
C42   H32   S    
C6    H5    S    
C8    C48   A    
C7    C8    A    
C4    C46   A    
C43   H28   S    
C15   C19   A    
C5    C47   A    
C30   C35   A    
C36   C37   S    
C24   C26   A    
C38   C39   S    
C36   H16   S    
C16   O7    A    
C15   N1    A    
C20   C25   A    
C43   H29   S    
C29   C33   A    
C3    C48   A    
C18   C19   A    
C39   H18   S    
C14   N2    A    
Cu1   O8    S    
C9    C19   A    
Cu2   O7    S    
C22   C25   A    
C4    H7    S    
C24   C38   S    
Cu1   O4    S    
C17   O8    A    
C41   H24   S    
C1    O1    A    
C12   O4    A    
C42   H31   S    
C15   H9    S    
Cu1   O1    S    
C37   H13   S    
Cu2   N2    S    
C23   H3    S    
C22   C31   A    
C26   H38   S    
C12   C46   S    
C31   C44   A    
C34   C45   A    
C36   H15   S    
C1    C47   S    
C6    C8    A    
C11   H33   S    
C43   H30   S    
C17   C21   S    
C23   C44   A    
C40   H26   S    
C2    C4    A    
C24   C32   A    
C2    C42   S    
C41   H25   S    
C16   C20   S    
C33   C34   A    
C39   H19   S    
C17   O6    A    
C45   H12   S    
Cu1   O5    S    
C27   H37   S    
C9    C11   A    
C41   H22   S    
C44   H1    S    
Cu2   O2    S    
C40   C41   S    
C21   C28   A    
C13   H23   S    
C34   H4    S    
C23   C35   A    
C28   H36   S    
C42   C43   S    
C37   H14   S    
C14   H10   S    
C5    C7    A    
C40   C48   S    
C38   H21   S    
C16   O5    A    
C6    C46   A    
C13   N1    A    
C39   H17   S    
C12   O2    A    
Cu1   N1    S    
C10   C13   A    
C37   H11   S    
Cu2   O3    S    
C20   C27   A    
C22   C36   S    
C28   C30   A    
C25   H2    S    
C29   C31   A    
C30   C32   A    
C11   N2    A    
Cu2   O6    S    
C10   C18   A    
C3    C47   A    
C33   C35   A    
C9    H34   S    
C3    H8    S    
C1    O3    A    
Cu1   Cu2   S    
C40   H27   S    
