data_mof_unit_35355.cif
_audit_creation_date              2012-12-10T17:32:16-0500
_audit_creation_method            fapswitch 2.2
_symmetry_space_group_name_H-M    P1
_symmetry_Int_Tables_number       1
_space_group_crystal_system       triclinic
_cell_length_a                    12.401834
_cell_length_b                    13.237633
_cell_length_c                    15.021216
_cell_angle_alpha                 76.203203
_cell_angle_beta                  101.023139
_cell_angle_gamma                 116.952487
_cell_volume                      2124.90619476

loop_
_atom_site_label
_atom_site_type_symbol
_atom_type_description
_atom_site_fract_x
_atom_site_fract_y
_atom_site_fract_z
_atom_type_partial_charge
C1    C     C_R   0.855145 0.286852 0.507192 0.815193
C2    C     C_R   0.984634 0.597885 0.070201 0.035719
C3    C     C_R   0.049980 0.344526 0.086725 -0.201819
C4    C     C_R   0.049095 0.343767 0.994123 -0.178777
C5    C     C_R   0.027891 0.427495 0.926223 0.109731
C6    C     C_R   0.006349 0.512566 0.951098 -0.004517
C7    C     C_R   0.986776 0.598174 0.882688 0.075930
C8    C     C_R   0.967475 0.683045 0.908737 -0.151047
C9    C     C_R   0.966700 0.683184 0.000974 -0.208940
C10   C     C_R   0.027536 0.427118 0.833753 -0.305852
C11   C     C_R   0.007118 0.510952 0.765792 -0.149019
C12   C     C_R   0.001982 0.503151 0.670261 0.805944
C13   C     C_R   0.990044 0.599442 0.789707 0.397782
C14   C     C_R   0.275981 0.030254 0.393347 -0.185578
C15   C     C_R   0.228408 0.835913 0.473158 -0.039059
C16   C     C_R   0.814959 0.082772 0.561866 -0.185386
C17   C     C_R   0.735901 0.967086 0.579369 -0.136709
C18   C     C_R   0.612788 0.930758 0.550440 -0.162591
C19   C     C_R   0.566339 0.009870 0.499372 0.081477
C20   C     C_R   0.649887 0.125695 0.472326 0.092710
C21   C     C_R   0.439982 0.977953 0.473708 0.068699
C22   C     C_R   0.400359 0.059508 0.416868 0.160812
C23   C     C_R   0.144967 0.713494 0.487914 0.803987
C24   C     C_R   0.485256 0.168256 0.381910 -0.225701
C25   C     C_R   0.608190 0.199769 0.407066 -0.196147
C26   C     C_R   0.351373 0.867405 0.502988 -0.221298
C27   C     C_R   0.190230 0.918856 0.421555 -0.168934
C28   C     C_R   0.772995 0.163660 0.510741 -0.076914
C29   C     C_R   0.306988 0.285400 0.598458 -0.283212
C30   C     C_R   0.769551 0.656105 0.382309 0.125210
C31   C     C_R   0.675371 0.688936 0.351612 -0.255534
C32   C     C_R   0.564699 0.626068 0.389299 -0.127608
C33   C     C_R   0.546856 0.529993 0.460292 0.014601
C34   C     C_R   0.002542 0.503797 0.328831 0.826542
C35   C     C_R   0.644302 0.495716 0.487217 0.190264
C36   C     C_R   0.435965 0.464935 0.505135 -0.058700
C37   C     C_R   0.412502 0.352546 0.553243 0.067952
C38   C     C_R   0.499895 0.311534 0.563690 -0.282541
C39   C     C_R   0.619655 0.390057 0.550817 -0.006422
C40   C     C_R   0.348089 0.505803 0.506287 0.538100
C41   C     C_R   0.225554 0.330441 0.598413 0.008442
C42   C     C_R   0.984563 0.596893 0.164291 -0.034749
C43   C     C_R   0.007048 0.511420 0.231107 -0.135401
C44   C     C_R   0.030154 0.429246 0.204938 -0.272102
C45   C     C_R   0.028867 0.428560 0.112404 0.120140
C46   C     C_R   0.006045 0.512779 0.044638 0.073114
Cu1   Cu    Cu3+1 0.098270 0.475420 0.521130 0.951003
Cu2   Cu    Cu3+1 0.901730 0.524580 0.478870 0.973890
H1    H     H_    0.456600 0.229265 0.334456 0.150970
H2    H     H_    0.245320 0.092690 0.350921 0.132598
H3    H     H_    0.375471 0.802854 0.548075 0.173628
H4    H     H_    0.908783 0.109190 0.590562 0.148566
H5    H     H_    0.557300 0.839844 0.568009 0.157392
H6    H     H_    0.769589 0.905398 0.618433 0.161609
H7    H     H_    0.669629 0.282318 0.372896 0.175250
H8    H     H_    0.142773 0.277381 0.631474 0.140147
H9    H     H_    0.482098 0.227173 0.605283 0.174950
H10   H     H_    0.288734 0.199113 0.635397 0.154098
H11   H     H_    0.046526 0.363878 0.257036 0.153863
H12   H     H_    0.854986 0.705405 0.352383 0.147060
H13   H     H_    0.493026 0.651104 0.357572 0.186170
H14   H     H_    0.687576 0.762492 0.297252 0.159851
H15   H     H_    0.067184 0.279370 0.138314 0.141172
H16   H     H_    0.065537 0.278019 0.975597 0.144425
H17   H     H_    0.041318 0.360263 0.814266 0.164741
H18   H     H_    0.953283 0.750344 0.857939 0.195535
H19   H     H_    0.953040 0.751721 0.016965 0.178472
H20   H     H_    0.094961 0.896593 0.399922 0.141809
N1    N     N_R   0.246280 0.438190 0.553160 -0.208311
N2    N     N_R   0.754320 0.561190 0.447410 -0.219097
O1    O     O_R   0.972510 0.318130 0.526570 -0.601345
O2    O     O_R   0.806530 0.359650 0.490890 -0.583771
O3    O     O_R   0.082980 0.479210 0.647590 -0.579427
O4    O     O_R   0.917000 0.520730 0.611900 -0.549878
O5    O     O_R   0.193470 0.640350 0.509110 -0.553304
O6    O     O_R   0.027490 0.681870 0.473430 -0.599873
O7    O     O_R   0.083000 0.479270 0.388100 -0.605440
O8    O     O_R   0.917020 0.520790 0.352410 -0.580783
C47   C     C_2   0.966800 0.687493 0.193206 0.821775
O9    O     O_2   0.871182 0.696714 0.169881 -0.614274
O10   O     O_R   0.059685 0.761765 0.247272 -0.773422
H21   H     H_    0.038525 0.822403 0.259429 0.313735
O11   O     O_3   0.367279 0.615279 0.463999 -0.751972
H22   H     H_    0.302331 0.606622 0.412566 0.341004
C48   C     C_2   0.695369 0.380933 0.637378 0.922555
O12   O     O_2   0.720662 0.448779 0.689300 -0.574059
O13   O     O_R   0.723262 0.286220 0.666147 -0.779902
H23   H     H_    0.770431 0.286573 0.729220 0.317302
O14   O     O_3   0.978562 0.688585 0.724716 -0.726291
H24   H     H_    0.022008 0.701951 0.671189 0.319782

loop_
_geom_bond_atom_site_label_1
_geom_bond_atom_site_label_2
_ccdc_geom_bond_type
C16   C28   A    
C21   C26   A    
C8    H18   S    
C12   O4    A    
Cu2   O6    S    
C19   C20   A    
C31   H14   S    
C23   O6    A    
O13   H23   S    
O10   H21   S    
C7    C8    A    
C14   H2    S    
C48   O12   D    
C2    C46   A    
C1    O1    A    
O11   H22   S    
C36   C37   A    
C19   C21   A    
C32   H13   S    
C34   O7    A    
C5    C6    A    
C20   C25   A    
C44   H11   S    
C33   C36   A    
C18   C19   A    
Cu2   O8    S    
Cu1   N1    S    
C27   H20   S    
C18   H5    S    
C31   C32   A    
C35   N2    A    
C8    C9    A    
C30   H12   S    
C1    C28   S    
C14   C27   A    
C29   C41   A    
C15   C23   S    
C42   C47   S    
C21   C22   A    
C40   O11   S    
Cu2   O2    S    
C30   N2    A    
C48   O13   S    
C1    O2    A    
C40   N1    A    
Cu2   O4    S    
C36   C40   A    
C24   C25   A    
Cu1   O3    S    
C16   H4    S    
Cu2   N2    S    
C47   O10   S    
C16   C17   A    
C15   C26   A    
C20   C28   A    
C45   C46   A    
C3    C45   A    
C35   C39   A    
C43   C44   A    
C9    H19   S    
C41   H8    S    
C37   C38   A    
C38   H9    S    
C15   C27   A    
Cu1   Cu2   S    
C30   C31   A    
C17   C18   A    
Cu1   O1    S    
C22   C24   A    
C42   C43   A    
C39   C48   S    
C3    C4    A    
C44   C45   A    
C41   N1    A    
C10   H17   S    
C24   H1    S    
C6    C46   A    
C13   O14   S    
C34   C43   S    
C25   H7    S    
C23   O5    A    
C4    C5    A    
C11   C12   S    
C6    C7    A    
C3    H15   S    
C4    H16   S    
C32   C33   A    
C14   C22   A    
Cu1   O5    S    
C5    C10   A    
C26   H3    S    
C34   O8    A    
C11   C13   A    
C38   C39   A    
C2    C42   A    
C33   C35   A    
C10   C11   A    
C47   O9    D    
C7    C13   A    
C29   H10   S    
C29   C37   A    
Cu1   O7    S    
O14   H24   S    
C12   O3    A    
C2    C9    A    
C17   H6    S    
