data_mof_unit_60141.cif
_audit_creation_date              2012-12-10T20:06:45-0500
_audit_creation_method            fapswitch 2.2
_symmetry_space_group_name_H-M    P1
_symmetry_Int_Tables_number       1
_space_group_crystal_system       monoclinic
_cell_length_a                    32.109273
_cell_length_b                    32.109272
_cell_length_c                    38.753132
_cell_angle_alpha                 89.999965
_cell_angle_beta                  90.0
_cell_angle_gamma                 90.0
_cell_volume                      39954.6876024

loop_
_atom_site_label
_atom_site_type_symbol
_atom_type_description
_atom_site_fract_x
_atom_site_fract_y
_atom_site_fract_z
_atom_type_partial_charge
C1    C     C_R   0.919372 0.500000 0.000000 0.912244
C2    C     C_R   0.497605 0.228549 0.968309 -0.007744
C3    C     C_R   0.537512 0.992336 0.840748 0.452244
C4    C     C_R   0.007663 0.462488 0.159252 0.452241
C5    C     C_R   0.537512 0.007664 0.159252 0.452244
C6    C     C_R   0.992337 0.537512 0.159252 0.452242
C7    C     C_R   0.462488 0.992335 0.159252 0.452242
C8    C     C_R   0.492339 0.962487 0.340748 0.452262
C9    C     C_R   0.962488 0.507663 0.340748 0.452240
C10   C     C_R   0.507661 0.037512 0.340747 0.452225
C11   C     C_R   0.037512 0.492337 0.340748 0.452241
C12   C     C_R   0.507661 0.962488 0.659252 0.452225
C13   C     C_R   0.228549 0.502396 0.968309 -0.007739
C14   C     C_R   0.037512 0.507663 0.659252 0.452239
C15   C     C_R   0.492339 0.037513 0.659252 0.452262
C16   C     C_R   0.962488 0.492337 0.659252 0.452241
C17   C     C_R   1.000000 0.500000 0.822402 -0.162856
C18   C     C_R   0.500000 0.000000 0.822402 -0.162853
C19   C     C_R   0.000000 0.500000 0.177598 -0.162856
C20   C     C_R   0.500000 1.000000 0.177598 -0.162853
C21   C     C_R   0.500000 1.000000 0.322402 -0.162841
C22   C     C_R   0.000000 0.500000 0.322402 -0.162855
C23   C     C_R   0.500000 0.000000 0.677598 -0.162841
C24   C     C_R   0.502396 0.771451 0.968309 -0.007736
C25   C     C_R   0.000000 0.500000 0.677598 -0.162855
C26   C     C_R   1.000000 0.500000 0.894691 -0.240396
C27   C     C_R   0.500000 0.000000 0.894691 -0.240396
C28   C     C_R   0.000000 0.500000 0.105309 -0.240395
C29   C     C_R   0.500000 1.000000 0.105309 -0.240396
C30   C     C_R   0.500000 1.000000 0.394691 -0.240394
C31   C     C_R   0.000000 0.500000 0.394691 -0.240395
C32   C     C_R   0.500000 0.000000 0.605309 -0.240394
C33   C     C_R   0.000000 0.500000 0.605309 -0.240396
C34   C     C_R   0.000000 0.500000 0.715244 0.239197
C35   C     C_R   0.228549 0.497604 0.031691 -0.007739
C36   C     C_R   0.500000 0.000000 0.715244 0.239185
C37   C     C_R   1.000000 0.500000 0.284756 0.239197
C38   C     C_R   0.500000 1.000000 0.284756 0.239185
C39   C     C_R   0.500000 1.000000 0.215244 0.239186
C40   C     C_R   0.000000 0.500000 0.215244 0.239197
C41   C     C_R   0.500000 0.000000 0.784756 0.239186
C42   C     C_R   0.000000 0.500000 0.784756 0.239197
C43   C     C_R   0.727848 0.502359 0.031197 -0.134292
C44   C     C_R   0.502358 0.272152 0.031197 -0.134294
C45   C     C_R   0.272152 0.497641 0.031197 -0.134291
C46   C     C_R   0.502395 0.228549 0.031691 -0.007736
C47   C     C_R   0.497641 0.727848 0.031197 -0.134289
C48   C     C_R   0.272152 0.502359 0.968803 -0.134292
C49   C     C_R   0.497642 0.272152 0.968803 -0.134289
C50   C     C_R   0.727848 0.497641 0.968803 -0.134291
C51   C     C_R   0.502359 0.727848 0.968803 -0.134294
C52   C     C_R   0.227848 0.002358 0.531197 -0.134292
C53   C     C_R   0.002341 0.772152 0.531198 -0.134308
C54   C     C_R   0.772152 0.998328 0.531228 -0.134292
C55   C     C_R   0.997644 0.227848 0.531197 -0.134279
C56   C     C_R   0.772152 0.001672 0.468772 -0.134292
C57   C     C_R   0.771451 0.502396 0.031691 -0.007739
C58   C     C_R   0.997658 0.772152 0.468802 -0.134280
C59   C     C_R   0.227848 0.997642 0.468803 -0.134291
C60   C     C_R   0.002356 0.227848 0.468803 -0.134307
C61   C     C_R   0.706425 0.500000 0.000000 0.058405
C62   C     C_R   0.500000 0.293575 0.000000 0.058406
C63   C     C_R   0.293575 0.500000 0.000000 0.058405
C64   C     C_R   0.500000 0.706425 1.000000 0.058406
C65   C     C_R   0.206425 1.000000 0.500000 0.058406
C66   C     C_R   0.000000 0.793575 0.500000 0.058405
C67   C     C_R   0.793575 1.000000 0.500000 0.058400
C68   C     C_R   0.497604 0.771451 0.031691 -0.007744
C69   C     C_R   1.000000 0.206425 0.500000 0.058405
C70   C     C_2   0.793662 0.504940 0.065348 0.438784
C71   C     C_2   0.504939 0.206338 0.065348 0.438778
C72   C     C_2   0.206338 0.495060 0.065348 0.438784
C73   C     C_2   0.495059 0.793662 0.065348 0.438794
C74   C     C_2   0.206338 0.504940 0.934652 0.438784
C75   C     C_2   0.495061 0.206338 0.934652 0.438794
C76   C     C_2   0.793662 0.495059 0.934652 0.438784
C77   C     C_2   0.504941 0.793662 0.934652 0.438777
C78   C     C_2   0.293662 0.004939 0.565348 0.438784
C79   C     C_R   0.271451 0.997605 0.468309 -0.007740
C80   C     C_2   0.004905 0.706338 0.565350 0.438767
C81   C     C_2   0.706338 0.996496 0.565412 0.438792
C82   C     C_2   0.995064 0.293662 0.565348 0.438799
C83   C     C_2   0.706338 0.003504 0.434588 0.438791
C84   C     C_2   0.995095 0.706338 0.434650 0.438799
C85   C     C_2   0.293662 0.995061 0.434652 0.438785
C86   C     C_2   0.004936 0.293662 0.434652 0.438767
C87   C     C_R   0.997621 0.728549 0.468308 -0.007749
C88   C     C_R   0.728549 0.001699 0.468278 -0.007744
C89   C     C_R   0.500000 0.080628 0.000000 0.912244
C90   C     C_R   0.002394 0.271451 0.468308 -0.007732
C91   C     C_R   0.728549 0.998301 0.531722 -0.007745
C92   C     C_R   0.002378 0.728549 0.531692 -0.007733
C93   C     C_R   0.271451 0.002395 0.531691 -0.007739
C94   C     C_R   0.997606 0.271451 0.531691 -0.007749
C95   C     C_R   0.793280 0.500000 0.000000 -0.018348
C96   C     C_R   0.500000 0.206720 0.000000 -0.018347
C97   C     C_R   0.206720 0.500000 0.000000 -0.018348
C98   C     C_R   0.500000 0.793280 1.000000 -0.018347
C99   C     C_R   0.293280 1.000000 0.500000 -0.018348
C100  C     C_R   0.080628 0.500000 0.000000 0.912244
C101  C     C_R   1.000000 0.706720 0.500000 -0.018347
C102  C     C_R   0.706720 0.000000 0.500000 -0.018347
C103  C     C_R   1.000000 0.293280 0.500000 -0.018347
C104  C     C_1   0.662043 0.500000 0.000000 -0.024968
C105  C     C_1   0.500000 0.337957 0.000000 -0.024968
C106  C     C_1   0.337957 0.500000 0.000000 -0.024968
C107  C     C_1   0.500000 0.662043 1.000000 -0.024968
C108  C     C_1   0.162043 1.000000 0.500000 -0.024968
C109  C     C_1   0.000000 0.837957 0.500000 -0.024969
C110  C     C_1   0.837957 1.000000 0.500000 -0.024969
C111  C     C_R   0.500000 0.919372 0.000000 0.912243
C112  C     C_1   1.000000 0.162043 0.500000 -0.024969
C113  C     C_1   0.837930 0.500000 0.000000 -0.110565
C114  C     C_1   0.500000 0.162070 0.000000 -0.110565
C115  C     C_1   0.162070 0.500000 0.000000 -0.110565
C116  C     C_1   0.500000 0.837930 1.000000 -0.110565
C117  C     C_1   0.337930 1.000000 0.500000 -0.110566
C118  C     C_1   0.000000 0.662070 0.500000 -0.110566
C119  C     C_1   0.662070 0.000000 0.500000 -0.110562
C120  C     C_1   0.000000 0.337930 0.500000 -0.110566
C121  C     C_1   0.875200 0.500000 0.000000 -0.165821
C122  C     C_R   0.419372 1.000000 0.500000 0.912244
C123  C     C_1   0.500000 0.124800 0.000000 -0.165821
C124  C     C_1   0.124800 0.500000 0.000000 -0.165821
C125  C     C_1   0.500000 0.875199 0.000000 -0.165821
C126  C     C_1   0.375200 1.000000 0.500000 -0.165822
C127  C     C_1   0.000000 0.624800 0.500000 -0.165823
C128  C     C_1   0.624800 0.000000 0.500000 -0.165820
C129  C     C_1   0.000000 0.375200 0.500000 -0.165823
C130  C     C_1   0.624779 0.500000 0.000000 -0.146874
C131  C     C_1   0.500000 0.375221 0.000000 -0.146875
C132  C     C_1   0.375221 0.500000 0.000000 -0.146875
C133  C     C_R   1.000000 0.580628 0.500000 0.912244
C134  C     C_1   0.500000 0.624779 1.000000 -0.146874
C135  C     C_1   0.124779 1.000000 0.500000 -0.146874
C136  C     C_1   1.000000 0.875221 0.500000 -0.146875
C137  C     C_1   0.875221 1.000000 0.500000 -0.146875
C138  C     C_1   1.000000 0.124779 0.500000 -0.146874
C139  C     C_R   0.500000 0.419411 0.000000 0.896608
C140  C     C_R   0.419411 0.500000 0.000000 0.896608
C141  C     C_R   0.500000 0.580589 0.000000 0.896609
C142  C     C_R   0.580589 0.500000 0.000000 0.896609
C143  C     C_R   0.000000 0.919411 0.500000 0.896608
C144  C     C_R   0.580628 0.000000 0.500000 0.912237
C145  C     C_R   0.919411 0.000000 0.500000 0.896609
C146  C     C_R   0.000000 0.080589 0.500000 0.896609
C147  C     C_R   0.080589 1.000000 0.500000 0.896608
C148  C     C_R   1.000000 0.500000 0.932436 0.921990
C149  C     C_R   0.500000 0.000000 0.932436 0.921990
C150  C     C_R   0.000000 0.500000 0.067564 0.921989
C151  C     C_R   0.500000 1.000000 0.067564 0.921989
C152  C     C_R   0.500000 0.000000 0.432436 0.921988
C153  C     C_R   0.000000 0.500000 0.432436 0.921990
C154  C     C_R   0.500000 0.000000 0.567564 0.921987
C155  C     C_R   1.000000 0.419372 0.500000 0.912244
C156  C     C_R   0.000000 0.500000 0.567564 0.921989
C157  C     C_R   0.993397 0.462887 0.876621 -0.171071
C158  C     C_R   0.462887 0.006604 0.876621 -0.171072
C159  C     C_R   0.006603 0.537113 0.876621 -0.171074
C160  C     C_R   0.537113 0.993396 0.876621 -0.171071
C161  C     C_R   0.006603 0.462887 0.123379 -0.171074
C162  C     C_R   0.537113 0.006604 0.123379 -0.171071
C163  C     C_R   0.993397 0.537113 0.123379 -0.171071
C164  C     C_R   0.462887 0.993396 0.123379 -0.171072
C165  C     C_R   0.493399 0.962886 0.376621 -0.171060
C166  C     C_R   0.771451 0.497604 0.968309 -0.007740
C167  C     C_R   0.962887 0.506603 0.376621 -0.171073
C168  C     C_R   0.506601 0.037113 0.376620 -0.171083
C169  C     C_R   0.037113 0.493397 0.376621 -0.171072
C170  C     C_R   0.506601 0.962887 0.623379 -0.171083
C171  C     C_R   0.037113 0.506603 0.623379 -0.171072
C172  C     C_R   0.493399 0.037114 0.623379 -0.171061
C173  C     C_R   0.962887 0.493397 0.623379 -0.171073
C174  C     C_R   0.992337 0.462488 0.840748 0.452242
C175  C     C_R   0.462488 0.007665 0.840748 0.452242
C176  C     C_R   0.007663 0.537512 0.840748 0.452241
H1    H     H_    0.987810 0.434049 0.890391 0.199427
H2    H     H_    0.934049 0.512190 0.390391 0.199425
H3    H     H_    0.512186 0.065951 0.390391 0.199420
H4    H     H_    0.065951 0.487810 0.390391 0.199425
H5    H     H_    0.512186 0.934048 0.609609 0.199420
H6    H     H_    0.065951 0.512190 0.609609 0.199425
H7    H     H_    0.487814 0.065952 0.609609 0.199428
H8    H     H_    0.934049 0.487810 0.609609 0.199426
H9    H     H_    0.710378 0.504166 0.055098 0.192833
H10   H     H_    0.504165 0.289622 0.055098 0.192832
H11   H     H_    0.289622 0.495834 0.055098 0.192833
H12   H     H_    0.434049 0.012192 0.890391 0.199425
H13   H     H_    0.495834 0.710378 0.055098 0.192834
H14   H     H_    0.289622 0.504166 0.944902 0.192833
H15   H     H_    0.495835 0.289622 0.944902 0.192834
H16   H     H_    0.710378 0.495834 0.944902 0.192833
H17   H     H_    0.504166 0.710378 0.944902 0.192832
H18   H     H_    0.210378 0.004164 0.555098 0.192833
H19   H     H_    0.004135 0.789622 0.555099 0.192829
H20   H     H_    0.789622 0.997046 0.555151 0.192839
H21   H     H_    0.995838 0.210378 0.555098 0.192839
H22   H     H_    0.789622 0.002953 0.444849 0.192839
H23   H     H_    0.012190 0.565951 0.890391 0.199425
H24   H     H_    0.995865 0.789622 0.444901 0.192839
H25   H     H_    0.210378 0.995835 0.444902 0.192834
H26   H     H_    0.004162 0.210378 0.444902 0.192829
H27   H     H_    0.973661 0.429950 0.801060 0.352289
H28   H     H_    0.429951 0.026342 0.801060 0.352288
H29   H     H_    0.026339 0.570050 0.801060 0.352286
H30   H     H_    0.570049 0.973659 0.801060 0.352281
H31   H     H_    0.026339 0.429949 0.198940 0.352286
H32   H     H_    0.570049 0.026341 0.198940 0.352281
H33   H     H_    0.973661 0.570050 0.198940 0.352288
H34   H     H_    0.565951 0.987808 0.890391 0.199425
H35   H     H_    0.429951 0.973658 0.198940 0.352288
H36   H     H_    0.473664 0.929948 0.301060 0.352287
H37   H     H_    0.929950 0.526339 0.301060 0.352288
H38   H     H_    0.526335 0.070052 0.301060 0.352276
H39   H     H_    0.070050 0.473661 0.301060 0.352287
H40   H     H_    0.526335 0.929948 0.698940 0.352276
H41   H     H_    0.070050 0.526339 0.698940 0.352286
H42   H     H_    0.473664 0.070052 0.698940 0.352287
H43   H     H_    0.929949 0.473661 0.698940 0.352289
H44   H     H_    0.827409 0.505022 0.066412 0.078215
H45   H     H_    0.012190 0.434049 0.109609 0.199425
H46   H     H_    0.505021 0.172591 0.066412 0.078214
H47   H     H_    0.172591 0.494978 0.066412 0.078215
H48   H     H_    0.494977 0.827409 0.066412 0.078214
H49   H     H_    0.172591 0.505022 0.933588 0.078215
H50   H     H_    0.494979 0.172591 0.933588 0.078215
H51   H     H_    0.827409 0.494978 0.933588 0.078215
H52   H     H_    0.505023 0.827409 0.933588 0.078214
H53   H     H_    0.327409 0.005020 0.566412 0.078214
H54   H     H_    0.004985 0.672591 0.566414 0.078215
H55   H     H_    0.672591 0.996437 0.566477 0.078205
H56   H     H_    0.565951 0.012192 0.109609 0.199425
H57   H     H_    0.994983 0.327409 0.566412 0.078212
H58   H     H_    0.672591 0.003563 0.433523 0.078205
H59   H     H_    0.995015 0.672591 0.433586 0.078212
H60   H     H_    0.327409 0.994979 0.433588 0.078214
H61   H     H_    0.005017 0.327409 0.433587 0.078216
H62   H     H_    0.987810 0.565951 0.109609 0.199427
H63   H     H_    0.434049 0.987808 0.109609 0.199425
H64   H     H_    0.487814 0.934048 0.390391 0.199428
N1    N     N_R   0.025810 0.474239 0.767139 -0.128387
N2    N     N_R   0.025761 0.525810 0.267139 -0.128385
N3    N     N_R   0.474189 0.025760 0.267139 -0.128393
N4    N     N_R   0.974239 0.474190 0.267139 -0.128395
N5    N     N_R   0.474189 0.974240 0.732861 -0.128393
N6    N     N_R   0.974239 0.525810 0.732861 -0.128394
N7    N     N_R   0.525811 0.025761 0.732861 -0.128359
N8    N     N_R   0.025761 0.474190 0.732861 -0.128386
N9    N     N_R   0.525763 0.025809 0.767139 -0.128369
N10   N     N_R   0.974190 0.525762 0.767139 -0.128392
N11   N     N_R   0.474237 0.974191 0.767139 -0.128395
N12   N     N_R   0.974190 0.474238 0.232861 -0.128392
N13   N     N_R   0.474237 0.025809 0.232861 -0.128395
N14   N     N_R   0.025810 0.525761 0.232861 -0.128387
N15   N     N_R   0.525763 0.974191 0.232861 -0.128369
N16   N     N_R   0.525811 0.974239 0.267139 -0.128359
O1    O     O_R   0.939070 0.534360 0.999910 -0.610364
O2    O     O_R   0.034360 0.560930 0.499910 -0.610364
O3    O     O_R   0.560930 0.965640 0.499910 -0.610359
O4    O     O_R   0.965640 0.439070 0.499910 -0.610365
O5    O     O_R   0.560930 0.034360 0.500090 -0.610359
O6    O     O_R   0.965640 0.560930 0.500090 -0.610364
O7    O     O_R   0.439070 0.965640 0.500090 -0.610364
O8    O     O_R   0.034360 0.439070 0.500090 -0.610364
O9    O     O_R   0.000050 0.534360 0.948990 -0.620298
O10   O     O_R   0.534360 0.999950 0.948990 -0.620296
O11   O     O_R   0.999950 0.465640 0.948990 -0.620296
O12   O     O_R   0.534360 0.060930 0.999910 -0.610364
O13   O     O_R   0.465640 0.000050 0.948990 -0.620297
O14   O     O_R   0.999950 0.534360 0.051010 -0.620296
O15   O     O_R   0.465640 0.999950 0.051010 -0.620297
O16   O     O_R   0.000050 0.465640 0.051010 -0.620298
O17   O     O_R   0.534360 0.000050 0.051010 -0.620296
O18   O     O_R   0.500050 0.034360 0.448990 -0.620289
O19   O     O_R   0.034360 0.499950 0.448990 -0.620297
O20   O     O_R   0.499950 0.965640 0.448990 -0.620305
O21   O     O_R   0.965640 0.500050 0.448990 -0.620297
O22   O     O_R   0.499950 0.034360 0.551010 -0.620306
O23   O     O_R   0.060930 0.465640 0.999910 -0.610364
O24   O     O_R   0.965640 0.499950 0.551010 -0.620298
O25   O     O_R   0.500050 0.965640 0.551010 -0.620289
O26   O     O_R   0.034360 0.500050 0.551010 -0.620297
O27   O     O_R   0.500080 0.438950 0.971150 -0.609526
O28   O     O_R   0.438950 0.499920 0.971150 -0.609528
O29   O     O_R   0.499920 0.561050 0.971150 -0.609530
O30   O     O_R   0.561050 0.500080 0.971150 -0.609529
O31   O     O_R   0.499920 0.438950 0.028850 -0.609530
O32   O     O_R   0.561050 0.499920 0.028850 -0.609530
O33   O     O_R   0.500080 0.561050 0.028850 -0.609528
O34   O     O_R   0.465640 0.939070 0.999910 -0.610364
O35   O     O_R   0.438950 0.500080 0.028850 -0.609529
O36   O     O_R   0.000080 0.938950 0.471150 -0.609521
O37   O     O_R   0.938950 0.999920 0.471150 -0.609529
O38   O     O_R   0.999920 0.061050 0.471150 -0.609535
O39   O     O_R   0.061050 0.000080 0.471150 -0.609528
O40   O     O_R   0.999920 0.938950 0.528850 -0.609535
O41   O     O_R   0.061050 0.999920 0.528850 -0.609529
O42   O     O_R   0.000080 0.061050 0.528850 -0.609523
O43   O     O_R   0.938950 0.000080 0.528850 -0.609529
O44   O     O_3   0.983026 0.424998 0.825010 -0.726865
O45   O     O_R   0.060930 0.534360 0.000090 -0.610364
O46   O     O_3   0.424998 0.016977 0.825010 -0.726869
O47   O     O_3   0.016974 0.575002 0.825010 -0.726875
O48   O     O_3   0.575002 0.983024 0.825010 -0.726870
O49   O     O_3   0.016974 0.424998 0.174990 -0.726876
O50   O     O_3   0.575002 0.016976 0.174990 -0.726870
O51   O     O_3   0.983026 0.575002 0.174990 -0.726865
O52   O     O_3   0.424998 0.983023 0.174990 -0.726869
O53   O     O_3   0.483030 0.924997 0.325010 -0.726850
O54   O     O_3   0.924998 0.516974 0.325010 -0.726870
O55   O     O_3   0.516970 0.075003 0.325009 -0.726909
O56   O     O_R   0.465640 0.060930 0.000090 -0.610364
O57   O     O_3   0.075002 0.483026 0.325010 -0.726872
O58   O     O_3   0.516970 0.924997 0.674991 -0.726909
O59   O     O_3   0.075002 0.516974 0.674990 -0.726873
O60   O     O_3   0.483030 0.075003 0.674990 -0.726850
O61   O     O_3   0.924998 0.483026 0.674990 -0.726870
O62   O     O_2   0.774451 0.506992 0.092498 -0.543152
O63   O     O_2   0.506990 0.225549 0.092498 -0.543161
O64   O     O_2   0.225549 0.493008 0.092498 -0.543152
O65   O     O_2   0.493007 0.774451 0.092498 -0.543146
O66   O     O_2   0.225549 0.506992 0.907502 -0.543153
O67   O     O_R   0.939070 0.465640 0.000090 -0.610364
O68   O     O_2   0.493009 0.225549 0.907502 -0.543145
O69   O     O_2   0.774451 0.493008 0.907502 -0.543152
O70   O     O_2   0.506993 0.774451 0.907502 -0.543161
O71   O     O_2   0.274451 0.006990 0.592498 -0.543153
O72   O     O_2   0.006941 0.725549 0.592501 -0.543167
O73   O     O_2   0.725549 0.995043 0.592588 -0.543146
O74   O     O_2   0.993015 0.274451 0.592498 -0.543136
O75   O     O_2   0.725549 0.004956 0.407412 -0.543146
O76   O     O_2   0.993059 0.725549 0.407499 -0.543135
O77   O     O_2   0.274451 0.993010 0.407502 -0.543152
O78   O     O_R   0.534360 0.939070 0.000090 -0.610364
O79   O     O_2   0.006985 0.274451 0.407502 -0.543168
O80   O     O_R   0.439070 0.034360 0.499910 -0.610365
Zn1   Zn    Zn3+2 0.000000 0.545910 0.000000 1.006774
Zn2   Zn    Zn3+2 0.500000 0.500000 0.038460 1.020897
Zn3   Zn    Zn3+2 0.000000 0.000000 0.461540 1.020900
Zn4   Zn    Zn3+2 0.000000 1.000000 0.538460 1.020899
Zn5   Zn    Zn3+2 0.545910 0.000000 0.000000 1.006776
Zn6   Zn    Zn3+2 0.000000 0.454090 0.000000 1.006774
Zn7   Zn    Zn3+2 0.454090 0.000000 0.000000 1.006774
Zn8   Zn    Zn3+2 0.500000 0.045910 0.500000 1.006773
Zn9   Zn    Zn3+2 0.045910 0.500000 0.500000 1.006773
Zn10  Zn    Zn3+2 0.500000 0.954090 0.500000 1.006773
Zn11  Zn    Zn3+2 0.954090 0.500000 0.500000 1.006769
Zn12  Zn    Zn3+2 0.500000 0.500000 0.961540 1.020898

loop_
_geom_bond_atom_site_label_1
_geom_bond_atom_site_label_2
_ccdc_geom_bond_type
C16   C173  A    
C38   N16   A    
C82   C94   S    
C33   C156  S    
C105  C131  T    
C27   C158  A    
C106  C132  T    
C12   C23   A    
O12   Zn5   S    
C24   C98   A    
C79   C99   A    
H36   O53   S    
C74   H49   S    
C72   H47   S    
C39   N15   A    
O36   Zn3   S    
O1    Zn1   S    
O6    Zn11  S    
C83   O75   D    
C1    O67   A    
C34   N6    A    
C76   C166  S    
O41   Zn4   S    
C97   C115  S    
O33   Zn2   S    
C65   C108  S    
C25   C34   S    
C40   N14   A    
C119  C128  T    
C24   C51   A    
C83   C88   S    
C32   C172  A    
C37   N4    A    
O16   Zn6   S    
C96   C114  S    
C144  O5    A    
C44   C46   A    
C56   H22   S    
C10   C21   A    
C175  O46   S    
C54   H20   S    
C112  C138  T    
C84   H59   S    
O42   Zn4   S    
C86   C90   S    
C150  O16   A    
C47   C64   A    
C48   C63   A    
C11   O57   S    
O20   Zn10  S    
C100  C124  S    
C148  O9    A    
C80   C92   S    
O2    Zn9   S    
C9    C167  A    
C41   N11   A    
C26   C148  S    
C128  C144  S    
C32   C154  S    
C60   H26   S    
C133  O2    A    
C31   C167  A    
C11   C169  A    
C132  C140  S    
C35   C45   A    
C95   C166  A    
C79   C85   S    
O32   Zn2   S    
C43   C61   A    
O15   Zn7   S    
C16   C25   A    
O67   Zn6   S    
C49   C62   A    
C51   C64   A    
C80   H54   S    
C88   C102  A    
C145  O43   A    
C39   N13   A    
C60   C90   A    
N3    N13   A    
C89   O12   A    
C2    C96   A    
C68   C73   S    
C140  O35   A    
C55   H21   S    
C174  O44   S    
C15   C172  A    
C13   C97   A    
O18   Zn8   S    
C149  O13   A    
C24   C77   S    
C167  H2    S    
C46   C96   A    
C6    C163  A    
C77   H52   S    
C10   C168  A    
C23   C36   S    
C81   H55   S    
C82   H57   S    
C4    C161  A    
C52   C65   A    
C134  C141  S    
C122  C126  S    
O38   Zn3   S    
C150  O14   A    
C146  O38   A    
C102  C119  S    
C5    C20   A    
C78   H53   S    
C38   N3    A    
C101  C118  S    
C148  O11   A    
C136  C143  S    
C5    O50   S    
C56   C88   A    
C29   C151  S    
C43   H9    S    
C59   H25   S    
C71   O63   D    
C87   C101  A    
O5    Zn8   S    
C72   O64   D    
C21   C38   S    
C173  H8    S    
C161  H45   S    
H31   O49   S    
C157  C174  A    
C66   C109  S    
O43   Zn4   S    
C111  O78   A    
C140  O28   A    
C141  O29   A    
C28   C161  A    
C68   C98   A    
C146  O42   A    
C120  C129  T    
C52   C93   A    
C70   O62   D    
C108  C135  T    
O28   Zn12  S    
C51   H17   S    
C45   H11   S    
C86   O79   D    
C111  C125  S    
O19   Zn9   S    
C99   C117  S    
C67   C110  S    
C30   C152  S    
C164  H63   S    
O27   Zn12  S    
C153  O19   A    
C55   C69   A    
C114  C123  T    
C135  C147  S    
C159  C176  A    
C100  O23   A    
C118  C127  T    
O24   Zn11  S    
C3    O48   S    
C117  C126  T    
C165  H64   S    
C81   O73   D    
C169  H4    S    
C29   C162  A    
C30   C165  A    
C14   C171  A    
C158  H12   S    
C74   O66   D    
C6    O51   S    
C116  C125  T    
C12   O58   S    
C85   O77   D    
O80   Zn8   S    
C59   C65   A    
C156  O26   A    
C172  H7    S    
C60   C69   A    
C138  C146  S    
C130  C142  S    
C1    C121  S    
C131  C139  S    
C19   C40   S    
C43   C57   A    
C158  C175  A    
C113  C121  T    
C142  O32   A    
C50   C61   A    
O37   Zn3   S    
O14   Zn1   S    
C162  H56   S    
C28   C163  A    
O9    Zn1   S    
O10   Zn5   S    
C77   O70   D    
C47   C68   A    
C103  C120  S    
H39   O57   S    
O17   Zn5   S    
C137  C145  S    
C156  O24   A    
O21   Zn11  S    
C40   N12   A    
C69   C112  S    
C122  O7    A    
O11   Zn6   S    
N1    N8    A    
C153  O21   A    
C100  O45   A    
C82   O74   D    
C144  O3    A    
C17   C42   S    
C147  O41   A    
C50   C166  A    
C57   C70   S    
C50   H16   S    
C93   C99   A    
C48   H14   S    
O4    Zn11  S    
C159  H23   S    
N5    N11   A    
C71   H46   S    
C104  C130  T    
C76   H51   S    
H41   O59   S    
C29   C164  A    
C149  O10   A    
C55   C94   A    
C1    O1    A    
N7    N9    A    
C80   O72   D    
H33   O51   S    
O30   Zn12  S    
C59   C79   A    
C129  C155  S    
C20   C39   S    
C9    O54   S    
C31   C169  A    
C22   C37   S    
O26   Zn9   S    
H32   O50   S    
H37   O54   S    
C6    C19   A    
C84   O76   D    
C139  O31   A    
C26   C159  A    
C63   C106  S    
C14   O59   S    
O31   Zn2   S    
C46   C71   S    
C92   C101  A    
C155  O8    A    
C35   C72   S    
C152  O20   A    
C53   H19   S    
C33   C171  A    
C89   O56   A    
C122  O80   A    
C17   C174  A    
C115  C124  T    
C110  C137  T    
O45   Zn1   S    
C127  C133  S    
O56   Zn7   S    
C107  C134  T    
C168  H3    S    
C160  H34   S    
C7    C164  A    
C42   N1    A    
C5    C162  A    
H28   O46   S    
C30   C168  A    
C54   C91   A    
C61   C104  S    
O7    Zn10  S    
C147  O39   A    
O34   Zn7   S    
C14   C25   A    
C143  O40   A    
C90   C103  A    
C81   C91   S    
C13   C74   S    
C42   N10   A    
H29   O47   S    
C7    C20   A    
H27   O44   S    
C154  O25   A    
C152  O18   A    
C44   H10   S    
H30   O48   S    
C28   C150  S    
C85   H60   S    
O40   Zn4   S    
C171  H6    S    
C84   C87   S    
C58   C87   A    
C62   C105  S    
C10   O55   S    
C58   H24   S    
O25   Zn10  S    
C111  O34   A    
C3    C18   A    
O3    Zn10  S    
H38   O55   S    
C9    C22   A    
C16   O61   S    
C78   C93   S    
C86   H61   S    
C26   C157  A    
C4    C19   A    
C58   C66   A    
O23   Zn6   S    
C8    O53   S    
O22   Zn8   S    
C33   C173  A    
C17   C176  A    
C4    O49   S    
C18   C175  A    
C15   C23   A    
C27   C149  S    
C109  C136  T    
O13   Zn7   S    
H42   O60   S    
C31   C153  S    
O35   Zn2   S    
C76   O69   D    
C133  O6    A    
C78   O71   D    
C83   H58   S    
C154  O22   A    
C52   H18   S    
C8    C165  A    
C18   C41   S    
C12   C170  A    
C54   C67   A    
C89   C123  S    
C44   C62   A    
C27   C160  A    
C45   C63   A    
C70   H44   S    
C47   H13   S    
C36   N5    A    
C2    C49   A    
H43   O61   S    
C15   O60   S    
C143  O36   A    
C98   C116  S    
C2    C75   S    
C75   O68   D    
C53   C92   A    
C8    C21   A    
C157  H1    S    
C53   C66   A    
C163  H62   S    
H35   O52   S    
C142  O30   A    
O78   Zn5   S    
C7    O52   S    
C151  O17   A    
C170  H5    S    
C34   N8    A    
C3    C160  A    
N2    N14   A    
C91   C102  A    
N15   N16   A    
C64   C107  S    
N6    N10   A    
C36   N7    A    
C32   C170  A    
C37   N2    A    
N4    N12   A    
C73   H48   S    
C75   H50   S    
C94   C103  A    
C13   C48   A    
C141  O33   A    
C49   H15   S    
C73   O65   D    
C56   C67   A    
C11   C22   A    
C139  O27   A    
C176  O47   S    
O39   Zn3   S    
C145  O37   A    
C155  O4    A    
C151  O15   A    
C95   C113  S    
H40   O58   S    
C57   C95   A    
C41   N9    A    
O8    Zn9   S    
C35   C97   A    
O29   Zn12  S    
