data_mof_unit_64907.cif
_audit_creation_date              2012-12-10T20:13:21-0500
_audit_creation_method            fapswitch 2.2
_symmetry_space_group_name_H-M    P1
_symmetry_Int_Tables_number       1
_space_group_crystal_system       triclinic
_cell_length_a                    19.295065
_cell_length_b                    18.502953
_cell_length_c                    15.745567
_cell_angle_alpha                 90.016254
_cell_angle_beta                  90.515196
_cell_angle_gamma                 89.893705
_cell_volume                      5621.1771943

loop_
_atom_site_label
_atom_site_type_symbol
_atom_type_description
_atom_site_fract_x
_atom_site_fract_y
_atom_site_fract_z
_atom_type_partial_charge
C1    C     C_R   0.365736 0.500078 0.499608 0.849929
C2    C     C_3   0.575613 0.499347 0.952323 -0.348558
C3    C     C_3   0.575100 0.495046 0.050113 -0.351464
C4    C     C_1   0.500723 0.500188 0.825712 0.022145
C5    C     C_1   0.499543 0.499796 0.174308 0.019504
C6    C     C_1   0.499318 0.499920 0.249537 -0.097479
C7    C     C_R   0.742568 0.503311 0.421328 0.118041
C8    C     C_R   0.746036 0.498114 0.576286 0.141436
C9    C     C_R   0.814392 0.504255 0.420142 -0.165118
C10   C     C_R   0.817841 0.498155 0.574137 -0.166986
C11   C     C_R   0.852184 0.501436 0.496319 0.046691
C12   C     C_R   0.708375 0.500101 0.499571 -0.122034
C13   C     C_R   0.964205 0.546390 0.551227 -0.196942
C14   C     C_R   0.962858 0.458394 0.437152 -0.197596
C15   C     C_R   0.499372 0.499986 0.338253 0.918521
C16   C     C_R   0.036290 0.545945 0.552978 -0.031878
C17   C     C_R   0.034931 0.458671 0.434355 -0.031487
C18   C     C_R   0.071875 0.502092 0.493586 -0.097944
C19   C     C_R   0.927680 0.502201 0.494719 0.076417
C20   C     C_R   0.182305 0.439642 0.522635 -0.078793
C21   C     C_R   0.183249 0.562214 0.466879 -0.078225
C22   C     C_R   0.254119 0.439001 0.523934 -0.170122
C23   C     C_R   0.255029 0.562028 0.469314 -0.166165
C24   C     C_R   0.290652 0.500375 0.497762 -0.029142
C25   C     C_R   0.147114 0.501200 0.494023 0.187380
C26   C     C_R   0.541790 0.730799 0.551272 0.322144
C27   C     C_R   0.541468 0.268935 0.551518 0.319988
C28   C     C_R   0.539845 0.806486 0.546385 -0.273864
C29   C     C_R   0.539501 0.193274 0.546522 -0.274368
C30   C     C_R   0.495125 0.841577 0.488833 0.079989
C31   C     C_R   0.495061 0.158414 0.488624 0.077792
C32   C     C_R   0.633905 0.499980 0.500856 0.950595
C33   C     C_R   0.451978 0.798089 0.437759 -0.253657
C34   C     C_R   0.452192 0.202111 0.437284 -0.252881
C35   C     C_R   0.455398 0.722267 0.444235 0.010725
C36   C     C_R   0.455657 0.277933 0.443855 0.009325
C37   C     C_R   0.432568 0.962014 0.470810 -0.159496
C38   C     C_R   0.432554 0.038195 0.470696 -0.159982
C39   C     C_R   0.494543 0.077253 0.482640 0.129874
C40   C     C_R   0.494576 0.922748 0.482845 0.129717
C41   C     C_R   0.556631 0.037779 0.491750 -0.158216
C42   C     C_R   0.556649 0.962028 0.491843 -0.158499
C43   C     C_R   0.499988 0.500012 0.661798 0.936309
C44   C     C_3   0.465280 0.570748 0.049365 -0.022142
C45   C     C_3   0.457879 0.433649 0.048583 -0.026387
C46   C     C_3   0.461164 0.431992 0.949454 -0.015302
C47   C     C_3   0.462699 0.569342 0.950133 -0.020081
C48   C     C_1   0.500465 0.500066 0.750488 -0.081676
C49   C     C_3   0.499713 0.499759 0.082799 0.103141
C50   C     C_3   0.500358 0.500246 0.917211 0.094594
H1    H     H_    0.407196 0.565404 0.930663 0.113022
H2    H     H_    0.406902 0.434451 0.924870 0.115621
H3    H     H_    0.154064 0.392509 0.543824 0.131827
H4    H     H_    0.155759 0.609779 0.444606 0.130267
H5    H     H_    0.280978 0.391100 0.546316 0.157281
H6    H     H_    0.282593 0.609634 0.448261 0.148463
H7    H     H_    0.572929 0.837666 0.588416 0.165207
H8    H     H_    0.572350 0.161913 0.588757 0.165540
H9    H     H_    0.416785 0.822296 0.391977 0.153046
H10   H     H_    0.417197 0.178059 0.391243 0.156597
H11   H     H_    0.422442 0.689448 0.403913 0.141927
H12   H     H_    0.422939 0.310906 0.403300 0.152795
H13   H     H_    0.383665 0.933912 0.464145 0.140907
H14   H     H_    0.383651 0.066473 0.463953 0.141119
H15   H     H_    0.605685 0.065547 0.498808 0.148505
H16   H     H_    0.605722 0.934118 0.498930 0.148473
H17   H     H_    0.410798 0.572291 0.072094 0.114990
H18   H     H_    0.402624 0.441781 0.066152 0.113866
H19   H     H_    0.607283 0.539427 0.077054 0.222372
H20   H     H_    0.599481 0.443416 0.070973 0.223559
H21   H     H_    0.603434 0.549029 0.932314 0.225152
H22   H     H_    0.605026 0.452673 0.926387 0.222176
H23   H     H_    0.840684 0.507933 0.359808 0.168216
H24   H     H_    0.846851 0.495363 0.633265 0.167646
H25   H     H_    0.936053 0.580403 0.595167 0.187779
H26   H     H_    0.933659 0.424351 0.393775 0.187592
N1    N     N_R   0.499980 0.689440 0.500010 -0.117740
N2    N     N_R   0.499980 0.310560 0.500010 -0.119970
O1    O     O_R   0.398180 0.560840 0.500000 -0.632007
O2    O     O_R   0.398180 0.439160 0.500000 -0.634313
O3    O     O_R   0.500010 0.560840 0.377160 -0.612812
O4    O     O_R   0.500010 0.439160 0.377160 -0.610537
O5    O     O_R   0.601820 0.560790 0.500040 -0.587842
O6    O     O_R   0.601820 0.439210 0.500040 -0.588635
O7    O     O_R   0.500000 0.560790 0.622880 -0.592171
O8    O     O_R   0.500000 0.439210 0.622880 -0.595644
Zn1   Zn    Zn3+2 0.500000 0.581210 0.500030 1.004464
Zn2   Zn    Zn3+2 0.500000 0.418790 0.500030 1.002018
C51   C     C_2   0.071924 0.590713 0.618889 0.906476
O9    O     O_2   0.128866 0.573305 0.646890 -0.614464
O10   O     O_R   0.038954 0.652206 0.650968 -0.792824
H27   H     H_    0.067763 0.677874 0.695866 0.358636
C52   C     C_2   0.069167 0.413785 0.368077 0.905803
O11   O     O_2   0.126120 0.430227 0.340729 -0.618358
O12   O     O_R   0.034932 0.353287 0.334978 -0.794182
H28   H     H_    0.062905 0.327435 0.289970 0.357847
I1    I     I_    0.611612 0.685652 0.640532 -0.231244
I2    I     I_    0.610806 0.313462 0.641386 -0.234802
I3    I     I_    0.483593 0.333170 0.114096 -0.279338
I4    I     I_    0.510615 0.666593 0.108182 -0.272576
I5    I     I_    0.500734 0.332985 0.892203 -0.246834
I6    I     I_    0.495557 0.667629 0.885724 -0.242684
I7    I     I_    0.689258 0.507547 0.302954 -0.329006
I8    I     I_    0.698693 0.496748 0.697452 -0.288979

loop_
_geom_bond_atom_site_label_1
_geom_bond_atom_site_label_2
_ccdc_geom_bond_type
C44   C49   S    
O5    Zn1   S    
C27   I2    S    
C52   O11   D    
C27   C29   A    
C10   H24   S    
C41   C42   A    
O12   H28   S    
C27   N2    A    
O1    Zn1   S    
C3    C49   S    
C23   H6    S    
C39   C41   A    
C45   C46   S    
C11   C19   S    
C5    C6    T    
C3    H19   S    
C37   C40   A    
C38   C39   A    
C2    H22   S    
C20   C25   A    
C46   H2    S    
C2    C50   S    
C6    C15   S    
C13   H25   S    
C23   C24   A    
C15   O4    A    
C43   C48   S    
C34   C36   A    
C44   C47   S    
C40   C42   A    
C16   C51   S    
C52   O12   S    
C47   I6    S    
C7    I7    S    
C12   C32   S    
C34   H10   S    
C14   C17   A    
C5    C49   S    
C18   C25   S    
C9    H23   S    
C36   H12   S    
C37   H13   S    
C47   C50   S    
C38   H14   S    
O7    Zn1   S    
C7    C12   A    
C32   O6    A    
C46   I5    S    
C26   N1    A    
C13   C19   A    
C43   O7    A    
C3    H20   S    
C15   O3    A    
C45   I3    S    
O10   H27   S    
C47   H1    S    
C28   H7    S    
C35   N1    A    
C4    C50   S    
C14   H26   S    
C37   C38   A    
C9    C11   A    
C45   C49   S    
C8    C12   A    
C45   H18   S    
C17   C18   A    
C31   C34   A    
C30   C40   S    
C35   H11   S    
C16   C18   A    
C8    I8    S    
O3    Zn1   S    
C8    C10   A    
C20   C22   A    
C21   C23   A    
C1    O1    A    
C22   C24   A    
C17   C52   S    
C2    H21   S    
C4    C48   T    
N2    Zn2   S    
C7    C9    A    
C32   O5    A    
C21   C25   A    
C30   C33   A    
C29   C31   A    
C43   O8    A    
C14   C19   A    
O6    Zn2   S    
C20   H3    S    
C41   H15   S    
C22   H5    S    
C46   C50   S    
C26   C28   A    
C28   C30   A    
C2    C3    S    
O2    Zn2   S    
C36   N2    A    
C44   I4    S    
C21   H4    S    
O4    Zn2   S    
C33   C35   A    
C31   C39   S    
O8    Zn2   S    
C10   C11   A    
C26   I1    S    
C29   H8    S    
N1    Zn1   S    
C1    C24   S    
C33   H9    S    
C51   O10   S    
C13   C16   A    
C42   H16   S    
C1    O2    A    
C44   H17   S    
C51   O9    D    
