data_mof_unit_44866.cif
_audit_creation_date              2012-12-10T16:48:41-0500
_audit_creation_method            fapswitch 2.2
_symmetry_space_group_name_H-M    P1
_symmetry_Int_Tables_number       1
_space_group_crystal_system       triclinic
_cell_length_a                    7.934266
_cell_length_b                    8.775343
_cell_length_c                    10.311139
_cell_angle_alpha                 90.308717
_cell_angle_beta                  98.397966
_cell_angle_gamma                 91.655115
_cell_volume                      709.894670806

loop_
_atom_site_label
_atom_site_type_symbol
_atom_type_description
_atom_site_fract_x
_atom_site_fract_y
_atom_site_fract_z
_atom_type_partial_charge
Br1   Br    Br    0.675859 0.634012 0.043752 -0.563586
Br2   Br    Br    0.489958 0.153984 0.029912 -0.494009
Br3   Br    Br    0.161563 0.378001 0.065726 -0.521318
Br4   Br    Br    0.736311 0.189162 0.808080 -0.456817
C1    C     C_R   0.540712 0.793164 0.495669 0.961167
C2    C     C_2   0.444056 0.046047 0.530834 -0.047594
C3    C     C_3   0.647084 0.007700 0.364044 -0.485946
C4    C     C_3   0.682363 0.890273 0.263356 -0.655263
C5    C     C_3   0.321729 0.987399 0.624977 -0.423680
C6    C     C_3   0.238699 0.102550 0.705973 -0.694579
C7    C     C_3   0.986074 0.331962 0.389659 -0.185132
C8    C     C_3   0.868771 0.313141 0.260420 -0.712455
C9    C     C_3   0.026506 0.622166 0.648699 -0.189896
C10   C     C_3   0.046755 0.519190 0.768053 -0.649694
C11   C     C_R   0.458609 0.206848 0.508535 0.957516
C12   C     C_R   0.569196 0.472699 0.737121 0.860118
C13   C     C_R   0.428453 0.507624 0.259544 0.887931
C14   C     C_2   0.597174 0.358241 0.843698 0.078100
C15   C     C_2   0.378643 0.480151 0.116333 0.088882
C16   C     C_2   0.512017 0.349952 0.947739 0.230220
C17   C     C_2   0.491156 0.485967 0.029227 0.094286
C18   C     C_2   0.546303 0.952941 0.471262 -0.071682
H1    H     H_    0.785686 0.813972 0.303834 0.278854
H2    H     H_    0.392477 0.909654 0.697002 0.251832
H3    H     H_    0.739403 0.280631 0.275589 0.275073
H4    H     H_    0.867709 0.420388 0.204494 0.314060
H5    H     H_    0.913380 0.219731 0.202076 0.270632
H6    H     H_    0.109992 0.346359 0.360520 0.263770
H7    H     H_    0.983754 0.226194 0.447015 0.151064
H8    H     H_    0.006160 0.399965 0.740534 0.277756
H9    H     H_    0.181060 0.520526 0.815365 0.259100
H10   H     H_    0.969275 0.561878 0.841244 0.274058
H11   H     H_    0.121760 0.716964 0.668931 0.164752
H12   H     H_    0.562731 0.824826 0.227574 0.273249
H13   H     H_    0.903167 0.675859 0.636251 0.222917
H14   H     H_    0.727651 0.949282 0.179414 0.296692
H15   H     H_    0.569238 0.092533 0.305323 0.253717
H16   H     H_    0.770722 0.057058 0.410934 0.241648
H17   H     H_    0.331557 0.190744 0.748740 0.279635
H18   H     H_    0.130077 0.156866 0.645788 0.245389
H19   H     H_    0.187215 0.042763 0.787100 0.280460
H20   H     H_    0.213455 0.924848 0.565494 0.225423
N1    N     N_2   0.940600 0.458860 0.467170 -0.012171
N2    N     N_2   0.059400 0.541140 0.532830 -0.040274
O1    O     O_R   0.391630 0.738350 0.508060 -0.640146
O2    O     O_R   0.608370 0.261650 0.491940 -0.621509
O3    O     O_R   0.674540 0.711990 0.487010 -0.631451
O4    O     O_R   0.325460 0.288010 0.512990 -0.654447
O5    O     O_R   0.411370 0.508250 0.688780 -0.622083
O6    O     O_R   0.588630 0.491750 0.311220 -0.595572
O7    O     O_R   0.694270 0.481880 0.667740 -0.585389
O8    O     O_R   0.305730 0.518120 0.332260 -0.600012
Zn1   Zn    Zn3+2 0.311100 0.517600 0.514050 0.939177
Zn2   Zn    Zn3+2 0.688900 0.482400 0.485950 0.957226

loop_
_geom_bond_atom_site_label_1
_geom_bond_atom_site_label_2
_ccdc_geom_bond_type
C13   O6    A    
N1    N2    D    
C5    H2    S    
Br1   C17   S    
C3    C18   S    
C5    C6    S    
C10   H9    S    
N1    Zn2   S    
C12   O7    A    
C8    H3    S    
C7    C8    S    
O7    Zn2   S    
Br4   C14   S    
O2    Zn2   S    
C2    C5    S    
C3    H15   S    
O1    Zn1   S    
C3    C4    S    
C4    H12   S    
C9    C10   S    
C16   C17   S    
C6    H19   S    
Br3   C15   S    
C1    O3    A    
C5    H20   S    
O6    Zn2   S    
C7    H6    S    
C10   H8    S    
O3    Zn2   S    
O5    Zn1   S    
C11   O4    A    
C13   O8    A    
C6    H18   S    
C13   C15   S    
C3    H16   S    
C9    H13   S    
C14   C16   D    
O4    Zn1   S    
C7    N1    S    
C8    H5    S    
Br2   C16   S    
C12   O5    A    
C2    C18   D    
C4    H1    S    
O8    Zn1   S    
C7    H7    S    
C12   C14   S    
C9    H11   S    
C4    H14   S    
C10   H10   S    
C11   O2    A    
C15   C17   D    
C2    C11   S    
C1    O1    A    
N2    Zn1   S    
C9    N2    S    
C1    C18   S    
C8    H4    S    
C6    H17   S    
