data_mof_unit_57720.cif
_audit_creation_date              2012-12-10T18:45:11-0500
_audit_creation_method            fapswitch 2.2
_symmetry_space_group_name_H-M    P1
_symmetry_Int_Tables_number       1
_space_group_crystal_system       triclinic
_cell_length_a                    10.828695
_cell_length_b                    9.875416
_cell_length_c                    10.698504
_cell_angle_alpha                 89.501572
_cell_angle_beta                  88.605298
_cell_angle_gamma                 89.419511
_cell_volume                      1143.63668505

loop_
_atom_site_label
_atom_site_type_symbol
_atom_type_description
_atom_site_fract_x
_atom_site_fract_y
_atom_site_fract_z
_atom_type_partial_charge
C1    C     C_R   0.260494 0.500917 0.513862 0.888368
C2    C     C_R   0.740504 0.498649 0.498443 0.884679
C3    C     C_R   0.939942 0.611993 0.470443 -0.230034
C4    C     C_R   0.061436 0.622897 0.503803 -0.116592
C5    C     C_R   0.554952 0.073221 0.404479 -0.057457
C6    C     C_R   0.446798 0.072302 0.596479 -0.078182
C7    C     C_R   0.556040 0.930070 0.404581 0.084185
C8    C     C_R   0.444004 0.929148 0.595541 0.046958
C9    C     C_R   0.490027 0.500808 0.259858 0.908640
C10   C     C_R   0.513136 0.499507 0.739257 0.882462
C11   C     C_R   0.422253 0.746931 0.094821 -0.088918
C12   C     C_R   0.593918 0.740864 0.892341 -0.056784
C13   C     C_R   0.458848 0.869087 0.034700 -0.091859
C14   C     C_R   0.555748 0.866321 0.944187 -0.090445
C15   C     C_R   0.537354 0.621144 0.938709 0.026685
C16   C     C_R   0.478816 0.623929 0.055707 0.020453
C17   C     C_R   0.480182 0.501452 0.125448 -0.057709
C18   C     C_R   0.530153 0.498499 0.872463 -0.056011
C19   C     C_R   0.497170 0.377840 0.064326 -0.163559
C20   C     C_R   0.511507 0.376569 0.936747 -0.165927
C21   C     C_R   0.063411 0.386367 0.571586 -0.034405
C22   C     C_R   0.935432 0.383244 0.561043 -0.045827
C23   C     C_R   0.873986 0.495253 0.505389 -0.151542
C24   C     C_R   0.127343 0.504182 0.534376 -0.142705
H1    H     H_    0.497965 0.282428 0.114528 0.175940
H2    H     H_    0.506817 0.280952 0.888900 0.176272
H3    H     H_    0.598872 0.129032 0.328279 0.133165
H4    H     H_    0.406582 0.127364 0.674544 0.144929
N1    N     N_R   0.500000 0.857200 0.500000 -0.110430
N2    N     N_R   0.500000 0.142810 0.500000 -0.095591
O1    O     O_R   0.316770 0.614620 0.499990 -0.609199
O2    O     O_R   0.683230 0.614620 0.500010 -0.612314
O3    O     O_R   0.316800 0.385290 0.500000 -0.606138
O4    O     O_R   0.683200 0.385290 0.500000 -0.613145
O5    O     O_R   0.500010 0.614690 0.316770 -0.637343
O6    O     O_R   0.499990 0.614690 0.683230 -0.639090
O7    O     O_R   0.500040 0.385360 0.316770 -0.626312
O8    O     O_R   0.499960 0.385360 0.683230 -0.631444
Zn1   Zn    Zn3+2 0.500000 0.653120 0.500000 1.022382
Zn2   Zn    Zn3+2 0.500000 0.346880 0.500000 0.992209
C25   C     C_2   0.316881 0.745130 0.186336 0.980062
O9    O     O_2   0.301437 0.838543 0.259228 -0.590575
O10   O     O_R   0.236156 0.635443 0.189654 -0.787732
H5    H     H_    0.167620 0.646034 0.255048 0.366275
C26   C     C_2   0.700166 0.731525 0.801439 0.955155
O11   O     O_2   0.718960 0.821613 0.724453 -0.632830
O12   O     O_R   0.778965 0.618563 0.804571 -0.798045
H6    H     H_    0.850229 0.625713 0.741807 0.347397
C27   C     C_1   0.394791 0.995227 0.062080 0.208585
N3    N     N_1   0.341500 0.094718 0.083715 -0.165732
C28   C     C_1   0.616155 0.990757 0.906660 0.217101
N4    N     N_1   0.666134 0.089261 0.876943 -0.166800
C29   C     C_1   0.126009 0.272608 0.630284 0.227548
N5    N     N_1   0.173797 0.181290 0.678029 -0.191682
C30   C     C_1   0.869995 0.263882 0.606419 0.264893
N6    N     N_1   0.818508 0.168410 0.642096 -0.121007
C31   C     C_2   0.889012 0.717623 0.387026 1.025790
O13   O     O_2   0.884611 0.694711 0.275396 -0.551592
O14   O     O_R   0.853500 0.844962 0.432109 -0.754897
H7    H     H_    0.861735 0.852525 0.525828 0.344141
C32   C     C_2   0.108310 0.760063 0.528754 0.934272
O15   O     O_2   0.123802 0.793056 0.636749 -0.611177
O16   O     O_R   0.122635 0.854990 0.432280 -0.735425
H8    H     H_    0.151250 0.945966 0.463205 0.360630
C33   C     C_1   0.617327 0.864395 0.301385 0.284336
N7    N     N_1   0.667382 0.814246 0.216821 -0.128369
C34   C     C_1   0.379768 0.861904 0.696720 0.274793
N8    N     N_1   0.327656 0.809317 0.779147 -0.133480

loop_
_geom_bond_atom_site_label_1
_geom_bond_atom_site_label_2
_ccdc_geom_bond_type
C15   C18   A    
O5    Zn1   S    
C30   N6    T    
C22   C30   S    
C7    N1    A    
C13   C14   A    
C7    C33   S    
C11   C13   A    
C25   O9    D    
C3    C23   A    
C19   C20   A    
C12   C15   A    
C10   O8    A    
O10   H5    S    
C21   C22   A    
N1    Zn1   S    
C9    O7    A    
C1    O3    A    
O14   H7    S    
C29   N5    T    
O8    Zn2   S    
C25   O10   S    
C2    O4    A    
C31   O13   D    
C8    C34   S    
C20   H2    S    
C10   C18   S    
C34   N8    T    
O4    Zn2   S    
C8    N1    A    
C21   C29   S    
C9    C17   S    
C17   C19   A    
C12   C14   A    
C3    C31   S    
C11   C25   S    
O7    Zn2   S    
C18   C20   A    
C26   O12   S    
C14   C28   S    
C32   O15   D    
C4    C24   A    
C27   N3    T    
C13   C27   S    
C31   O14   S    
O3    Zn2   S    
C15   C16   A    
C21   C24   A    
C19   H1    S    
N2    Zn2   S    
C28   N4    T    
O12   H6    S    
C26   O11   D    
C1    O1    A    
C1    C24   S    
C2    O2    A    
C33   N7    T    
C11   C16   A    
O2    Zn1   S    
C2    C23   S    
C5    C7    A    
C22   C23   A    
C16   C17   A    
C9    O5    A    
C6    C8    A    
C6    N2    A    
C5    H3    S    
C4    C32   S    
O6    Zn1   S    
C32   O16   S    
C6    H4    S    
C3    C4    A    
O16   H8    S    
C5    N2    A    
O1    Zn1   S    
C12   C26   S    
C10   O6    A    
