data_mof_unit_56544.cif
_audit_creation_date              2012-12-10T17:16:42-0500
_audit_creation_method            fapswitch 2.2
_symmetry_space_group_name_H-M    P1
_symmetry_Int_Tables_number       1
_space_group_crystal_system       triclinic
_cell_length_a                    10.097945
_cell_length_b                    10.655601
_cell_length_c                    10.812037
_cell_angle_alpha                 90.821197
_cell_angle_beta                  95.676529
_cell_angle_gamma                 79.187332
_cell_volume                      1137.1026044

loop_
_atom_site_label
_atom_site_type_symbol
_atom_type_description
_atom_site_fract_x
_atom_site_fract_y
_atom_site_fract_z
_atom_type_partial_charge
C1    C     C_R   0.443232 0.512246 0.267012 0.947971
C2    C     C_R   0.492702 0.741161 0.485396 0.893834
C3    C     C_R   0.751587 0.063062 0.458253 -0.206703
C4    C     C_R   0.247478 0.936739 0.538862 -0.207139
C5    C     C_R   0.838798 0.987212 0.383123 -0.190896
C6    C     C_R   0.160026 0.012406 0.613883 -0.192097
C7    C     C_R   0.799750 0.881548 0.321428 0.285401
C8    C     C_R   0.199033 0.117820 0.676098 0.285274
C9    C     C_R   0.675295 0.850231 0.342986 -0.208634
C10   C     C_R   0.323660 0.149143 0.655055 -0.209487
C11   C     C_R   0.591178 0.921626 0.426587 0.045760
C12   C     C_R   0.556535 0.495333 0.733078 0.945945
C13   C     C_R   0.407978 0.078063 0.571399 0.044511
C14   C     C_R   0.621204 0.037110 0.472370 0.093188
C15   C     C_R   0.377956 0.962714 0.525343 0.094114
C16   C     C_R   0.479483 0.878196 0.467532 -0.224538
C17   C     C_R   0.519905 0.121519 0.530763 -0.227594
C18   C     C_3   0.971274 0.220451 0.725750 -0.779944
C19   C     C_3   0.027324 0.778288 0.271936 -0.779823
C20   C     C_2   0.410308 0.531873 0.135153 -0.384730
C21   C     C_2   0.588558 0.504918 0.865326 -0.382603
C22   C     C_2   0.510728 0.541796 0.066752 -0.154558
C23   C     C_2   0.486569 0.545047 0.934306 -0.141707
C24   C     C_2   0.073891 0.488647 0.490380 -0.136485
C25   C     C_2   0.926109 0.511338 0.509640 -0.137805
C26   C     C_R   0.507153 0.258705 0.514103 0.899951
H1    H     H_    0.790686 0.138679 0.508303 0.173647
H2    H     H_    0.306901 0.535866 0.093933 0.146949
H3    H     H_    0.887695 0.582026 0.576919 0.174349
H4    H     H_    0.112305 0.417943 0.423115 0.174137
H5    H     H_    0.882736 0.381670 0.386268 0.160450
H6    H     H_    0.117264 0.618353 0.613712 0.158938
H7    H     H_    0.153618 0.269385 0.798741 0.219516
H8    H     H_    0.921580 0.290734 0.791612 0.238724
H9    H     H_    0.927404 0.132923 0.730764 0.235113
H10   H     H_    0.949390 0.261747 0.630649 0.244418
H11   H     H_    0.844775 0.729766 0.198958 0.216795
H12   H     H_    0.208730 0.861047 0.488558 0.173535
H13   H     H_    0.076902 0.707896 0.206103 0.238763
H14   H     H_    0.049039 0.736991 0.367049 0.244229
H15   H     H_    0.071479 0.865651 0.266956 0.235446
H16   H     H_    0.935483 0.013240 0.372314 0.146919
H17   H     H_    0.063264 0.986354 0.624288 0.146824
H18   H     H_    0.644430 0.769093 0.294605 0.139329
H19   H     H_    0.354504 0.229994 0.703954 0.142913
H20   H     H_    0.382159 0.571681 0.893690 0.187274
H21   H     H_    0.614388 0.537703 0.107640 0.182919
H22   H     H_    0.692706 0.478017 0.906269 0.146569
N1    N     N_2   0.157300 0.551390 0.551120 -0.205921
N2    N     N_2   0.842700 0.448610 0.448880 -0.206292
N3    N     N_2   0.116048 0.192380 0.760412 -0.308910
N4    N     N_2   0.882572 0.806703 0.237176 -0.308797
O1    O     O_R   0.568940 0.489660 0.307530 -0.613279
O2    O     O_R   0.431060 0.510340 0.692470 -0.615851
O3    O     O_R   0.348880 0.522640 0.340350 -0.614540
O4    O     O_R   0.651120 0.477360 0.659650 -0.614348
O5    O     O_R   0.610030 0.300280 0.483580 -0.618688
O6    O     O_R   0.389970 0.699720 0.516420 -0.621665
O7    O     O_R   0.389970 0.333270 0.516400 -0.606776
O8    O     O_R   0.610030 0.666730 0.483600 -0.609298
Zn1   Zn    Zn3+2 0.646940 0.477980 0.478080 0.923215
Zn2   Zn    Zn3+2 0.353060 0.522020 0.521920 0.922188

loop_
_geom_bond_atom_site_label_1
_geom_bond_atom_site_label_2
_ccdc_geom_bond_type
O6    Zn2   S    
C5    H16   S    
C2    O6    A    
O5    Zn1   S    
C25   N2    D    
C18   N3    S    
H7    N3    S    
C2    C16   S    
C11   C16   A    
C20   H2    S    
C8    N3    S    
C13   C17   A    
C21   H22   S    
C10   H19   S    
C3    H1    S    
C22   H21   S    
C1    O3    A    
C4    C15   A    
C23   H20   S    
C9    C11   A    
C14   C17   A    
C12   O4    A    
C3    C14   A    
C19   H13   S    
C18   H8    S    
C17   C26   S    
C19   N4    S    
C18   H9    S    
C8    C10   A    
C11   C14   A    
C4    H12   S    
C7    N4    S    
C24   H4    S    
C6    H17   S    
C13   C15   A    
C21   C23   D    
C25   H3    S    
C26   O5    A    
C2    O8    A    
H6    N1    S    
C19   H14   S    
H5    N2    S    
O1    Zn1   S    
C15   C16   A    
O7    Zn2   S    
O3    Zn2   S    
C7    C9    A    
N2    Zn1   S    
C24   C25   S    
C4    C6    A    
C26   O7    A    
C24   N1    D    
C5    C7    A    
H11   N4    S    
C1    O1    A    
O4    Zn1   S    
C1    C20   S    
C6    C8    A    
N1    Zn2   S    
O2    Zn2   S    
C3    C5    A    
C22   C23   S    
C18   H10   S    
C12   C21   S    
C12   O2    A    
C19   H15   S    
C20   C22   D    
O8    Zn1   S    
C9    H18   S    
C10   C13   A    
