data_mof_unit_9144.cif
_audit_creation_date              2012-12-10T19:28:36-0500
_audit_creation_method            fapswitch 2.2
_symmetry_space_group_name_H-M    P1
_symmetry_Int_Tables_number       1
_space_group_crystal_system       triclinic
_cell_length_a                    27.784098
_cell_length_b                    10.496927
_cell_length_c                    9.775905
_cell_angle_alpha                 89.93474
_cell_angle_beta                  89.883625
_cell_angle_gamma                 89.643066
_cell_volume                      2851.05669116

loop_
_atom_site_label
_atom_site_type_symbol
_atom_type_description
_atom_site_fract_x
_atom_site_fract_y
_atom_site_fract_z
_atom_type_partial_charge
C1    C     C_R   0.500331 0.257827 0.500218 0.885342
C2    C     C_R   0.499714 0.742189 0.499782 0.877400
C3    C     C_R   0.102037 0.487686 0.495900 -0.095663
C4    C     C_R   0.898493 0.503962 0.502189 -0.074632
C5    C     C_R   0.127120 0.372873 0.524176 -0.033518
C6    C     C_R   0.873513 0.621989 0.493961 -0.063558
C7    C     C_R   0.100808 0.261741 0.553771 0.142049
C8    C     C_R   0.900405 0.736231 0.488518 0.119616
C9    C     C_R   0.128025 0.599375 0.466276 -0.010653
C10   C     C_R   0.872420 0.389411 0.511487 -0.014622
C11   C     C_R   0.353484 0.493909 0.500323 -0.061430
C12   C     C_R   0.646699 0.504007 0.499485 -0.078657
C13   C     C_R   0.973955 0.380933 0.514088 0.065454
C14   C     C_R   0.026564 0.608888 0.475118 0.066336
C15   C     C_R   0.975752 0.614065 0.486418 -0.004659
C16   C     C_R   0.024914 0.378165 0.521051 0.026836
C17   C     C_R   0.949544 0.499741 0.500969 0.069835
C18   C     C_R   0.051018 0.491468 0.497321 0.075706
C19   C     C_R   0.946424 0.268316 0.518495 -0.217702
C20   C     C_R   0.053872 0.717411 0.440483 -0.227012
C21   C     C_R   0.896680 0.272802 0.518046 -0.139352
C22   C     C_R   0.103618 0.712599 0.436756 -0.139574
C23   C     C_R   0.406204 0.498836 0.500108 0.895394
C24   C     C_R   0.593851 0.500837 0.499862 0.880973
C25   C     C_R   0.050677 0.265609 0.552481 -0.275612
C26   C     C_R   0.950337 0.730694 0.485728 -0.193584
C27   C     C_3   0.503004 0.040860 0.631416 -0.211587
C28   C     C_3   0.497107 0.959206 0.368568 -0.213689
C29   C     C_3   0.541233 0.956153 0.558398 -0.206770
C30   C     C_3   0.458874 0.043906 0.441593 -0.204728
C31   C     C_3   0.499982 0.876881 0.498784 -0.010341
C32   C     C_3   0.500120 0.123164 0.501213 -0.011677
C33   C     C_3   0.462745 0.960136 0.569782 0.144957
C34   C     C_3   0.537366 0.039948 0.430218 0.145824
C35   C     C_3   0.488060 0.392052 0.046807 0.199146
C36   C     C_3   0.511930 0.607947 0.953209 0.204760
C37   C     C_3   0.530278 0.415930 0.950819 -0.100659
C38   C     C_3   0.469716 0.584056 0.049191 -0.107651
C39   C     C_3   0.457445 0.473424 0.951268 -0.146830
C40   C     C_3   0.542550 0.526578 0.048733 -0.141158
C41   C     C_R   0.177851 0.374437 0.523672 0.525255
C42   C     C_R   0.822680 0.620076 0.492453 0.504033
C43   C     C_R   0.178199 0.595441 0.465975 0.506629
C44   C     C_R   0.822281 0.393426 0.512746 0.508706
C45   C     C_R   0.276690 0.547869 0.604327 -0.137918
C46   C     C_R   0.723058 0.451471 0.391769 -0.141128
C47   C     C_R   0.326877 0.553602 0.606274 0.038957
C48   C     C_R   0.672861 0.447676 0.390396 0.045386
C49   C     C_R   0.329195 0.428025 0.395177 0.040416
C50   C     C_R   0.671544 0.564083 0.607982 0.051572
C51   C     C_R   0.279063 0.424664 0.395113 -0.155341
C52   C     C_R   0.721797 0.563688 0.607928 -0.140929
C53   C     C_R   0.253059 0.484808 0.498778 0.270942
C54   C     C_R   0.747307 0.507830 0.500491 0.269464
H1    H     H_    0.554936 0.344178 0.904732 0.132461
H2    H     H_    0.445056 0.655800 0.095287 0.130987
H3    H     H_    0.260213 0.375435 0.314131 0.148086
H4    H     H_    0.741378 0.607694 0.690948 0.145973
H5    H     H_    0.743627 0.408827 0.309223 0.146156
H6    H     H_    0.255662 0.594026 0.683716 0.142387
H7    H     H_    0.962135 0.174264 0.518802 0.142855
H8    H     H_    0.037874 0.807327 0.411989 0.137546
N1    N     N_R   0.201788 0.484594 0.495453 -0.353780
N2    N     N_R   0.798690 0.507202 0.502271 -0.341101
N3    N     N_3   0.499960 0.500030 0.863290 -0.083741
N4    N     N_3   0.500040 0.499970 0.136710 -0.084886
O1    O     O_R   0.500000 0.313960 0.616610 -0.634600
O2    O     O_R   0.500000 0.686040 0.383390 -0.634517
O3    O     O_R   0.500020 0.313950 0.383350 -0.603804
O4    O     O_R   0.499980 0.686050 0.616650 -0.606556
O5    O     O_R   0.428750 0.500030 0.616610 -0.604530
O6    O     O_R   0.571250 0.499970 0.383390 -0.602790
O7    O     O_R   0.428770 0.500020 0.383360 -0.601938
O8    O     O_R   0.571230 0.499980 0.616640 -0.601266
O9    O     O_2   0.203368 0.267928 0.552143 -0.526222
O10   O     O_2   0.796992 0.728751 0.479462 -0.583563
O11   O     O_2   0.797061 0.284401 0.525046 -0.563648
O12   O     O_2   0.203444 0.701529 0.436339 -0.557286
Zn1   Zn    Zn3+2 0.499990 0.500010 0.655740 0.959776
Zn2   Zn    Zn3+2 0.500010 0.499990 0.344260 0.959301
N5    N     N_3   0.355295 0.361908 0.290118 -0.453208
H9    H     H_    0.344627 0.398856 0.195459 0.187756
H10   H     H_    0.345571 0.265879 0.293363 0.182497
N6    N     N_3   0.645736 0.627808 0.715980 -0.436159
H11   H     H_    0.629788 0.709258 0.673703 0.171123
H12   H     H_    0.669345 0.659315 0.791749 0.179375
H13   H     H_    0.504403 0.076715 0.738158 0.149024
H14   H     H_    0.495709 0.923353 0.261825 0.149277
N7    N     N_3   0.421695 0.911568 0.645921 -0.474393
H15   H     H_    0.402292 0.990285 0.681954 0.184706
H16   H     H_    0.435093 0.864054 0.731939 0.201251
N8    N     N_3   0.578422 0.088681 0.354193 -0.473347
H17   H     H_    0.597882 0.010033 0.318233 0.183489
H18   H     H_    0.565025 0.136109 0.268122 0.199989
N9    N     N_3   0.474756 0.268986 0.103604 -0.437632
H19   H     H_    0.468474 0.207741 0.021446 0.148293
H20   H     H_    0.441866 0.281089 0.154050 0.202845
N10   N     N_3   0.525183 0.731069 0.896474 -0.437700
H21   H     H_    0.531285 0.792414 0.978659 0.148522
H22   H     H_    0.558157 0.719152 0.846467 0.196973
H23   H     H_    0.422084 0.449022 0.905924 0.147795
H24   H     H_    0.577906 0.551024 0.094076 0.150277
N11   N     N_3   0.124416 0.143550 0.585855 -0.369802
H25   H     H_    0.113081 0.114439 0.682990 0.186551
H26   H     H_    0.113287 0.075087 0.515199 0.181324
N12   N     N_3   0.878851 0.860737 0.487349 -0.458662
H27   H     H_    0.857468 0.872230 0.574614 0.235145
H28   H     H_    0.858409 0.871965 0.398494 0.242259
N13   N     N_3   0.648505 0.384265 0.280377 -0.434334
H29   H     H_    0.672834 0.357187 0.203841 0.180356
H30   H     H_    0.634137 0.300291 0.320194 0.205680
N14   N     N_3   0.350777 0.622438 0.713232 -0.436528
H31   H     H_    0.326166 0.652191 0.787883 0.181443
H32   H     H_    0.364870 0.704940 0.669297 0.205249
H33   H     H_    0.877261 0.183643 0.522133 0.193382
H34   H     H_    0.122908 0.798714 0.410646 0.187194
H35   H     H_    0.032972 0.178415 0.580662 0.138338
H36   H     H_    0.968422 0.821228 0.486789 0.148561
H37   H     H_    0.574890 0.916750 0.603069 0.136466
H38   H     H_    0.425223 0.083426 0.396948 0.144975

loop_
_geom_bond_atom_site_label_1
_geom_bond_atom_site_label_2
_ccdc_geom_bond_type
O2    Zn2   S    
C45   H6    S    
N3    Zn1   S    
C46   H5    S    
C27   C29   S    
C8    C26   A    
C14   C18   A    
C11   C47   A    
N9    H19   S    
C21   H33   S    
N14   H32   S    
N5    H9    S    
C43   N1    A    
C27   C33   S    
C43   O12   S    
C29   H37   S    
C30   H38   S    
C3    C18   A    
C3    C9    A    
C44   O11   S    
C35   C37   S    
N6    H12   S    
C37   C40   S    
C2    O2    A    
N13   H30   S    
C38   C39   S    
C9    C22   A    
N12   H27   S    
C47   N14   S    
C14   C20   A    
C49   N5    S    
C11   C23   S    
C36   N10   S    
C38   N4    S    
C49   C51   A    
C37   N3    S    
C28   H14   S    
C50   C52   A    
C31   C33   S    
C40   H24   S    
C51   H3    S    
N7    H16   S    
C12   C48   A    
C22   H34   S    
C48   N13   S    
C27   C32   S    
C28   C34   S    
C40   N4    S    
C39   N3    S    
C23   O7    A    
O5    Zn1   S    
N14   H31   S    
N5    H10   S    
C52   C54   A    
C39   H23   S    
C45   C47   A    
C10   C21   A    
C46   C48   A    
C9    C43   A    
C13   C19   A    
C50   N6    S    
C23   O5    A    
C36   C40   S    
O1    Zn1   S    
N6    H11   S    
C4    C6    A    
C5    C7    A    
C36   N3    S    
C15   C26   A    
C6    C8    A    
C35   N4    S    
C10   C44   A    
C29   C34   S    
C1    C32   S    
C1    O3    A    
O6    Zn2   S    
C8    N12   S    
C2    C31   S    
C51   C53   A    
C32   C34   S    
C35   C39   S    
C11   C49   A    
C33   N7    S    
C41   O9    S    
C46   C54   A    
N8    H18   S    
N11   H26   S    
C27   H13   S    
C52   H4    S    
C4    C17   A    
C20   C22   A    
N10   H22   S    
O8    Zn1   S    
C41   N1    A    
C4    C10   A    
C44   N2    A    
C42   N2    A    
C24   O6    A    
C16   C25   A    
C15   C17   A    
C5    C41   A    
C30   C33   S    
C19   C21   A    
O4    Zn1   S    
C28   C31   S    
C26   H36   S    
C3    C5    A    
C25   H35   S    
C12   C50   A    
N9    H20   S    
C35   N9    S    
N4    Zn2   S    
C12   C24   S    
C42   O10   S    
C7    C25   A    
C13   C17   A    
C36   C38   S    
C29   C31   S    
N13   H29   S    
C30   C32   S    
C53   N1    S    
C24   O8    A    
N12   H28   S    
C19   H7    S    
C28   C30   S    
N8    H17   S    
C1    O1    A    
O7    Zn2   S    
C20   H8    S    
C34   N8    S    
C45   C53   A    
C37   H1    S    
C38   H2    S    
C54   N2    S    
C16   C18   A    
N10   H21   S    
C6    C42   A    
C13   C16   A    
N11   H25   S    
C14   C15   A    
O3    Zn2   S    
C7    N11   S    
N7    H15   S    
C2    O4    A    
