data_mof_unit_55600.cif
_audit_creation_date              2012-12-10T19:45:01-0500
_audit_creation_method            fapswitch 2.2
_symmetry_space_group_name_H-M    P1
_symmetry_Int_Tables_number       1
_space_group_crystal_system       triclinic
_cell_length_a                    15.080234
_cell_length_b                    10.832554
_cell_length_c                    13.678163
_cell_angle_alpha                 90.053858
_cell_angle_beta                  89.864095
_cell_angle_gamma                 89.727626
_cell_volume                      2234.3972721

loop_
_atom_site_label
_atom_site_type_symbol
_atom_type_description
_atom_site_fract_x
_atom_site_fract_y
_atom_site_fract_z
_atom_type_partial_charge
C1    C     C_R   0.497571 0.262140 0.499766 0.795748
C2    C     C_R   0.579382 0.879355 0.667435 0.124458
C3    C     C_R   0.458804 0.108074 0.239271 -0.160740
C4    C     C_R   0.541183 0.891942 0.760733 -0.160753
C5    C     C_R   0.420628 0.167246 0.158766 -0.138624
C6    C     C_R   0.579353 0.832778 0.841246 -0.138628
C7    C     C_R   0.343999 0.238783 0.170722 -0.113190
C8    C     C_R   0.655980 0.761233 0.829300 -0.113192
C9    C     C_R   0.468595 0.933358 0.419928 -0.239553
C10   C     C_R   0.531406 0.066642 0.580073 -0.239554
C11   C     C_R   0.504332 0.871728 0.500743 -0.081788
C12   C     C_R   0.502429 0.737860 0.500234 0.795746
C13   C     C_R   0.495668 0.128272 0.499258 -0.081788
C14   C     C_R   0.537049 0.938813 0.581611 -0.000229
C15   C     C_R   0.462950 0.061187 0.418391 -0.000229
C16   C     C_R   0.328446 0.500130 0.500091 0.810484
C17   C     C_R   0.671554 0.499869 0.499909 0.810483
C18   C     C_R   0.557028 0.423924 0.793051 0.006058
C19   C     C_R   0.442972 0.576075 0.206949 0.006062
C20   C     C_R   0.443053 0.576114 0.793439 0.028974
C21   C     C_R   0.556950 0.423889 0.206561 0.028968
C22   C     C_R   0.441754 0.578053 0.896546 -0.006948
C23   C     C_R   0.045803 0.480561 0.677523 -0.214582
C24   C     C_R   0.558250 0.421951 0.103454 -0.006954
C25   C     C_R   0.500018 0.500016 0.948160 0.082714
C26   C     C_R   0.499985 0.499988 0.051839 0.082715
C27   C     C_R   0.558312 0.421996 0.896150 -0.008341
C28   C     C_R   0.441690 0.578006 0.103850 -0.008340
C29   C     C_R   0.383958 0.655965 0.949016 -0.220591
C30   C     C_R   0.616047 0.344041 0.050984 -0.220593
C31   C     C_R   0.383890 0.655894 0.051764 -0.216942
C32   C     C_R   0.616113 0.344110 0.948235 -0.216938
C33   C     C_R   0.814899 0.509418 0.411254 -0.250922
C34   C     C_R   0.954196 0.519445 0.322475 -0.214576
C35   C     C_R   0.185100 0.490581 0.588744 -0.250923
C36   C     C_R   0.768371 0.499636 0.499822 -0.074988
C37   C     C_R   0.231629 0.500367 0.500177 -0.074989
C38   C     C_R   0.814533 0.489529 0.588399 -0.263171
C39   C     C_R   0.185466 0.510478 0.411600 -0.263172
C40   C     C_R   0.906888 0.489876 0.589119 0.109842
C41   C     C_R   0.093111 0.510135 0.410880 0.109842
C42   C     C_R   0.953521 0.499895 0.499956 0.063826
C43   C     C_R   0.046477 0.500118 0.500042 0.063826
C44   C     C_R   0.907293 0.509611 0.410700 0.108548
C45   C     C_R   0.304841 0.250205 0.263029 -0.116685
C46   C     C_R   0.092706 0.490396 0.589299 0.108551
C47   C     C_R   0.953348 0.480296 0.677433 -0.220140
C48   C     C_R   0.046651 0.519715 0.322565 -0.220146
C49   C     C_R   0.695141 0.749797 0.736996 -0.116688
C50   C     C_R   0.342735 0.191167 0.343770 -0.095886
C51   C     C_R   0.657254 0.808828 0.656247 -0.095869
C52   C     C_R   0.420609 0.120647 0.332573 0.124458
Cu1   Cu    Cu3+1 0.500010 0.499980 0.597420 0.942354
Cu2   Cu    Cu3+1 0.499990 0.500020 0.402580 0.942357
H1    H     H_    0.779347 0.517188 0.342698 0.154140
H2    H     H_    0.661164 0.283046 0.089388 0.137144
H3    H     H_    0.338671 0.716781 0.090465 0.137897
H4    H     H_    0.661332 0.283222 0.909535 0.137897
H5    H     H_    0.778714 0.480952 0.656867 0.149346
H6    H     H_    0.221286 0.519055 0.343132 0.149346
H7    H     H_    0.080618 0.473065 0.746496 0.141018
H8    H     H_    0.919381 0.526936 0.253501 0.141017
H9    H     H_    0.314937 0.285249 0.108445 0.125164
H10   H     H_    0.685036 0.714774 0.891583 0.125168
H11   H     H_    0.245178 0.304926 0.272006 0.122196
H12   H     H_    0.220652 0.482803 0.657300 0.154141
H13   H     H_    0.754803 0.695071 0.728027 0.122192
H14   H     H_    0.312107 0.201393 0.415054 0.103963
H15   H     H_    0.687886 0.798592 0.584967 0.103963
H16   H     H_    0.518805 0.054134 0.229262 0.124233
H17   H     H_    0.481184 0.945889 0.770734 0.124236
H18   H     H_    0.450853 0.158450 0.087224 0.137343
H19   H     H_    0.549124 0.841586 0.912785 0.137344
H20   H     H_    0.918182 0.472641 0.746336 0.138849
H21   H     H_    0.081817 0.527368 0.253663 0.138851
H22   H     H_    0.442140 0.881588 0.358725 0.152771
H23   H     H_    0.557861 0.118413 0.641276 0.152771
H24   H     H_    0.601427 0.364584 0.751877 0.122287
H25   H     H_    0.398571 0.635413 0.248123 0.122286
H26   H     H_    0.398877 0.635750 0.752570 0.125901
H27   H     H_    0.601127 0.364256 0.247430 0.125899
H28   H     H_    0.338841 0.716961 0.910612 0.137143
N1    N     N_R   0.499960 0.499900 0.743810 -0.179721
N2    N     N_R   0.500040 0.500100 0.256190 -0.179719
O1    O     O_R   0.500000 0.319630 0.582270 -0.590425
O2    O     O_R   0.500000 0.680370 0.417730 -0.590423
O3    O     O_R   0.499990 0.319660 0.417730 -0.572168
O4    O     O_R   0.500010 0.680340 0.582270 -0.572171
O5    O     O_R   0.370260 0.499960 0.582280 -0.591691
O6    O     O_R   0.629740 0.500040 0.417720 -0.591692
O7    O     O_R   0.370250 0.499990 0.417740 -0.587930
O8    O     O_R   0.629750 0.500010 0.582260 -0.587933

loop_
_geom_bond_atom_site_label_1
_geom_bond_atom_site_label_2
_ccdc_geom_bond_type
C1    O3    A    
C40   C47   A    
C38   C40   A    
C33   H1    S    
C22   C29   A    
C32   H4    S    
Cu2   N2    S    
C39   C41   A    
Cu1   Cu2   S    
C7    C45   A    
C35   C37   A    
C24   C26   A    
Cu2   O6    S    
C5    H18   S    
Cu2   O3    S    
C3    C52   A    
C34   H8    S    
C33   C36   A    
C45   H11   S    
C49   C51   A    
C22   C25   A    
C50   C52   A    
C9    H22   S    
C16   C37   S    
C40   C42   A    
C16   O5    A    
C23   C46   A    
C41   C43   A    
C48   H21   S    
C17   O8    A    
C42   C44   A    
C10   H23   S    
C17   O6    A    
C1    O1    A    
C23   C47   A    
C20   H26   S    
C3    H16   S    
C34   C44   A    
C4    C6    A    
C10   C14   A    
Cu2   O2    S    
C12   O4    A    
C6    C8    A    
C35   H12   S    
C25   C26   A    
C30   H2    S    
C2    C4    A    
C21   N2    A    
C18   H24   S    
Cu1   O8    S    
C18   N1    A    
C15   C52   S    
C19   H25   S    
C19   C28   A    
C9    C11   A    
C7    H9    S    
C8    H10   S    
C17   C36   S    
C21   H27   S    
C13   C15   A    
Cu1   O5    S    
C21   C24   A    
C1    C13   S    
C42   C43   A    
C19   N2    A    
C6    H19   S    
C5    C7    A    
C49   H13   S    
C27   C32   A    
C33   C44   A    
C28   C31   A    
C18   C27   A    
C47   H20   S    
C20   C22   A    
C3    C5    A    
C10   C13   A    
C11   C12   S    
C25   C27   A    
C26   C28   A    
C12   O2    A    
Cu1   N1    S    
C31   H3    S    
C36   C38   A    
C9    C15   A    
Cu2   O7    S    
C29   C31   A    
C30   C32   A    
C45   C50   A    
C39   H6    S    
C11   C14   A    
C41   C48   A    
Cu1   O4    S    
C2    C14   S    
C43   C46   A    
C24   C30   A    
C2    C51   A    
C38   H5    S    
C23   H7    S    
C34   C48   A    
C29   H28   S    
C16   O7    A    
C37   C39   A    
C20   N1    A    
Cu1   O1    S    
C51   H15   S    
C35   C46   A    
C50   H14   S    
C8    C49   A    
C4    H17   S    
