data_mof_unit_26005.cif
_audit_creation_date              2013-03-05T15:55:35-0500
_audit_creation_method            fapswitch 2.2
_symmetry_space_group_name_H-M    P1
_symmetry_Int_Tables_number       1
_space_group_crystal_system       triclinic
_cell_length_a                    12.312685
_cell_length_b                    13.224649
_cell_length_c                    15.856744
_cell_angle_alpha                 77.578808
_cell_angle_beta                  101.095319
_cell_angle_gamma                 116.154737
_cell_volume                      2249.26364688

loop_
_atom_site_label
_atom_site_type_symbol
_atom_site_description
_atom_site_fract_x
_atom_site_fract_y
_atom_site_fract_z
_atom_type_partial_charge
O1    O     O_R   0.972520 0.318130 0.524690 -0.530704
O2    O     O_R   0.806530 0.359650 0.491530 -0.616862
C1    C     C_R   0.854975 0.286457 0.509161 0.796771
O3    O     O_R   0.083030 0.479240 0.637150 -0.542887
O4    O     O_R   0.917040 0.520750 0.603990 -0.604628
C2    C     C_R   0.999406 0.499438 0.659652 0.820124
Cu1   Cu    Cu3+1 0.098280 0.475420 0.519630 1.025990
Cu2   Cu    Cu3+1 0.901720 0.524580 0.480370 0.944787
O5    O     O_R   0.193470 0.640350 0.508470 -0.520880
O6    O     O_R   0.027480 0.681870 0.475310 -0.601597
O7    O     O_R   0.082960 0.479250 0.396010 -0.588663
O8    O     O_R   0.916970 0.520760 0.362850 -0.576619
C3    C     C_R   0.145093 0.713115 0.492329 0.835622
C4    C     C_R   0.000256 0.499962 0.340413 0.810221
C5    C     C_3   0.097654 0.453765 0.973386 0.077096
C6    C     C_3   0.875645 0.413840 0.948225 -0.463229
C7    C     C_3   0.879127 0.408440 0.047160 -0.452335
H1    H     H_    0.058961 0.363152 0.964221 0.086779
H2    H     H_    0.804764 0.442859 0.912648 0.221360
H3    H     H_    0.848951 0.326924 0.933278 0.185270
H4    H     H_    0.862151 0.320617 0.080601 0.219428
H5    H     H_    0.804304 0.427406 0.059159 0.206952
C8    C     C_1   0.000366 0.498657 0.251010 -0.142469
C9    C     C_3   0.002005 0.496653 0.918115 0.130512
C10   C     C_3   0.108670 0.462026 0.073914 0.772369
C11   C     C_3   0.004180 0.495258 0.084182 0.191545
C12   C     C_3   0.025123 0.615083 0.032178 -0.423102
C13   C     C_3   0.028616 0.616856 0.935142 -0.361775
C14   C     C_1   0.001289 0.497175 0.175848 0.036455
C15   C     C_1   0.999397 0.497565 0.825252 0.010329
C16   C     C_1   0.998615 0.498537 0.749372 -0.111739
H6    H     H_    0.117827 0.680962 0.914583 0.231032
H7    H     H_    0.959022 0.645087 0.895710 0.176327
H8    H     H_    0.111193 0.681875 0.058265 0.223956
H9    H     H_    0.950198 0.637350 0.038927 0.187328
C17   C     C_R   0.268679 0.027091 0.419631 -0.137515
H10   H     H_    0.092131 0.890717 0.415388 0.185147
H11   H     H_    0.233409 0.083358 0.376056 0.202315
C18   C     C_R   0.227965 0.834726 0.488829 -0.142935
C19   C     C_R   0.814148 0.089919 0.585018 0.434571
C20   C     C_R   0.730128 0.995993 0.632383 -0.239657
C21   C     C_R   0.606622 0.968189 0.612385 -0.155305
C22   C     C_R   0.561750 0.023980 0.537231 0.074953
C23   C     C_R   0.646130 0.126380 0.494943 -0.061367
C24   C     C_R   0.435574 0.984546 0.505319 -0.065007
C25   C     C_R   0.393802 0.061292 0.446364 -0.019908
C26   C     C_R   0.478699 0.166667 0.409152 0.330980
C27   C     C_R   0.602151 0.190901 0.426374 -0.219578
C28   C     C_R   0.351484 0.869209 0.524299 0.303241
C29   C     C_R   0.186756 0.915591 0.441732 -0.281289
C30   C     C_R   0.772485 0.164357 0.524800 -0.169624
H12   H     H_    0.548311 0.904358 0.658149 0.204744
H13   H     H_    0.761052 0.947085 0.687472 0.163138
H14   H     H_    0.663480 0.263708 0.387107 0.204905
C31   C     C_R   0.351576 0.337510 0.643987 -0.255048
H15   H     H_    0.174365 0.319367 0.658868 0.166319
H16   H     H_    0.351787 0.275008 0.700695 0.187882
N1    N     N_R   0.246300 0.438200 0.549400 -0.191703
C32   C     C_R   0.759200 0.644646 0.382990 0.005261
C33   C     C_R   0.662589 0.677363 0.356802 0.268180
C34   C     C_R   0.559618 0.622188 0.402208 -0.228297
C35   C     C_R   0.551622 0.534216 0.472484 -0.025515
C36   C     C_R   0.653409 0.505561 0.496619 0.234417
C37   C     C_R   0.447635 0.475304 0.520599 -0.030587
C38   C     C_R   0.450287 0.393080 0.594176 0.072837
C39   C     C_R   0.550893 0.366347 0.617272 0.373272
C40   C     C_R   0.649352 0.421055 0.568556 -0.248507
C41   C     C_R   0.340406 0.494586 0.499512 0.154413
C42   C     C_R   0.250402 0.361832 0.620528 0.098149
N2    N     N_R   0.754300 0.561180 0.451130 -0.216984
H17   H     H_    0.329396 0.554039 0.444155 0.122246
H18   H     H_    0.839622 0.686165 0.349106 0.169117
H19   H     H_    0.487724 0.650507 0.382141 0.182546
H20   H     H_    0.721683 0.395284 0.590843 0.209424
O9    O     O_3   0.088496 0.357588 0.132949 -0.630922
C43   C     C_3   0.126963 0.279640 0.113085 -0.014003
H21   H     H_    0.185772 0.259959 0.170601 0.210947
H22   H     H_    0.182211 0.310840 0.057874 0.159415
C44   C     C_3   0.016704 0.168800 0.098036 -0.742865
H23   H     H_    0.953414 0.183952 0.042017 0.230079
H24   H     H_    0.046752 0.106625 0.084551 0.223809
H25   H     H_    0.967532 0.132127 0.156797 0.273919
N3    N     N_R   0.216391 0.510530 0.938710 0.121545
O10   O     O_R   0.280895 0.619779 0.935407 -0.329352
O11   O     O_R   0.256467 0.451367 0.907845 -0.361902
O12   O     O_3   0.219377 0.554622 0.099813 -0.600331
C45   C     C_3   0.319445 0.528147 0.136752 0.191419
H26   H     H_    0.403258 0.605429 0.120788 0.206908
H27   H     H_    0.324811 0.461249 0.108692 0.138298
C46   C     C_3   0.324838 0.502724 0.235651 -0.721822
H28   H     H_    0.246440 0.423548 0.257221 0.277576
H29   H     H_    0.409894 0.492374 0.263290 0.249730
H30   H     H_    0.324319 0.574371 0.261166 0.237372
N4    N     N_R   0.441388 0.248189 0.351131 0.102407
O13   O     O_R   0.495495 0.302826 0.281708 -0.379122
O14   O     O_R   0.371395 0.283873 0.376148 -0.428030
N5    N     N_R   0.393182 0.784101 0.569292 0.104690
O15   O     O_R   0.354581 0.726236 0.643301 -0.349611
O16   O     O_R   0.463611 0.759453 0.533654 -0.369386
O17   O     O_3   0.937508 0.117957 0.606609 -0.576738
C47   C     C_3   0.965204 0.035452 0.582907 0.082512
H31   H     H_    0.926587 0.019713 0.514851 0.155796
H32   H     H_    0.929615 0.953860 0.627916 0.148234
C48   C     C_3   0.102600 0.077339 0.588560 -0.777562
H33   H     H_    0.144888 0.095657 0.655181 0.239443
H34   H     H_    0.124865 0.010953 0.573363 0.214416
H35   H     H_    0.140539 0.155742 0.541056 0.259853
O18   O     O_3   0.557123 0.292080 0.692345 -0.579306
C49   C     C_3   0.533239 0.186108 0.669831 0.031337
H36   H     H_    0.615005 0.191272 0.646088 0.157768
H37   H     H_    0.453432 0.158327 0.619334 0.152104
C50   C     C_3   0.504566 0.096301 0.750193 -0.728787
H38   H     H_    0.424888 0.091600 0.776567 0.247651
H39   H     H_    0.482567 0.011743 0.733204 0.207358
H40   H     H_    0.584233 0.118089 0.800687 0.252583
N6    N     N_R   0.669203 0.766429 0.284593 0.126402
O19   O     O_R   0.766179 0.819683 0.244049 -0.376273
O20   O     O_R   0.578154 0.794776 0.258328 -0.349550

loop_
_geom_bond_atom_site_label_1
_geom_bond_atom_site_label_2
_geom_bond_distance
_ccdc_geom_bond_type
C5    H1    1.108627 S    
C45   H26   1.110408 S    
C47   H31   1.116170 S    
C20   C21   1.385593 A    
C43   C44   1.523171 S    
C22   C23   1.414240 A    
C48   H34   1.110224 S    
N5    O15   1.302467 A    
Cu1   Cu2   2.701964 S    
C24   C25   1.426721 A    
O18   C49   1.410478 S    
C27   H14   1.080298 S    
C11   C12   1.554681 S    
C7    C11   1.554739 S    
C37   C41   1.417797 A    
C43   H22   1.107158 S    
C49   H37   1.116750 S    
C15   C16   1.198722 T    
O7    C4    1.298331 A    
C5    C10   1.596850 S    
N6    O19   1.301666 A    
O5    C3    1.298853 A    
C50   H38   1.110938 S    
C35   C37   1.438493 A    
N5    O16   1.301774 A    
C26   C27   1.391470 A    
C6    C7    1.548117 S    
C17   C25   1.405182 A    
Cu1   N1    2.036294 S    
C6    H3    1.113359 S    
C32   H18   1.081300 S    
C2    C16   1.422026 S    
C32   C33   1.400352 A    
C6    C9    1.551383 S    
N4    O13   1.301333 A    
O3    Cu1   1.921956 S    
C50   H39   1.109452 S    
C48   H33   1.110386 S    
C31   C38   1.404789 A    
C12   H8    1.112480 S    
C36   C40   1.406032 A    
C13   H6    1.108834 S    
C43   H21   1.110713 S    
O3    C2    1.297573 A    
C49   C50   1.520340 S    
C44   H24   1.110376 S    
C1    C30   1.476236 S    
O12   C45   1.413534 S    
C5    N3    1.472257 S    
C34   H19   1.075966 S    
C10   C11   1.576308 S    
C7    H4    1.112424 S    
C33   C34   1.402855 A    
O1    C1    1.305181 A    
C4    C8    1.421719 S    
Cu1   O7    1.924570 S    
O9    C43   1.419037 S    
C35   C36   1.425635 A    
C44   H25   1.110761 S    
C46   H29   1.109725 S    
N3    O10   1.301071 A    
C36   N2    1.384041 A    
C24   C28   1.421026 A    
Cu2   O8    1.921956 S    
C40   H20   1.062465 S    
N4    O14   1.301304 A    
C22   C24   1.427681 A    
C20   H13   1.082778 S    
C31   C42   1.384587 A    
C23   C30   1.423643 A    
N1    C41   1.364447 A    
C19   C20   1.393588 A    
N3    O11   1.301225 A    
O8    C4    1.298081 A    
C13   H7    1.113564 S    
C38   C39   1.396190 A    
C47   C48   1.521067 S    
C31   H16   1.083070 S    
C33   N6    1.440892 S    
C21   C22   1.413323 A    
C8    C14   1.198507 T    
C17   C29   1.384581 A    
C46   H30   1.110298 S    
Cu1   O5    1.955112 S    
C25   C26   1.407925 A    
C5    C9    1.566690 S    
C18   C28   1.416672 A    
O1    Cu1   1.966575 S    
Cu2   O6    1.966575 S    
O2    Cu2   1.955112 S    
C9    C13   1.548746 S    
C39   O18   1.384171 S    
O6    C3    1.307929 A    
C19   O17   1.385527 S    
O4    Cu2   1.924570 S    
N1    C42   1.351901 A    
C41   H17   1.076254 S    
C19   C30   1.412899 A    
Cu2   N2    2.024364 S    
C7    H5    1.113344 S    
C12   H9    1.113681 S    
C37   C38   1.419689 A    
C45   H27   1.103291 S    
O2    C1    1.303578 A    
C49   H36   1.110947 S    
H10   C29   1.083539 S    
C46   H28   1.107744 S    
O4    C2    1.299000 A    
C6    H2    1.113470 S    
C17   H11   1.080696 S    
C10   O12   1.433720 S    
C26   N4    1.437733 S    
N6    O20   1.301690 A    
C39   C40   1.391615 A    
C50   H40   1.110885 S    
C34   C35   1.410145 A    
C9    C15   1.464235 S    
C3    C18   1.472223 S    
C32   N2    1.357483 A    
C28   N5    1.436104 S    
C44   H23   1.109556 S    
C18   C29   1.395622 A    
C11   C14   1.466691 S    
C47   H32   1.112619 S    
H15   C42   1.081740 S    
C45   C46   1.526278 S    
C12   C13   1.542393 S    
O17   C47   1.414854 S    
C10   O9    1.440987 S    
C48   H35   1.110454 S    
C23   C27   1.408918 A    
C21   H12   1.075801 S    
