data_mof_unit_45519.cif
_audit_creation_date              2012-12-10T17:21:20-0500
_audit_creation_method            fapswitch 2.2
_symmetry_space_group_name_H-M    P1
_symmetry_Int_Tables_number       1
_space_group_crystal_system       triclinic
_cell_length_a                    9.665021
_cell_length_b                    10.790971
_cell_length_c                    13.863105
_cell_angle_alpha                 94.584799
_cell_angle_beta                  84.767464
_cell_angle_gamma                 92.90257
_cell_volume                      1433.85041057

loop_
_atom_site_label
_atom_site_type_symbol
_atom_type_description
_atom_site_fract_x
_atom_site_fract_y
_atom_site_fract_z
_atom_type_partial_charge
C1    C     C_R   0.505076 0.737907 0.495469 0.901173
C2    C     C_1   0.464230 0.515649 0.786034 0.034409
C3    C     C_R   0.328584 0.862037 0.375360 0.564469
C4    C     C_R   0.205358 0.908645 0.351455 0.558773
C5    C     C_R   0.158318 0.019010 0.398437 -0.295768
C6    C     C_R   0.241239 0.089816 0.461318 0.697958
C7    C     C_R   0.376152 0.051814 0.475591 -0.155608
C8    C     C_R   0.407791 0.928160 0.445700 -0.217306
C9    C     C_R   0.515894 0.873672 0.487401 -0.169698
C10   C     C_R   0.612544 0.950315 0.539863 0.225945
C11   C     C_R   0.582162 0.075018 0.566370 0.337452
C12   C     C_R   0.477509 0.503775 0.682688 0.851106
C13   C     C_R   0.478020 0.128888 0.521802 -0.149437
C14   C     C_R   0.875468 0.382338 0.337550 0.256454
C15   C     C_R   0.957216 0.392047 0.249837 0.424258
C16   C     C_R   0.097869 0.372029 0.251711 0.535801
C17   C     C_R   0.154360 0.378941 0.340950 0.514455
C18   C     C_R   0.081279 0.438947 0.423313 -0.063894
C19   C     C_R   0.932813 0.440387 0.422268 -0.129993
C20   C     C_R   0.917089 0.552215 0.575127 0.733134
C21   C     C_R   0.064288 0.559163 0.574828 0.361659
C22   C     C_R   0.493810 0.263157 0.508321 0.934526
C23   C     C_R   0.522813 0.500914 0.317332 0.898821
C24   C     C_1   0.536859 0.508797 0.214666 0.026436
C25   C     C_2   0.557604 0.526032 0.025072 0.198950
C26   C     C_2   0.443878 0.540776 0.977301 0.236412
C27   C     C_1   0.453954 0.527528 0.873094 0.047253
C28   C     C_1   0.546920 0.517251 0.128382 0.091347
Cu1   Cu    Cu3+1 0.359340 0.500010 0.500010 1.157926
Cu2   Cu    Cu3+1 0.640660 0.499990 0.499990 1.148704
H1    H     H_    0.056623 0.049407 0.386908 0.259235
N1    N     N_R   0.852210 0.498790 0.499090 -0.225067
N2    N     N_R   0.148080 0.498710 0.499060 -0.219990
O1    O     O_R   0.381190 0.680360 0.500010 -0.521070
O2    O     O_R   0.618760 0.680340 0.500000 -0.530164
O3    O     O_R   0.364420 0.499990 0.637850 -0.530250
O4    O     O_R   0.601990 0.499960 0.637840 -0.511058
O5    O     O_R   0.381240 0.319660 0.500000 -0.483571
O6    O     O_R   0.618810 0.319640 0.499990 -0.504915
O7    O     O_R   0.398010 0.500040 0.362160 -0.509640
O8    O     O_R   0.635580 0.500010 0.362150 -0.603774
S1    S     S_3+6 0.276521 0.574817 0.034446 0.128780
O9    O     O_2   0.175260 0.469819 0.008385 -0.123763
O10   O     O_2   0.274067 0.594098 0.143081 -0.201502
O11   O     O_3   0.225586 0.705534 0.992238 -0.432205
H2    H     H_    0.204520 0.681474 0.924531 0.376131
S2    S     S_3+6 0.804854 0.226879 0.339220 0.053854
O12   O     O_2   0.819183 0.176700 0.435477 -0.237168
O13   O     O_2   0.654703 0.221952 0.318241 -0.300503
O14   O     O_3   0.891741 0.133317 0.253665 -0.481989
H3    H     H_    0.834370 0.124902 0.197642 0.419540
F1    F     F_    0.898629 0.366326 0.164821 -0.522309
F2    F     F_    0.172655 0.326107 0.170345 -0.509807
F3    F     F_    0.265392 0.309961 0.347118 -0.599589
S3    S     S_3+6 0.124451 0.641855 0.682383 0.109155
O15   O     O_2   0.020261 0.734656 0.724670 -0.134677
O16   O     O_2   0.134651 0.548527 0.756067 -0.258938
O17   O     O_3   0.276083 0.723528 0.667723 -0.538928
H4    H     H_    0.298163 0.753435 0.734249 0.360043
S4    S     S_3+6 0.725652 0.509516 0.963296 0.121265
O18   O     O_2   0.737580 0.377936 0.919984 -0.157024
O19   O     O_2   0.749327 0.596445 0.883283 -0.209636
O20   O     O_3   0.848383 0.540906 0.041262 -0.375024
H5    H     H_    0.839326 0.629904 0.063487 0.362969
S5    S     S_3+6 0.777782 0.897414 0.562966 0.121916
O21   O     O_2   0.880298 0.003672 0.582887 -0.154058
O22   O     O_2   0.757295 0.822811 0.650343 -0.143568
O23   O     O_3   0.847313 0.808952 0.466999 -0.519463
H6    H     H_    0.849951 0.861809 0.411581 0.369615
F4    F     F_    0.373282 0.755471 0.326481 -0.630617
F5    F     F_    0.127715 0.843271 0.286500 -0.556494
F6    F     F_    0.179401 0.182989 0.518259 -0.570196
S6    S     S_3+6 0.646997 0.156908 0.671336 0.119318
O24   O     O_2   0.536332 0.238618 0.720780 -0.328018
O25   O     O_2   0.682891 0.067591 0.742096 -0.154493
O26   O     O_3   0.789124 0.246071 0.639573 -0.429102
H7    H     H_    0.803999 0.302730 0.697882 0.401772
F7    F     F_    0.837416 0.595925 0.654398 -0.550740

loop_
_geom_bond_atom_site_label_1
_geom_bond_atom_site_label_2
_ccdc_geom_bond_type
C8    C9    A    
S3    O15   D    
S6    O24   D    
C2    C12   S    
C7    C8    A    
S2    O13   D    
O11   H2    S    
C25   C28   S    
C6    F6    S    
Cu1   O3    S    
C1    O2    A    
C26   C27   S    
Cu2   O2    S    
S4    O20   S    
C5    C6    A    
C21   N2    A    
C15   C16   A    
C22   O5    A    
Cu1   N2    S    
S4    O19   D    
C18   C19   A    
C12   O4    A    
C16   F2    S    
C16   C17   A    
S5    O22   D    
Cu1   O5    S    
Cu2   O6    S    
C23   C24   S    
Cu2   O8    S    
C2    C27   T    
C25   S4    S    
C12   O3    A    
C9    C10   A    
S6    O25   D    
S1    O10   D    
C19   N1    A    
C1    O1    A    
O14   H3    S    
S2    O14   S    
C3    F4    S    
C1    C9    S    
O26   H7    S    
C3    C8    A    
C11   S6    S    
C21   S3    S    
O23   H6    S    
C25   C26   D    
Cu1   O1    S    
Cu2   O4    S    
S4    O18   D    
S1    O11   S    
Cu1   Cu2   S    
S2    O12   D    
S5    O23   S    
C17   C18   A    
C15   F1    S    
C14   S2    S    
S3    O16   D    
S6    O26   S    
S1    O9    D    
C3    C4    A    
C26   S1    S    
C20   N1    A    
C10   S5    S    
C14   C19   A    
C24   C28   T    
C4    C5    A    
C6    C7    A    
C23   O8    A    
C20   F7    S    
O17   H4    S    
Cu2   N1    S    
C11   C13   A    
C22   O6    A    
Cu1   O7    S    
C13   C22   S    
C18   N2    A    
C10   C11   A    
O20   H5    S    
C7    C13   A    
C20   C21   A    
S5    O21   D    
S3    O17   S    
C14   C15   A    
C17   F3    S    
C4    F5    S    
C23   O7    A    
C5    H1    S    
