data_mof_unit_44661.cif
_audit_creation_date              2013-03-05T15:49:13-0500
_audit_creation_method            fapswitch 2.2
_symmetry_space_group_name_H-M    P1
_symmetry_Int_Tables_number       1
_space_group_crystal_system       triclinic
_cell_length_a                    18.723708
_cell_length_b                    19.165599
_cell_length_c                    18.860281
_cell_angle_alpha                 109.728907
_cell_angle_beta                  109.785336
_cell_angle_gamma                 109.925318
_cell_volume                      5143.00041017

loop_
_atom_site_label
_atom_site_type_symbol
_atom_site_description
_atom_site_fract_x
_atom_site_fract_y
_atom_site_fract_z
_atom_type_partial_charge
O1    O     O_R   0.592010 0.539900 0.448660 -0.583676
O2    O     O_R   0.591210 0.643320 0.551330 -0.610424
C1    C     C_R   0.623930 0.619383 0.503137 0.889529
O3    O     O_R   0.408080 0.448290 0.356360 -0.572706
O4    O     O_R   0.407280 0.551710 0.459030 -0.630269
C2    C     C_R   0.379779 0.499360 0.379081 0.891379
Zn1   Zn    Zn3+2 0.500540 0.430950 0.431450 1.198710
Zn2   Zn    Zn3+2 0.499460 0.569050 0.568550 1.042920
O5    O     O_R   0.408790 0.356680 0.448670 -0.558177
O6    O     O_R   0.407990 0.460100 0.551340 -0.635278
O7    O     O_R   0.592720 0.448290 0.540970 -0.515740
O8    O     O_R   0.591920 0.551710 0.643640 -0.662000
C3    C     C_R   0.379550 0.380738 0.499431 0.831857
C4    C     C_R   0.616822 0.496302 0.621009 0.884189
C5    C     C_3   0.302157 0.577902 0.325892 -0.247586
C6    C     C_3   0.201484 0.514202 0.277343 0.345060
H1    H     H_    0.341552 0.641806 0.387232 0.203201
C7    C     C_3   0.193043 0.499255 0.188807 -0.197341
C8    C     C_3   0.293396 0.560675 0.236229 0.031525
C9    C     C_3   0.306661 0.484064 0.223323 0.278637
C10   C     C_3   0.205763 0.420607 0.174345 -0.226294
C11   C     C_3   0.214991 0.437892 0.264082 0.044731
C12   C     C_3   0.314696 0.499418 0.311417 -0.181879
H2    H     H_    0.167757 0.357052 0.113051 0.225795
C13   C     C_R   0.577987 0.728257 0.455080 -0.171722
C14   C     C_R   0.557858 0.789999 0.451174 -0.268721
C15   C     C_R   0.621653 0.867399 0.469561 0.324403
C16   C     C_R   0.706498 0.880940 0.486504 0.207061
C17   C     C_R   0.727889 0.814976 0.487917 -0.108371
C18   C     C_R   0.664230 0.742242 0.480243 0.078824
C19   C     C_R   0.806534 0.814663 0.493803 -0.124034
C20   C     C_R   0.813810 0.740765 0.481808 0.047953
C21   C     C_R   0.760517 0.679342 0.493851 -0.075678
C22   C     C_R   0.686258 0.682987 0.496081 -0.094853
C23   C     C_R   0.873365 0.727002 0.456710 -0.282401
C24   C     C_R   0.886294 0.658724 0.451051 0.004345
C25   C     C_R   0.844301 0.605086 0.476288 0.302470
C26   C     C_R   0.782827 0.615804 0.499539 0.191696
H3    H     H_    0.523881 0.668516 0.437037 0.170920
H4    H     H_    0.491638 0.777523 0.434117 0.197987
H5    H     H_    0.910773 0.768615 0.440154 0.169343
H6    H     H_    0.564341 0.191957 0.534215 0.192295
C27   C     C_R   0.766606 0.657190 0.775041 -0.142033
C28   C     C_R   0.832596 0.735512 0.853107 0.317071
C29   C     C_R   0.890682 0.734191 0.921184 -0.184225
C30   C     C_R   0.884449 0.656679 0.910172 -0.209538
C31   C     C_R   0.817214 0.576532 0.831414 0.071878
C32   C     C_R   0.753856 0.575584 0.764460 0.071310
C33   C     C_R   0.813720 0.498288 0.818024 -0.088765
C34   C     C_R   0.746745 0.417953 0.740771 0.090348
C35   C     C_R   0.676739 0.413449 0.675424 -0.076895
C36   C     C_R   0.681910 0.494294 0.688132 -0.140143
C37   C     C_R   0.750840 0.341833 0.726947 -0.070774
C38   C     C_R   0.687151 0.262611 0.652573 -0.188793
C39   C     C_R   0.615850 0.255450 0.590725 -0.107019
C40   C     C_R   0.607784 0.327618 0.600766 0.342821
H7    H     H_    0.729137 0.663172 0.722376 0.217379
H8    H     H_    0.942564 0.793452 0.982571 0.185711
H9    H     H_    0.933931 0.661827 0.965116 0.157276
H10   H     H_    0.805754 0.342091 0.770994 0.174506
H11   H     H_    0.692620 0.206138 0.643446 0.201373
C41   C     C_R   0.419425 0.380005 0.656537 -0.087732
C42   C     C_R   0.441211 0.385956 0.736402 -0.273297
C43   C     C_R   0.377940 0.333251 0.745650 0.110368
C44   C     C_R   0.292215 0.270328 0.672773 0.338142
C45   C     C_R   0.270271 0.255944 0.584970 -0.124644
C46   C     C_R   0.334206 0.317426 0.580785 0.106994
C47   C     C_R   0.191183 0.184549 0.501802 -0.170192
C48   C     C_R   0.179301 0.175589 0.418290 0.075346
C49   C     C_R   0.237626 0.246940 0.420698 0.006488
C50   C     C_R   0.314244 0.315225 0.500793 -0.045617
C51   C     C_R   0.113585 0.099399 0.331587 0.027213
C52   C     C_R   0.106175 0.099856 0.254749 0.055825
C53   C     C_R   0.162114 0.173627 0.259976 0.343894
C54   C     C_R   0.222578 0.247459 0.341938 -0.276683
H12   H     H_    0.472710 0.423711 0.655004 0.156475
H13   H     H_    0.507280 0.433828 0.792341 0.167441
H14   H     H_    0.262170 0.304429 0.343136 0.192650
O9    O     O_R   0.951440 0.539900 0.094740 -0.605608
O10   O     O_R   0.054870 0.643310 0.094700 -0.623761
C55   C     C_R   0.002017 0.620115 0.122533 0.901929
O11   O     O_R   0.044440 0.448270 0.096110 -0.570566
O12   O     O_R   0.147870 0.551680 0.096080 -0.574694
C56   C     C_R   0.125099 0.499212 0.122894 0.992596
Zn3   Zn    Zn3+2 0.934770 0.430930 0.003810 1.056227
Zn4   Zn    Zn3+2 0.072900 0.569020 0.003770 1.119755
O13   O     O_R   0.952810 0.356650 0.912880 -0.625062
O14   O     O_R   0.056240 0.460060 0.912840 -0.585442
O15   O     O_R   0.859800 0.448280 0.911500 -0.681100
O16   O     O_R   0.963240 0.551690 0.911470 -0.544489
C57   C     C_R   0.000489 0.381020 0.879647 0.852240
C58   C     C_R   0.882422 0.500331 0.884358 0.846308
O17   O     O_R   0.052860 0.908430 0.461230 -0.629317
O18   O     O_R   0.948620 0.908400 0.356980 -0.634954
C59   C     C_R   0.000248 0.880088 0.380886 0.804676
O19   O     O_R   0.960510 0.908410 0.552140 -0.619894
O20   O     O_R   0.856270 0.908390 0.447890 -0.584351
C60   C     C_R   0.878346 0.884982 0.503235 0.858375
Zn5   Zn    Zn3+2 0.069600 0.000030 0.569620 1.077818
Zn6   Zn    Zn3+2 0.930400 0.000000 0.430410 1.058619
O21   O     O_R   0.051380 0.091620 0.643040 -0.570524
O22   O     O_R   0.947140 0.091600 0.538800 -0.569217
O23   O     O_R   0.143730 0.091640 0.552130 -0.581675
O24   O     O_R   0.039490 0.091610 0.447890 -0.643323
C61   C     C_R   0.999863 0.120289 0.619802 1.002451
C62   C     C_R   0.121565 0.120731 0.501615 0.849299
C63   C     C_R   0.169037 0.779368 0.273533 0.323201
C64   C     C_R   0.243423 0.862932 0.328392 -0.201836
C65   C     C_R   0.239345 0.929802 0.382050 0.105475
C66   C     C_R   0.160621 0.912078 0.380869 -0.167772
C67   C     C_R   0.081062 0.830856 0.317858 0.008130
C68   C     C_R   0.083223 0.764431 0.258613 -0.025271
C69   C     C_R   0.000607 0.814414 0.315316 -0.109007
C70   C     C_R   0.921048 0.735021 0.252331 0.033586
C71   C     C_R   0.917873 0.673752 0.182246 0.004058
C72   C     C_R   0.000688 0.686732 0.188157 -0.159851
C73   C     C_R   0.844120 0.716350 0.258465 -0.263560
C74   C     C_R   0.764327 0.639468 0.196123 0.079490
C75   C     C_R   0.756674 0.583230 0.120094 0.189249
C76   C     C_R   0.831096 0.602685 0.110271 0.083910
H15   H     H_    0.307019 0.874068 0.336078 0.199333
H16   H     H_    0.164487 0.963808 0.431123 0.163582
H17   H     H_    0.844437 0.760607 0.312350 0.160150
C77   C     C_R   0.011022 0.399415 0.729517 0.254940
C78   C     C_R   0.032107 0.413530 0.669021 -0.023713
C79   C     C_R   0.049154 0.358511 0.618581 0.286922
C80   C     C_R   0.042042 0.285874 0.624456 -0.015672
C81   C     C_R   0.018464 0.267091 0.683955 0.045123
C82   C     C_R   0.009931 0.328825 0.742719 -0.104484
C83   C     C_R   0.003519 0.189358 0.686949 -0.025350
C84   C     C_R   0.994518 0.179083 0.755747 0.067793
C85   C     C_R   0.007695 0.250133 0.824415 0.003659
C86   C     C_R   0.004276 0.318536 0.813184 -0.106621
C87   C     C_R   0.972886 0.101299 0.759953 -0.007267
C88   C     C_R   0.974957 0.100706 0.835370 0.213403
C89   C     C_R   0.003109 0.177109 0.908944 0.252220
C90   C     C_R   0.022847 0.251330 0.903818 -0.257870
H18   H     H_    0.049418 0.310418 0.963211 0.179846
N1    N     N_R   0.142284 0.525997 0.307832 0.247980
O25   O     O_R   0.174514 0.589434 0.385634 -0.310673
O26   O     O_R   0.058244 0.468499 0.261186 -0.324535
N2    N     N_R   0.599184 0.932446 0.471280 0.236405
O27   O     O_R   0.551420 0.944573 0.505275 -0.379771
O28   O     O_R   0.613272 0.969286 0.426891 -0.297298
N3    N     N_R   0.768612 0.963504 0.506424 0.208459
O29   O     O_R   0.761627 0.976262 0.441407 -0.301336
O30   O     O_R   0.800598 0.030105 0.581907 -0.406548
N4    N     N_3   0.947479 0.647799 0.425623 -0.343223
H19   H     H_    0.925985 0.638987 0.362705 0.211068
H20   H     H_    0.009149 0.704886 0.468464 0.221099
N5    N     N_R   0.750777 0.567128 0.535954 0.214609
O31   O     O_R   0.714498 0.483509 0.493122 -0.301344
O32   O     O_R   0.780945 0.607208 0.619628 -0.412693
N6    N     N_R   0.840618 0.816063 0.862634 0.235324
O33   O     O_R   0.905225 0.889150 0.933289 -0.285878
O34   O     O_R   0.781800 0.816914 0.801961 -0.323570
N7    N     N_R   0.524597 0.306576 0.536469 0.178856
O35   O     O_R   0.509215 0.279843 0.456652 -0.322685
O36   O     O_R   0.457873 0.272914 0.545774 -0.446895
N8    N     N_R   0.163745 0.172071 0.183498 0.255683
O37   O     O_R   0.143786 0.101092 0.119183 -0.266661
O38   O     O_R   0.200077 0.243732 0.184248 -0.342723
N9    N     N_3   0.399782 0.344607 0.830904 -0.357005
H21   H     H_    0.453535 0.336001 0.853819 0.197389
H22   H     H_    0.419839 0.408245 0.873267 0.206719
N10   N     N_R   0.230302 0.230072 0.694804 0.212645
O39   O     O_R   0.239656 0.176823 0.720240 -0.332729
O40   O     O_R   0.199458 0.274452 0.728934 -0.418330
N11   N     N_3   0.060921 0.016023 0.316163 -0.458119
H23   H     H_    0.092222 0.008691 0.367258 0.184520
H24   H     H_    0.997772 0.004938 0.301773 0.243651
N12   N     N_3   0.040712 0.023874 0.169947 -0.338865
H25   H     H_    0.978221 0.006455 0.162644 0.213074
H26   H     H_    0.052306 0.973497 0.166486 0.219133
N13   N     N_3   0.337379 0.626694 0.219353 -0.327536
H27   H     H_    0.405403 0.657367 0.261954 0.209676
H28   H     H_    0.325476 0.595183 0.155735 0.214832
N14   N     N_3   0.672668 0.507981 0.048752 -0.445360
H29   H     H_    0.620619 0.506355 0.058552 0.223858
H30   H     H_    0.675300 0.453769 0.046731 0.194407
N15   N     N_R   0.186161 0.710537 0.249570 0.207483
O41   O     O_R   0.152606 0.649430 0.264334 -0.391169
O42   O     O_R   0.250765 0.719693 0.234675 -0.375900
N16   N     N_3   0.316145 0.014820 0.442867 -0.401504
H31   H     H_    0.369364 0.018341 0.434316 0.219826
H32   H     H_    0.334394 0.025567 0.506140 0.209168
N17   N     N_3   0.690030 0.620943 0.208489 -0.438769
H33   H     H_    0.677383 0.671261 0.215664 0.212619
H34   H     H_    0.707647 0.620390 0.267086 0.212629
N18   N     N_3   0.811467 0.558408 0.022014 -0.437043
H35   H     H_    0.800247 0.496341 0.005048 0.237055
H36   H     H_    0.860538 0.593290 0.013434 0.151161
N19   N     N_R   0.008048 0.179664 0.987810 0.233398
O43   O     O_R   0.020485 0.124740 0.008198 -0.225003
O44   O     O_R   0.000053 0.237356 0.040110 -0.382664
N20   N     N_R   0.366992 0.469795 0.196159 0.226554
O45   O     O_R   0.337224 0.399168 0.125244 -0.324978
O46   O     O_R   0.450975 0.527555 0.242983 -0.409561
N21   N     N_R   0.982602 0.453420 0.768581 0.190990
O47   O     O_R   0.040648 0.535655 0.821260 -0.363298
O48   O     O_R   0.900748 0.430704 0.722680 -0.421587
N22   N     N_3   0.033830 0.483509 0.655707 -0.316476
H37   H     H_    0.972824 0.479418 0.639312 0.293795
H38   H     H_    0.083939 0.542182 0.713294 0.250022
N23   N     N_R   0.073946 0.376447 0.559655 0.219058
O49   O     O_R   0.144781 0.448418 0.590211 -0.334151
O50   O     O_R   0.020610 0.326080 0.475254 -0.345419
N24   N     N_3   0.065694 0.235589 0.573075 -0.402917
H39   H     H_    0.020965 0.211007 0.507439 0.254745
H40   H     H_    0.128687 0.276492 0.587245 0.204964
N25   N     N_3   0.941114 0.020558 0.686073 -0.414787
H41   H     H_    0.984496 0.998768 0.704362 0.248672
H42   H     H_    0.879015 0.975407 0.670147 0.223377
N26   N     N_R   0.942341 0.020720 0.834194 0.238184
O51   O     O_R   0.983868 0.978511 0.830061 -0.312361
O52   O     O_R   0.871305 0.990679 0.838565 -0.255362
N27   N     N_3   0.172672 0.372261 0.282105 -0.391856
H43   H     H_    0.104386 0.341050 0.240408 0.272014
H44   H     H_    0.185942 0.403940 0.346266 0.206123
N28   N     N_R   0.867642 0.542535 0.482826 0.255739
O53   O     O_R   0.868125 0.489891 0.418022 -0.292509
O54   O     O_R   0.896567 0.543566 0.556561 -0.309827

loop_
_geom_bond_atom_site_label_1
_geom_bond_atom_site_label_2
_geom_bond_distance
_ccdc_geom_bond_type
C45   C47   1.457031 A    
C39   C40   1.398788 A    
Zn2   O6    2.031565 S    
N18   H35   1.043420 S    
O13   C57   1.303933 A    
C30   H9    1.077327 S    
C7    C10   1.553788 S    
N11   H23   1.028143 S    
Zn5   O23   2.039114 S    
C8    C9    1.524799 S    
O9    Zn3   2.043392 S    
C64   H15   1.083275 S    
C80   N24   1.419465 S    
C84   C87   1.443191 A    
C81   C82   1.420267 A    
N28   O54   1.300725 A    
C70   C71   1.407465 A    
C88   C89   1.398027 A    
N13   H28   1.045003 S    
C19   C20   1.418335 A    
N15   O41   1.296509 A    
N16   H31   1.045842 S    
C5    C8    1.547254 S    
C77   N21   1.422413 S    
C16   N3    1.430441 S    
C25   C26   1.414704 A    
N22   H38   1.044443 S    
C41   C46   1.421651 A    
C63   N15   1.425190 S    
C16   C17   1.456037 A    
N9    H22   1.045818 S    
N4    H20   1.045788 S    
C7    C8    1.536257 S    
C32   C36   1.434138 A    
C43   N9    1.434533 S    
O4    C2    1.283070 A    
O10   C55   1.289147 A    
O7    C4    1.283400 A    
Zn4   O14   2.043350 S    
N20   O45   1.300205 A    
C46   C50   1.407872 A    
C79   N23   1.437773 S    
C71   C72   1.442221 A    
O19   Zn5   2.018118 S    
O20   C60   1.269705 A    
Zn6   O24   2.018028 S    
C15   N2    1.439318 S    
C64   C65   1.384137 A    
O22   C61   1.285570 A    
Zn1   O5    2.026311 S    
C35   C40   1.453777 A    
C52   C53   1.390110 A    
C19   C60   1.448087 S    
O5    C3    1.287534 A    
C74   C75   1.396634 A    
O10   Zn4   2.037968 S    
C66   C67   1.423579 A    
N9    H21   1.045815 S    
C24   N4    1.433159 S    
N7    O35   1.302606 A    
C4    C36   1.452478 S    
C67   C68   1.405776 A    
N16   H32   1.045603 S    
C85   C86   1.415320 A    
N19   O44   1.301694 A    
O19   C60   1.306910 A    
C31   C32   1.399240 A    
N18   H36   1.035524 S    
N5    O31   1.301849 A    
C9    C12   1.529788 S    
C49   C50   1.403994 A    
C75   N14   1.440608 S    
C17   C18   1.413991 A    
C27   C32   1.430229 A    
O17   Zn5   2.031621 S    
N6    O34   1.301637 A    
C5    C12   1.548892 S    
C45   C46   1.411767 A    
N21   O47   1.302551 A    
N7    O36   1.297424 A    
C10   C11   1.545487 S    
N5    O32   1.296889 A    
N10   O40   1.299305 A    
N11   H24   1.043762 S    
C41   H12   1.078966 S    
C48   C49   1.404022 A    
C47   C62   1.449979 S    
O3    Zn1   2.040398 S    
O24   C62   1.295849 A    
N28   O53   1.301180 A    
N3    O30   1.299860 A    
C37   H10   1.078337 S    
N12   H26   1.045711 S    
N3    O29   1.302374 A    
Zn3   O13   2.038010 S    
O21   C61   1.289199 A    
C78   N22   1.437437 S    
C29   H8    1.082997 S    
C34   C37   1.426607 A    
N2    O27   1.301594 A    
N22   H37   1.044022 S    
C18   C22   1.419135 A    
C35   C36   1.448771 A    
C20   C23   1.417961 A    
N14   H29   1.044031 S    
N4    H19   1.045794 S    
N20   O46   1.300526 A    
C53   C54   1.385690 A    
N15   O42   1.300602 A    
N24   H39   1.044613 S    
O9    C55   1.289426 A    
Zn3   O15   2.041216 S    
N26   O51   1.300872 A    
C47   C48   1.453931 A    
C3    C50   1.438379 S    
C1    C22   1.452802 S    
C13   C14   1.375424 A    
N23   O49   1.301056 A    
C44   N10   1.429924 S    
C5    C6    1.546045 S    
C42   C43   1.377454 A    
C20   C21   1.402298 A    
O15   C58   1.280698 A    
C23   C24   1.386169 A    
N8    O38   1.301086 A    
C66   H16   1.075512 S    
C48   C51   1.456497 A    
Zn1   O7    2.021885 S    
C27   C28   1.399947 A    
N25   H41   1.044966 S    
C40   N7    1.422044 S    
N13   H27   1.044669 S    
C76   N18   1.430211 S    
H6    C39   1.084184 S    
O16   C58   1.281139 A    
O12   C56   1.282885 A    
C57   C86   1.454312 S    
O14   C57   1.271159 A    
O18   Zn6   2.050113 S    
Zn2   O8    2.040399 S    
C41   C42   1.372812 A    
Zn6   O22   2.031619 S    
C34   C35   1.414888 A    
C14   C15   1.382791 A    
C75   C76   1.407969 A    
C67   C69   1.410058 A    
C63   C68   1.438345 A    
C30   C31   1.423484 A    
C52   N12   1.436951 S    
N6    O33   1.301820 A    
C61   C83   1.452080 S    
C82   C86   1.440219 A    
C65   N16   1.436304 S    
O3    C2    1.283153 A    
N25   H42   1.045589 S    
C11   N27   1.455088 S    
O8    C4    1.301333 A    
C33   C34   1.413699 A    
O11   C56   1.278585 A    
Zn4   O16   2.020287 S    
N10   O39   1.302985 A    
N2    O28   1.300234 A    
C6    N1    1.457724 S    
N27   H44   1.045123 S    
C63   C64   1.400227 A    
C80   C81   1.443449 A    
C26   N5    1.425524 S    
C68   C72   1.441093 A    
O20   Zn6   2.038984 S    
C28   C29   1.388294 A    
C69   C70   1.407905 A    
C42   H13   1.083743 S    
C13   C18   1.415935 A    
C5    H1    1.110148 S    
C38   C39   1.369156 A    
C24   C25   1.390818 A    
C51   N11   1.424220 S    
C6    C11   1.521006 S    
C87   N25   1.430270 S    
Zn5   O21   2.049898 S    
O1    Zn1   2.031566 S    
C6    C7    1.537152 S    
O2    Zn2   2.026312 S    
C51   C52   1.411633 A    
O6    C3    1.282655 A    
C81   C83   1.443731 A    
O4    Zn2   2.021883 S    
N14   H30   1.045387 S    
N1    O25   1.300571 A    
C71   C76   1.444973 A    
C37   C38   1.374975 A    
C87   C88   1.413759 A    
C38   H11   1.083158 S    
C31   C33   1.408230 A    
O11   Zn3   2.020324 S    
C90   H18   1.080282 S    
C21   C26   1.439952 A    
C53   N8    1.443516 S    
C28   N6    1.440340 S    
N8    O37   1.301591 A    
C83   C84   1.431356 A    
C85   C90   1.417200 A    
C7    C56   1.446284 S    
C17   C19   1.441021 A    
N24   H40   1.045003 S    
C73   C74   1.387930 A    
C43   C44   1.409907 A    
N1    O26   1.300289 A    
C14   H4    1.083482 S    
C78   C79   1.369847 A    
C59   C69   1.440190 S    
C79   C80   1.398509 A    
C2    C12   1.436204 S    
C55   C72   1.462271 S    
C21   C22   1.429576 A    
C77   C82   1.450797 A    
O2    C1    1.303451 A    
O23   C62   1.280406 A    
N26   O52   1.300642 A    
C44   C45   1.463248 A    
C73   H17   1.078357 S    
O18   C59   1.288330 A    
C23   H5    1.076849 S    
C54   H14   1.078207 S    
C8    N13   1.455886 S    
N17   H34   1.045844 S    
C70   C73   1.416172 A    
N27   H43   1.044697 S    
C27   H7    1.073254 S    
N12   H25   1.045506 S    
C88   N26   1.432910 S    
C29   C30   1.385924 A    
C89   N19   1.441539 S    
O12   Zn4   2.041084 S    
C9    C10   1.547739 S    
O17   C59   1.276963 A    
N19   O43   1.299946 A    
C10   H2    1.108190 S    
C65   C66   1.385640 A    
C49   C54   1.419359 A    
N21   O48   1.296299 A    
C11   C12   1.527471 S    
C89   C90   1.388577 A    
N17   H33   1.045767 S    
C33   C58   1.436840 S    
C25   N28   1.436585 S    
O1    C1    1.280796 A    
C74   N17   1.433374 S    
N23   O50   1.300899 A    
C9    N20   1.456402 S    
C13   H3    1.079823 S    
C84   C85   1.398735 A    
C77   C78   1.404071 A    
C15   C16   1.418634 A    
