data_mof_unit_14777.cif
_audit_creation_date              2012-12-11T17:01:25-0500
_audit_creation_method            fapswitch 2.2
_symmetry_space_group_name_H-M    P1
_symmetry_Int_Tables_number       1
_space_group_crystal_system       triclinic
_cell_length_a                    15.063335
_cell_length_b                    14.808811
_cell_length_c                    14.847518
_cell_angle_alpha                 109.699569
_cell_angle_beta                  109.317841
_cell_angle_gamma                 109.420363
_cell_volume                      2548.82561216

loop_
_atom_site_label
_atom_site_type_symbol
_atom_type_description
_atom_site_fract_x
_atom_site_fract_y
_atom_site_fract_z
_atom_type_partial_charge
C1    C     C_R   0.929858 0.744375 0.022718 -0.158387
C2    C     C_R   0.676698 0.224142 0.672931 0.072423
C3    C     C_R   0.066788 0.500944 0.698158 0.075219
C4    C     C_R   0.705118 0.503169 0.074415 -0.003789
C5    C     C_R   0.067557 0.593052 0.314183 -0.152594
C6    C     C_R   0.224011 0.407126 0.957030 0.440440
C7    C     C_R   0.299012 0.803338 0.207717 -0.154952
C8    C     C_R   0.903565 0.195224 0.994577 -0.147867
C9    C     C_R   0.991380 0.191938 0.901204 -0.053748
C10   C     C_R   0.210578 0.805655 0.301370 -0.091326
C11   C     C_R   0.973444 0.408323 0.223880 -0.113032
C12   C     C_R   0.779471 0.253594 0.685580 -0.143453
C13   C     C_R   0.315048 0.593035 0.057831 -0.191198
C14   C     C_R   0.051362 0.501774 0.327218 0.063928
C15   C     C_R   0.327007 0.500362 0.031991 -0.131039
C16   C     C_R   0.303637 0.867982 0.302620 0.086372
C17   C     C_R   0.930060 0.128899 0.931454 0.039667
C18   C     C_3   0.541231 0.489548 0.958122 -0.382359
C19   C     C_3   0.435312 0.484994 0.944460 -0.364186
C20   C     C_3   0.541347 0.410731 0.085589 -0.423996
C21   C     C_3   0.635705 0.617025 0.164469 -0.395265
C22   C     C_3   0.608551 0.505448 0.072481 0.373292
C23   C     C_R   0.096444 0.591966 0.792687 -0.150136
C24   C     C_3   0.430520 0.504099 0.051561 0.391937
C25   C     C_3   0.440036 0.415477 0.081795 -0.361813
C26   C     C_3   0.530186 0.618424 0.148286 -0.394620
C27   C     C_R   0.574415 0.121177 0.467992 0.153162
C28   C     C_R   0.576182 0.167833 0.568211 0.025878
C29   C     C_R   0.475874 0.140359 0.565282 -0.169589
C30   C     C_R   0.380514 0.047908 0.471412 -0.150395
C31   C     C_R   0.385764 0.984497 0.380385 0.019420
C32   C     C_R   0.480297 0.030968 0.375228 0.148328
C33   C     C_3   0.540700 0.979422 0.337037 -0.495270
C34   C     C_R   0.703279 0.410031 0.008901 -0.153770
C35   C     C_3   0.643528 0.077558 0.438677 -0.498484
C36   C     C_R   0.160866 0.604511 0.533203 0.114777
C37   C     C_R   0.101422 0.504898 0.431993 -0.003038
C38   C     C_R   0.073139 0.405618 0.434941 -0.169622
C39   C     C_R   0.075253 0.404749 0.529608 -0.188723
C40   C     C_R   0.106830 0.503409 0.621246 0.049720
C41   C     C_R   0.163045 0.603388 0.626505 0.107954
C42   C     C_3   0.160393 0.708962 0.668817 -0.602861
C43   C     C_3   0.158305 0.710896 0.567233 0.318958
C44   C     C_R   0.834935 0.867252 0.938211 0.115231
C45   C     C_R   0.004484 0.408686 0.699099 -0.128754
C46   C     C_R   0.894869 0.826669 0.899542 -0.008407
C47   C     C_R   0.922501 0.858091 0.828837 -0.163507
C48   C     C_R   0.919571 0.950393 0.825289 -0.185448
C49   C     C_R   0.888135 0.010375 0.891809 0.046334
C50   C     C_R   0.832312 0.958428 0.934700 0.123299
C51   C     C_3   0.834564 0.003358 0.042465 -0.601349
C52   C     C_3   0.836707 0.903671 0.046545 0.313262
C53   C     C_R   0.795345 0.593413 0.100809 -0.121447
C54   C     C_R   0.686254 0.249621 0.776055 -0.103139
C55   C     C_R   0.024328 0.749431 0.933902 -0.110776
C56   C     C_R   0.945958 0.773400 0.947841 0.068502
H1    H     H_    0.871115 0.745183 0.048053 0.148887
H2    H     H_    0.345805 0.831088 0.171391 0.105672
H3    H     H_    0.840022 0.168177 0.013950 0.115993
H4    H     H_    0.180197 0.836139 0.354342 0.108282
H5    H     H_    0.941525 0.322613 0.202531 0.094140
H6    H     H_    0.522779 0.411550 0.890333 0.159980
H7    H     H_    0.587976 0.559013 0.949323 0.215606
H8    H     H_    0.428516 0.549380 0.924567 0.180118
H9    H     H_    0.802986 0.250161 0.624031 0.110211
H10   H     H_    0.367624 0.403702 0.872520 0.218903
H11   H     H_    0.514721 0.328644 0.017781 0.172898
H12   H     H_    0.369035 0.331575 0.023057 0.221707
H13   H     H_    0.680934 0.628008 0.247231 0.157174
H14   H     H_    0.686879 0.688753 0.161605 0.203491
H15   H     H_    0.531520 0.685510 0.129796 0.185289
H16   H     H_    0.526829 0.638322 0.225959 0.160839
H17   H     H_    0.445912 0.437128 0.163778 0.156342
H18   H     H_    0.472120 0.180121 0.638754 0.136205
H19   H     H_    0.160443 0.675686 0.829598 0.114220
H20   H     H_    0.306944 0.019691 0.476049 0.146871
H21   H     H_    0.523339 0.900605 0.337734 0.203674
H22   H     H_    0.535290 0.976393 0.259454 0.197556
H23   H     H_    0.683936 0.053799 0.496740 0.205388
H24   H     H_    0.697393 0.130536 0.419446 0.192853
H25   H     H_    0.035649 0.327010 0.361046 0.127825
H26   H     H_    0.039325 0.325559 0.524762 0.133676
H27   H     H_    0.083814 0.697488 0.669442 0.168792
H28   H     H_    0.236095 0.776642 0.747308 0.241652
H29   H     H_    0.081697 0.703305 0.512533 0.061933
H30   H     H_    0.647092 0.324608 0.978059 0.101096
H31   H     H_    0.955387 0.981776 0.782569 0.145208
H32   H     H_    0.911081 0.081848 0.109031 0.168738
H33   H     H_    0.758782 0.004938 0.032858 0.241137
H34   H     H_    0.913044 0.926928 0.117173 0.066531
H35   H     H_    0.828134 0.679339 0.158767 0.107438
H36   H     H_    0.055605 0.760058 0.880240 0.096237
H37   H     H_    0.125449 0.678498 0.374545 0.150883
N1    N     N_R   0.995640 0.706130 0.053910 -0.045317
N2    N     N_R   0.153680 0.443190 0.946090 -0.067787
N3    N     N_R   0.208920 0.706140 0.152110 -0.037693
N4    N     N_R   0.947120 0.293870 0.002870 -0.046953
N5    N     N_R   0.004360 0.293870 0.946090 -0.046980
N6    N     N_R   0.151690 0.706140 0.208890 -0.046697
N7    N     N_R   0.945990 0.443210 0.152110 -0.040643
N8    N     N_R   0.210060 0.556810 0.002870 -0.054238
N9    N     N_R   0.848310 0.293860 0.791110 -0.043492
N10   N     N_R   0.054010 0.556790 0.847890 -0.042085
N11   N     N_R   0.789940 0.443190 0.997130 -0.035831
N12   N     N_R   0.997630 0.443170 0.791110 -0.040869
N13   N     N_R   0.846320 0.556810 0.053910 -0.037151
N14   N     N_R   0.791080 0.293860 0.847890 -0.045048
N15   N     N_R   0.052880 0.706130 0.997130 -0.042630
N16   N     N_R   0.002370 0.556830 0.208890 -0.043847
Ni1   Ni    Ni4+2 0.999010 0.630300 0.130220 0.213130
Ni2   Ni    Ni4+2 0.000990 0.369700 0.869780 0.247120
Ni3   Ni    Ni4+2 0.130280 0.630280 0.000000 0.211022
Ni4   Ni    Ni4+2 0.869720 0.369720 0.000000 0.214844
Cl1   Cl    Cl    0.190576 0.274940 0.861603 -0.776688
H38   H     H_    0.002890 0.157972 0.832430 0.161790
H39   H     H_    0.376908 0.679297 0.107125 0.124750
H40   H     H_    0.591180 0.418162 0.165029 0.161538
Cl2   Cl    Cl    0.279931 0.822437 0.599020 -0.659889
H41   H     H_    0.960248 0.822430 0.788658 0.129449
Cl3   Cl    Cl    0.714633 0.811408 0.033314 -0.721013
H42   H     H_    0.981515 0.324084 0.647209 0.105847
H43   H     H_    0.622843 0.238631 0.797080 0.102150

loop_
_geom_bond_atom_site_label_1
_geom_bond_atom_site_label_2
_ccdc_geom_bond_type
C21   C26   S    
C9    N5    A    
C4    C53   A    
C26   H16   S    
C41   C42   S    
C20   H11   S    
C52   H34   S    
C55   C56   A    
C2    C12   A    
N11   N13   A    
N4    N5    A    
N9    Ni2   S    
C6    Cl1   S    
C16   C31   S    
C7    N3    A    
N3    Ni3   S    
N1    N15   A    
C55   H36   S    
C54   N14   A    
C36   C37   A    
C1    C56   A    
C24   C26   S    
C8    H3    S    
C38   C39   A    
C11   C14   A    
C18   H7    S    
C20   C25   S    
N3    N6    A    
C35   H24   S    
C4    C22   S    
C19   H10   S    
C18   C19   S    
C34   H30   S    
N14   Ni4   S    
C6    C15   A    
C3    C23   A    
C53   N13   A    
C23   N10   A    
C31   C32   A    
C44   C46   A    
C1    N1    A    
C53   H35   S    
C7    H2    S    
C44   C52   S    
C47   H41   S    
N12   Ni2   S    
N7    N16   A    
C21   C22   S    
C26   H15   S    
C36   C41   A    
C25   H12   S    
C20   H40   S    
C45   N12   A    
C4    C34   A    
C42   H27   S    
C51   C52   S    
C43   H29   S    
C42   H28   S    
C24   C25   S    
C2    C54   A    
C17   C49   S    
C39   C40   A    
C10   C16   A    
C18   H6    S    
C29   H18   S    
C45   H42   S    
N6    Ni1   S    
N1    Ni1   S    
C34   N11   A    
N15   Ni3   S    
C21   H13   S    
C11   N7    A    
N8    Ni3   S    
C9    H38   S    
C37   C38   A    
C10   H4    S    
C8    N4    A    
C12   N9    A    
C29   C30   A    
C1    H1    S    
C30   H20   S    
C47   C48   A    
C19   H8    S    
C50   C51   S    
C48   H31   S    
N9    N14   A    
N10   N12   A    
C5    C14   A    
C52   Cl3   S    
C9    C17   A    
C40   C41   A    
C20   C22   S    
C3    C40   S    
C6    N2    A    
C13   C15   A    
C38   H25   S    
C42   C43   S    
C13   N8    A    
C28   C29   A    
N13   Ni1   S    
C44   C50   A    
C46   C47   A    
C15   C24   S    
N5    Ni2   S    
C27   C32   A    
C18   C22   S    
C7    C16   A    
N7    Ni4   S    
C39   H26   S    
C23   H19   S    
C11   H5    S    
C51   H32   S    
C5    H37   S    
C12   H9    S    
C55   N15   A    
C8    C17   A    
C21   H14   S    
C27   C35   S    
C32   C33   S    
C19   C24   S    
N2    Ni2   S    
N16   Ni1   S    
C51   H33   S    
C14   C37   S    
C33   H21   S    
C30   C31   A    
C5    N16   A    
C48   C49   A    
C35   H23   S    
C33   C35   S    
C3    C45   A    
C25   H17   S    
C54   H43   S    
C10   N6    A    
C33   H22   S    
C13   H39   S    
C43   Cl2   S    
N11   Ni4   S    
C49   C50   A    
C46   C56   S    
C27   C28   A    
N10   Ni3   S    
C36   C43   S    
C2    C28   S    
N4    Ni4   S    
N2    N8    A    
