data_mof_unit_33888.cif
_audit_creation_date              2012-12-11T17:18:17-0500
_audit_creation_method            fapswitch 2.2
_symmetry_space_group_name_H-M    P1
_symmetry_Int_Tables_number       1
_space_group_crystal_system       triclinic
_cell_length_a                    27.584782
_cell_length_b                    22.56201
_cell_length_c                    20.923741
_cell_angle_alpha                 90.112252
_cell_angle_beta                  51.547244
_cell_angle_gamma                 90.377501
_cell_volume                      10197.7558788

loop_
_atom_site_label
_atom_site_type_symbol
_atom_type_description
_atom_site_fract_x
_atom_site_fract_y
_atom_site_fract_z
_atom_type_partial_charge
C1    C     C_R   0.900268 0.566686 0.737046 -0.231653
C2    C     C_R   0.074564 0.420610 0.270773 -0.202513
C3    C     C_R   0.100090 0.566570 0.263020 -0.222155
C4    C     C_R   0.923162 0.420030 0.730149 -0.186051
C5    C     C_R   0.399039 0.065433 0.737034 -0.206128
C6    C     C_R   0.574805 0.919692 0.270988 -0.206554
C7    C     C_R   0.601993 0.064045 0.263319 -0.224226
C8    C     C_R   0.424916 0.919241 0.729127 -0.207123
C9    C     C_1   0.232732 0.658032 0.119652 0.075820
C10   C     C_1   0.886143 0.284807 0.840110 0.074869
C11   C     C_1   0.769563 0.661161 0.877153 0.055546
C12   C     C_1   0.109650 0.290251 0.155434 0.055249
C13   C     C_1   0.737220 0.151662 0.118413 0.071496
C14   C     C_1   0.391549 0.783649 0.837097 0.055151
C15   C     C_1   0.263839 0.155728 0.877883 0.051408
C16   C     C_1   0.610381 0.788124 0.158274 0.057702
C17   C     C_1   0.896603 0.320212 0.790527 0.013540
C18   C     C_1   0.185766 0.640047 0.181553 0.040032
C19   C     C_1   0.098281 0.322667 0.208501 0.015877
C20   C     C_1   0.815664 0.640702 0.817284 0.017852
C21   C     C_1   0.401298 0.818740 0.787447 0.017470
C22   C     C_1   0.690821 0.133713 0.180902 0.033027
C23   C     C_1   0.599151 0.820726 0.210868 0.026798
C24   C     C_1   0.309989 0.135216 0.817864 -0.010831
C25   C     C_1   0.202584 0.641118 0.475274 0.069754
C26   C     C_1   0.872187 0.317171 0.417836 0.088587
C27   C     C_1   0.800526 0.641748 0.517346 0.063508
C28   C     C_1   0.179444 0.344207 0.514047 0.042935
C29   C     C_1   0.703889 0.139299 0.472496 0.061386
C30   C     C_1   0.376222 0.816551 0.412879 0.091614
C31   C     C_1   0.366776 0.177923 0.423266 0.081207
C32   C     C_1   0.621717 0.814992 0.587632 0.090530
C33   C     C_2   0.307238 0.686978 0.431324 0.396649
C34   C     C_2   0.827964 0.234248 0.378398 0.386988
C35   C     C_2   0.702012 0.690629 0.547455 0.381290
C36   C     C_2   0.281979 0.298318 0.472331 0.394312
C37   C     C_2   0.809473 0.185165 0.424592 0.383036
C38   C     C_2   0.330412 0.732190 0.377849 0.397938
C39   C     C_2   0.307806 0.259786 0.410338 0.399710
C40   C     C_2   0.667558 0.725491 0.613623 0.391711
C41   C     C_1   0.855292 0.279778 0.395154 -0.069747
C42   C     C_1   0.251133 0.660104 0.453792 -0.084895
C43   C     C_1   0.226118 0.324827 0.496716 -0.084073
C44   C     C_1   0.754700 0.662359 0.532437 -0.057947
C45   C     C_1   0.359198 0.778554 0.391136 -0.079157
C46   C     C_1   0.753004 0.158081 0.449128 -0.054707
C47   C     C_1   0.638794 0.774911 0.606177 -0.063975
C48   C     C_1   0.344239 0.214899 0.409336 -0.086695
C49   C     C_R   0.904143 0.418271 0.423480 -0.261284
C50   C     C_R   0.115739 0.569103 0.547011 -0.256565
C51   C     C_R   0.105026 0.423967 0.564234 -0.255513
C52   C     C_R   0.884250 0.567635 0.453017 -0.254915
C53   C     C_R   0.404946 0.918315 0.422382 -0.243047
C54   C     C_R   0.616981 0.067192 0.544554 -0.266866
C55   C     C_R   0.593494 0.917630 0.579374 -0.262002
C56   C     C_R   0.403035 0.079323 0.424547 -0.267500
C57   C     C_R   0.889434 0.638819 0.521338 0.710622
C58   C     C_R   0.099427 0.354111 0.494833 0.716788
C59   C     C_R   0.110858 0.639210 0.477810 0.708233
C60   C     C_R   0.909659 0.349737 0.493774 0.733704
C61   C     C_R   0.408281 0.148899 0.494171 0.786492
C62   C     C_R   0.586576 0.849014 0.510333 0.714445
C63   C     C_R   0.610169 0.139629 0.479450 0.750467
C64   C     C_R   0.412593 0.849086 0.489925 0.713641
C65   C     C_R   0.916773 0.349888 0.660427 0.530075
C66   C     C_R   0.100713 0.641065 0.332302 0.564467
C67   C     C_R   0.082426 0.350099 0.337897 0.548479
C68   C     C_R   0.899697 0.640733 0.667376 0.566037
C69   C     C_R   0.417147 0.849609 0.660336 0.553172
C70   C     C_R   0.604969 0.137743 0.331255 0.509549
C71   C     C_R   0.582411 0.849866 0.339336 0.551009
C72   C     C_R   0.395656 0.137555 0.667453 0.520534
C73   C     C_R   0.870046 0.617675 0.744525 -0.075703
C74   C     C_R   0.090945 0.363050 0.266331 -0.097750
C75   C     C_R   0.130675 0.617786 0.255132 -0.084838
C76   C     C_R   0.905361 0.362438 0.733846 -0.117469
C77   C     C_R   0.366191 0.114380 0.744861 -0.086446
C78   C     C_R   0.591461 0.862125 0.267579 -0.096397
C79   C     C_R   0.635215 0.112935 0.254933 -0.057963
C80   C     C_R   0.407957 0.861337 0.732353 -0.099210
C81   C     C_R   0.888651 0.360816 0.450072 -0.119784
C82   C     C_R   0.145047 0.618654 0.500542 -0.083788
C83   C     C_R   0.127101 0.369979 0.529120 -0.072504
C84   C     C_R   0.855256 0.617398 0.498451 -0.086921
C85   C     C_R   0.391527 0.860275 0.446350 -0.120163
C86   C     C_R   0.645650 0.117499 0.499561 -0.088085
C87   C     C_R   0.606552 0.859647 0.555283 -0.106054
C88   C     C_R   0.387302 0.136122 0.450922 -0.104918
C89   C     C_R   0.807546 0.153330 0.969578 0.581931
C90   C     C_R   0.355651 0.766294 0.975220 0.601689
C91   C     C_R   0.178285 0.157860 0.025206 0.603160
C92   C     C_R   0.663269 0.780682 0.013088 0.577819
C93   C     C_R   0.308490 0.655148 0.970983 0.587423
C94   C     C_R   0.854177 0.263942 0.975808 0.604668
C95   C     C_R   0.682558 0.659254 0.023443 0.597699
C96   C     C_R   0.162838 0.279578 0.009768 0.587332
C97   C     C_R   0.287202 0.680894 0.045205 -0.030111
C98   C     C_R   0.866406 0.243579 0.903567 -0.025863
C99   C     C_R   0.716805 0.688515 0.947883 -0.039472
C100  C     C_R   0.132449 0.253202 0.086847 -0.037207
C101  C     C_R   0.789830 0.175997 0.043623 -0.036427
C102  C     C_R   0.370894 0.743551 0.902250 -0.022082
C103  C     C_R   0.212312 0.184993 0.948239 -0.032193
C104  C     C_R   0.633221 0.752428 0.088888 -0.039525
C105  C     C_R   0.313156 0.733477 0.047580 -0.471997
C106  C     C_R   0.845686 0.188129 0.899395 -0.436186
C107  C     C_R   0.706329 0.748070 0.942288 -0.429833
C108  C     C_R   0.136755 0.192270 0.094680 -0.435110
C109  C     C_R   0.815801 0.228366 0.046418 -0.466769
C110  C     C_R   0.350404 0.687575 0.899239 -0.446669
C111  C     C_R   0.203775 0.244684 0.940311 -0.444969
C112  C     C_R   0.639252 0.691569 0.094223 -0.431440
H1    H     H_    0.890095 0.538235 0.785558 0.141038
H2    H     H_    0.066755 0.441876 0.231600 0.142978
H3    H     H_    0.110339 0.537834 0.214703 0.152055
H4    H     H_    0.929890 0.440650 0.770866 0.140344
H5    H     H_    0.388994 0.036677 0.785233 0.138524
H6    H     H_    0.567169 0.940174 0.231224 0.143292
H7    H     H_    0.611966 0.034861 0.215549 0.151193
H8    H     H_    0.432612 0.939660 0.769000 0.142934
H9    H     H_    0.904467 0.438462 0.376350 0.148321
H10   H     H_    0.128622 0.543136 0.577456 0.144640
H11   H     H_    0.113425 0.447427 0.601542 0.141525
H12   H     H_    0.871610 0.540185 0.422970 0.151501
H13   H     H_    0.404853 0.939215 0.375949 0.147311
H14   H     H_    0.631195 0.038596 0.571531 0.154794
H15   H     H_    0.592810 0.937987 0.626785 0.148136
H16   H     H_    0.402002 0.057596 0.379247 0.150772
H17   H     H_    0.854199 0.174578 0.843510 0.165952
H18   H     H_    0.295710 0.749813 0.106924 0.172294
H19   H     H_    0.111326 0.172473 0.154789 0.166442
H20   H     H_    0.735168 0.770095 0.883460 0.173343
H21   H     H_    0.362158 0.671848 0.842390 0.163454
H22   H     H_    0.801361 0.242423 0.105281 0.171761
H23   H     H_    0.614220 0.670385 0.153458 0.168584
H24   H     H_    0.232484 0.264777 0.880226 0.164470
N1    N     N_R   0.945330 0.558420 0.657110 -0.062752
N2    N     N_R   0.054670 0.441580 0.342890 -0.070625
N3    N     N_R   0.054670 0.558420 0.342890 -0.065089
N4    N     N_R   0.945330 0.441580 0.657110 -0.067783
N5    N     N_R   0.445330 0.058420 0.657110 -0.062970
N6    N     N_R   0.554670 0.941580 0.342890 -0.070348
N7    N     N_R   0.554670 0.058420 0.342890 -0.066644
N8    N     N_R   0.445330 0.941580 0.657110 -0.069264
N9    N     N_R   0.932950 0.440460 0.451240 -0.069163
N10   N     N_R   0.067050 0.559540 0.548760 -0.066133
N11   N     N_R   0.067050 0.440460 0.548760 -0.070307
N12   N     N_R   0.932950 0.559540 0.451240 -0.066670
N13   N     N_R   0.432950 0.940460 0.451240 -0.069293
N14   N     N_R   0.567050 0.059540 0.548760 -0.068930
N15   N     N_R   0.567050 0.940460 0.548760 -0.070217
N16   N     N_R   0.432950 0.059540 0.451240 -0.070904
N17   N     N_R   0.935620 0.600470 0.495720 -0.134240
N18   N     N_R   0.064380 0.399530 0.504280 -0.111587
N19   N     N_R   0.064380 0.600470 0.504280 -0.134565
N20   N     N_R   0.935620 0.399530 0.495720 -0.117369
N21   N     N_R   0.435620 0.100470 0.495720 -0.124867
N22   N     N_R   0.564380 0.899530 0.504280 -0.116955
N23   N     N_R   0.564380 0.100470 0.504280 -0.132382
N24   N     N_R   0.435620 0.899530 0.495720 -0.115981
N25   N     N_R   0.942650 0.398400 0.612630 -0.094287
N26   N     N_R   0.057350 0.601600 0.387370 -0.129840
N27   N     N_R   0.057350 0.398400 0.387370 -0.102683
N28   N     N_R   0.942650 0.601600 0.612630 -0.130141
N29   N     N_R   0.442650 0.898400 0.612630 -0.099866
N30   N     N_R   0.557350 0.101600 0.387370 -0.130193
N31   N     N_R   0.557350 0.898400 0.387370 -0.100057
N32   N     N_R   0.442650 0.101600 0.612630 -0.102998
Ni1   Ni    Ni4+2 0.004930 0.500000 0.602010 0.184925
Ni2   Ni    Ni4+2 0.995070 0.500000 0.397990 0.179512
Ni3   Ni    Ni4+2 0.504930 1.000000 0.602010 0.183960
Ni4   Ni    Ni4+2 0.495070 0.000000 0.397990 0.177489
Ni5   Ni    Ni4+2 0.998800 0.599610 0.500000 0.208535
Ni6   Ni    Ni4+2 0.001200 0.400390 0.500000 0.334824
Ni7   Ni    Ni4+2 0.498800 0.099610 0.500000 0.233158
Ni8   Ni    Ni4+2 0.501200 0.900390 0.500000 0.335396
F1    F     F_    0.885384 0.694773 0.546869 -0.701361
F2    F     F_    0.090448 0.297448 0.483721 -0.693620
F3    F     F_    0.115468 0.694822 0.451089 -0.700028
F4    F     F_    0.923172 0.294901 0.504387 -0.668980
F5    F     F_    0.417373 0.204658 0.508235 -0.733872
F6    F     F_    0.567569 0.794903 0.505782 -0.666313
F7    F     F_    0.609824 0.197538 0.463772 -0.699511
F8    F     F_    0.431943 0.794957 0.492710 -0.661504
O1    O     O_3   0.923171 0.293515 0.630323 -0.585608
C113  C     C_3   0.864451 0.265260 0.677258 0.255389
H25   H     H_    0.835431 0.284944 0.662685 0.102670
H26   H     H_    0.839033 0.269505 0.744089 0.051980
C114  C     C_3   0.872752 0.199210 0.656960 -0.160996
H27   H     H_    0.892810 0.193094 0.592051 0.251753
H28   H     H_    0.905166 0.180162 0.666020 0.192338
C115  C     C_3   0.811036 0.166088 0.711564 -1.110633
H29   H     H_    0.791711 0.169348 0.776475 0.274993
H30   H     H_    0.817994 0.118576 0.694095 0.285002
H31   H     H_    0.777338 0.185208 0.705017 0.279973
O2    O     O_3   0.104441 0.700315 0.345802 -0.605437
C116  C     C_3   0.046556 0.728165 0.384869 0.281861
H32   H     H_    0.047311 0.769691 0.412867 0.144434
H33   H     H_    0.007250 0.701356 0.435717 0.095986
C117  C     C_3   0.036322 0.744301 0.322852 -0.411903
H34   H     H_    0.076207 0.771218 0.272873 0.223847
H35   H     H_    0.033351 0.703267 0.295962 0.201176
C118  C     C_3   0.976898 0.779455 0.362551 -0.910097
H36   H     H_    0.936132 0.752317 0.410100 0.300058
H37   H     H_    0.971865 0.791725 0.315588 0.259990
H38   H     H_    0.978264 0.820670 0.390531 0.261996
O3    O     O_3   0.080107 0.293162 0.364106 -0.590060
C119  C     C_3   0.141243 0.272494 0.325628 0.316654
H39   H     H_    0.137503 0.236719 0.364905 0.197162
H40   H     H_    0.171863 0.307471 0.321621 0.057357
C120  C     C_3   0.171921 0.245364 0.241172 -0.419683
H41   H     H_    0.137597 0.218050 0.242629 0.231627
H42   H     H_    0.190165 0.281381 0.195452 0.206281
C121  C     C_3   0.226901 0.206619 0.213341 -1.027343
H43   H     H_    0.261801 0.232893 0.211743 0.278933
H44   H     H_    0.248954 0.190255 0.150776 0.279268
H45   H     H_    0.211473 0.167924 0.254738 0.265766
O4    O     O_3   0.895659 0.699595 0.653164 -0.606002
C122  C     C_3   0.953548 0.728460 0.613225 0.283166
H46   H     H_    0.952604 0.769359 0.584544 0.147027
H47   H     H_    0.992859 0.701827 0.562764 0.095085
C123  C     C_3   0.964063 0.746242 0.674607 -0.413665
H48   H     H_    0.924223 0.772957 0.724200 0.222425
H49   H     H_    0.967219 0.705878 0.702162 0.199773
C124  C     C_3   0.023488 0.782424 0.633845 -0.912826
H50   H     H_    0.064195 0.755658 0.586370 0.300375
H51   H     H_    0.028909 0.795635 0.680249 0.259770
H52   H     H_    0.021786 0.823123 0.605521 0.262276
O5    O     O_3   0.421798 0.793360 0.630828 -0.579608
C125  C     C_3   0.361996 0.772118 0.662632 0.303996
H53   H     H_    0.368068 0.740512 0.617450 0.204130
H54   H     H_    0.330829 0.807708 0.670233 0.015869
C126  C     C_3   0.331011 0.737876 0.742651 -0.401330
H55   H     H_    0.366090 0.709804 0.737660 0.229025
H56   H     H_    0.311350 0.769569 0.793746 0.202224
C127  C     C_3   0.278386 0.698177 0.761937 -0.997902
H57   H     H_    0.243930 0.724659 0.763345 0.269661
H58   H     H_    0.254854 0.677071 0.822608 0.280205
H59   H     H_    0.296909 0.662667 0.715461 0.274246
O6    O     O_3   0.616795 0.194855 0.342276 -0.624138
C128  C     C_3   0.563550 0.230436 0.380141 0.313699
H60   H     H_    0.574126 0.273273 0.395514 0.161718
H61   H     H_    0.523975 0.210866 0.438965 0.148368
C129  C     C_3   0.547572 0.242931 0.322830 -0.404026
H62   H     H_    0.590897 0.251838 0.260193 0.220110
H63   H     H_    0.524478 0.203381 0.320490 0.197685
C130  C     C_3   0.505074 0.296373 0.350720 -0.917395
H64   H     H_    0.461730 0.289968 0.413807 0.312518
H65   H     H_    0.492891 0.302396 0.309587 0.260664
H66   H     H_    0.528856 0.337179 0.348450 0.252140
O7    O     O_3   0.577490 0.793315 0.368114 -0.578723
C131  C     C_3   0.637098 0.772745 0.336825 0.318146
H67   H     H_    0.630282 0.738798 0.380174 0.201638
H68   H     H_    0.666799 0.808233 0.334009 0.024505
C132  C     C_3   0.670872 0.742719 0.253388 -0.414524
H69   H     H_    0.638001 0.714065 0.253265 0.230303
H70   H     H_    0.690258 0.777064 0.205205 0.200220
C133  C     C_3   0.724542 0.704889 0.232799 -0.994034
H71   H     H_    0.757803 0.732448 0.233323 0.269145
H72   H     H_    0.749137 0.685692 0.170968 0.271729
H73   H     H_    0.707101 0.668079 0.277469 0.269170
O8    O     O_3   0.377489 0.187282 0.649561 -0.626337
C134  C     C_3   0.396520 0.238053 0.668581 0.261422
H74   H     H_    0.447916 0.242335 0.624639 0.111393
H75   H     H_    0.381325 0.236072 0.731939 0.059938
C135  C     C_3   0.367688 0.293022 0.661972 -0.212503
H76   H     H_    0.382598 0.296719 0.599097 0.252449
H77   H     H_    0.316390 0.288737 0.705190 0.191102
C136  C     C_3   0.386816 0.349454 0.681639 -1.075895
H78   H     H_    0.371707 0.347408 0.744717 0.271919
H79   H     H_    0.364782 0.388289 0.676749 0.279979
H80   H     H_    0.437863 0.355423 0.637907 0.283984
O9    O     O_3   0.778407 0.102954 0.969644 -0.666149
C137  C     C_3   0.821983 0.059366 0.915785 0.179683
H81   H     H_    0.811746 0.018751 0.952333 0.130916
H82   H     H_    0.871315 0.071388 0.885365 0.083060
C138  C     C_3   0.814311 0.045007 0.850993 -0.280890
H83   H     H_    0.764952 0.034650 0.881144 0.216671
H84   H     H_    0.828035 0.084128 0.810884 0.201165
C139  C     C_3   0.854006 0.992394 0.798627 -1.011505
H85   H     H_    0.903709 0.002155 0.766965 0.272379
H86   H     H_    0.847681 0.983552 0.751988 0.275253
H87   H     H_    0.840067 0.952124 0.837071 0.266521
O10   O     O_3   0.381404 0.821438 0.970553 -0.676701
C140  C     C_3   0.354990 0.849887 0.045830 0.202916
H88   H     H_    0.386867 0.886662 0.033253 0.132053
H89   H     H_    0.353387 0.820966 0.089974 0.083481
C141  C     C_3   0.292250 0.877538 0.080586 -0.326544
H90   H     H_    0.298931 0.910404 0.036173 0.207581
H91   H     H_    0.259289 0.843187 0.090205 0.206112
C142  C     C_3   0.263868 0.908340 0.161692 -1.001115
H92   H     H_    0.253787 0.875460 0.208018 0.281047
H93   H     H_    0.219874 0.929835 0.183610 0.271512
H94   H     H_    0.295901 0.942855 0.154376 0.271149
O11   O     O_3   0.184447 0.097575 0.031239 -0.658429
C143  C     C_3   0.211965 0.086996 0.069048 0.179107
H95   H     H_    0.198277 0.041490 0.095070 0.144772
H96   H     H_    0.195239 0.117170 0.121118 0.091690
C144  C     C_3   0.282777 0.089980 0.006350 -0.323319
H97   H     H_    0.298573 0.062153 0.952725 0.216563
H98   H     H_    0.297658 0.136505 0.985417 0.190269
C145  C     C_3   0.313405 0.067966 0.042401 -1.003237
H99   H     H_    0.298186 0.094558 0.096620 0.271621
H100  H     H_    0.364472 0.071977 0.996032 0.273068
H101  H     H_    0.301349 0.020722 0.060501 0.274786
O12   O     O_3   0.658738 0.841955 0.011340 -0.667293
C146  C     C_3   0.652338 0.861051 0.952454 0.166171
H102  H     H_    0.608571 0.886463 0.985078 0.129981
H103  H     H_    0.648417 0.824685 0.919674 0.095618
C147  C     C_3   0.706351 0.902447 0.891487 -0.262772
H104  H     H_    0.708939 0.938578 0.925447 0.214895
H105  H     H_    0.750482 0.877495 0.856882 0.198778
C148  C     C_3   0.698736 0.929821 0.831587 -1.013507
H106  H     H_    0.698963 0.894801 0.794140 0.273713
H107  H     H_    0.737741 0.960897 0.790162 0.276350
H108  H     H_    0.654695 0.954810 0.864881 0.265826
O13   O     O_3   0.279041 0.604458 0.971988 -0.667363
C149  C     C_3   0.321449 0.561814 0.914098 0.182223
H109  H     H_    0.312277 0.519751 0.947592 0.130436
H110  H     H_    0.371174 0.572957 0.882019 0.081621
C150  C     C_3   0.310139 0.551143 0.852001 -0.281195
H111  H     H_    0.260736 0.539082 0.884722 0.211877
H112  H     H_    0.320116 0.592344 0.816697 0.203264
C151  C     C_3   0.350825 0.501515 0.792831 -1.008756
H113  H     H_    0.400526 0.512873 0.758705 0.273973
H114  H     H_    0.341780 0.495373 0.748412 0.273197
H115  H     H_    0.340308 0.459225 0.826429 0.267655
O14   O     O_3   0.879236 0.319115 0.972630 -0.669815
C152  C     C_3   0.850366 0.347582 0.048640 0.204257
H116  H     H_    0.879644 0.386577 0.037168 0.131171
H117  H     H_    0.850356 0.319958 0.092464 0.082419
C153  C     C_3   0.785937 0.370955 0.083714 -0.335675
H118  H     H_    0.790617 0.403388 0.040216 0.208595
H119  H     H_    0.755394 0.334301 0.092128 0.206337
C154  C     C_3   0.755155 0.401062 0.165914 -0.997528
H120  H     H_    0.747563 0.368536 0.211173 0.280135
H121  H     H_    0.709632 0.419043 0.188486 0.272179
H122  H     H_    0.784432 0.438163 0.159872 0.269101
O15   O     O_3   0.690458 0.599013 0.026917 -0.659412
C155  C     C_3   0.717443 0.588159 0.065368 0.181892
H123  H     H_    0.700630 0.544044 0.095404 0.144009
H124  H     H_    0.703672 0.620407 0.114400 0.086367
C156  C     C_3   0.788138 0.586363 0.001913 -0.315763
H125  H     H_    0.801452 0.556288 0.951231 0.214365
H126  H     H_    0.806115 0.631528 0.976522 0.190783
C157  C     C_3   0.817805 0.564466 0.039290 -1.004216
H127  H     H_    0.805301 0.593765 0.090168 0.270176
H128  H     H_    0.868946 0.564616 0.992060 0.271934
H129  H     H_    0.802219 0.518524 0.062543 0.273105
O16   O     O_3   0.159552 0.340838 0.005077 -0.668025
C158  C     C_3   0.155074 0.358335 0.943869 0.181007
H130  H     H_    0.114776 0.388412 0.972694 0.124907
H131  H     H_    0.145868 0.321215 0.917321 0.090099
C159  C     C_3   0.213392 0.392967 0.876842 -0.273257
H132  H     H_    0.217166 0.433596 0.903632 0.212033
H133  H     H_    0.255143 0.365774 0.851347 0.202356
C160  C     C_3   0.211772 0.410641 0.807824 -1.024590
H134  H     H_    0.210524 0.370522 0.777997 0.263917
H135  H     H_    0.253920 0.436794 0.761424 0.271871
H136  H     H_    0.170498 0.438221 0.831707 0.272626
O17   O     O_3   0.310134 0.740928 0.331625 -0.660380
C161  C     C_3   0.346372 0.783184 0.268276 0.225126
H137  H     H_    0.348151 0.769091 0.215940 0.117585
H138  H     H_    0.395523 0.784928 0.244289 0.082315
C162  C     C_3   0.315989 0.844399 0.296048 -0.273037
H139  H     H_    0.271884 0.843071 0.304916 0.212474
H140  H     H_    0.304802 0.856408 0.355351 0.201435
C163  C     C_3   0.358338 0.892247 0.233600 -1.050097
H141  H     H_    0.401036 0.896540 0.227884 0.271451
H142  H     H_    0.334034 0.935455 0.253723 0.280367
H143  H     H_    0.371275 0.881175 0.173099 0.264978
O18   O     O_3   0.832298 0.173464 0.466972 -0.660087
C164  C     C_3   0.832484 0.111969 0.480549 0.228788
H144  H     H_    0.875885 0.102591 0.471479 0.139584
H145  H     H_    0.833496 0.083260 0.436213 0.066324
C165  C     C_3   0.777475 0.095526 0.568513 -0.303038
H146  H     H_    0.777095 0.125144 0.611147 0.224924
H147  H     H_    0.733322 0.101692 0.578537 0.195107
C166  C     C_3   0.781132 0.031321 0.587932 -1.009584
H148  H     H_    0.780718 0.000752 0.546578 0.270313
H149  H     H_    0.740628 0.020881 0.651915 0.276041
H150  H     H_    0.824027 0.024328 0.580982 0.269936
O19   O     O_3   0.673908 0.722565 0.674682 -0.663307
C167  C     C_3   0.618794 0.738910 0.751944 0.217256
H151  H     H_    0.611707 0.707155 0.797656 0.129338
H152  H     H_    0.576304 0.735571 0.756547 0.079059
C168  C     C_3   0.625790 0.801169 0.774589 -0.284407
H153  H     H_    0.665948 0.801787 0.774841 0.212197
H154  H     H_    0.634759 0.833754 0.728545 0.200187
C169  C     C_3   0.567736 0.819459 0.858635 -1.027805
H155  H     H_    0.527102 0.820009 0.859399 0.294524
H156  H     H_    0.574435 0.864604 0.873335 0.270614
H157  H     H_    0.558538 0.788208 0.906080 0.263409
O20   O     O_3   0.290791 0.259383 0.359701 -0.680310
C170  C     C_3   0.289242 0.201736 0.333969 0.212588
H158  H     H_    0.251302 0.200765 0.329425 0.133664
H159  H     H_    0.276982 0.166433 0.379114 0.089053
C171  C     C_3   0.350315 0.188287 0.249700 -0.302926
H160  H     H_    0.358173 0.221520 0.204920 0.209122
H161  H     H_    0.389480 0.191446 0.251824 0.200516
C172  C     C_3   0.349463 0.126326 0.220993 -1.007943
H162  H     H_    0.343283 0.092325 0.263904 0.266106
H163  H     H_    0.394025 0.118149 0.159626 0.275496
H164  H     H_    0.311319 0.122081 0.216958 0.272124
O21   O     O_3   0.804580 0.246068 0.336552 -0.659162
C173  C     C_3   0.839432 0.289766 0.274934 0.224547
H165  H     H_    0.840455 0.276969 0.222800 0.117634
H166  H     H_    0.888858 0.292151 0.249759 0.078120
C174  C     C_3   0.807977 0.350297 0.306068 -0.270487
H167  H     H_    0.762420 0.348336 0.318803 0.214673
H168  H     H_    0.799568 0.361628 0.363865 0.200020
C175  C     C_3   0.847618 0.399133 0.243683 -1.051976
H169  H     H_    0.891832 0.404127 0.234087 0.271699
H170  H     H_    0.822425 0.441830 0.266354 0.282486
H171  H     H_    0.857884 0.388569 0.184557 0.266877
O22   O     O_3   0.329334 0.677975 0.475502 -0.663530
C176  C     C_3   0.302987 0.628293 0.528507 0.227367
H172  H     H_    0.338013 0.611729 0.534166 0.139885
H173  H     H_    0.292980 0.590446 0.503932 0.083317
C177  C     C_3   0.245547 0.646720 0.613610 -0.313810
H174  H     H_    0.258533 0.682592 0.636911 0.212448
H175  H     H_    0.209589 0.664345 0.610507 0.200518
C178  C     C_3   0.218200 0.594599 0.673096 -1.014605
H176  H     H_    0.201763 0.559740 0.652948 0.263765
H177  H     H_    0.178246 0.609949 0.734709 0.278697
H178  H     H_    0.253303 0.575584 0.677071 0.273566
O23   O     O_3   0.299033 0.298077 0.522950 -0.657984
C179  C     C_3   0.285909 0.352090 0.565398 0.223351
H179  H     H_    0.290514 0.343917 0.613721 0.134508
H180  H     H_    0.237376 0.366864 0.598100 0.090741
C180  C     C_3   0.332503 0.400655 0.508493 -0.325024
H181  H     H_    0.380311 0.384663 0.478066 0.219307
H182  H     H_    0.327776 0.411015 0.460711 0.190227
C181  C     C_3   0.322025 0.457182 0.555609 -1.015077
H183  H     H_    0.274497 0.473903 0.586282 0.268824
H184  H     H_    0.355759 0.491744 0.512817 0.270178
H185  H     H_    0.328515 0.448570 0.602092 0.268682
O24   O     O_3   0.696060 0.694980 0.485951 -0.668412
C182  C     C_3   0.711913 0.641720 0.441086 0.218791
H186  H     H_    0.678230 0.635231 0.429123 0.133816
H187  H     H_    0.707788 0.601483 0.475166 0.074968
C183  C     C_3   0.776836 0.646893 0.358801 -0.297316
H188  H     H_    0.778426 0.685286 0.324377 0.211453
H189  H     H_    0.811622 0.654727 0.368462 0.202427
C184  C     C_3   0.794089 0.590740 0.308163 -1.020311
H190  H     H_    0.794507 0.552083 0.340625 0.266765
H191  H     H_    0.840966 0.596118 0.248676 0.277837
H192  H     H_    0.760546 0.582204 0.296421 0.268948

loop_
_geom_bond_atom_site_label_1
_geom_bond_atom_site_label_2
_ccdc_geom_bond_type
N32   Ni7   S    
O23   C179  S    
C132  H70   S    
C160  H134  S    
C93   O13   S    
N13   Ni4   S    
C51   H11   S    
C30   C45   T    
C142  H92   S    
C168  C169  S    
C118  H37   S    
C14   C21   T    
C7    C79   A    
C177  H174  S    
C95   C99   A    
C14   C102  S    
C137  C138  S    
N17   Ni5   S    
C124  H52   S    
C129  H62   S    
C137  H81   S    
C52   C84   A    
C38   C45   S    
C172  H163  S    
N16   N21   A    
C16   C104  S    
C151  H113  S    
C89   C106  A    
C17   C76   S    
C139  H87   S    
C165  C166  S    
C93   C110  A    
C97   C105  A    
C38   O17   S    
C28   C83   S    
C89   O9    S    
C1    H1    S    
C71   O7    S    
C163  H141  S    
C178  H178  S    
N3    N26   A    
C147  H105  S    
C11   C20   T    
C63   F7    S    
N14   N23   A    
C2    N2    A    
C115  H31   S    
C7    H7    S    
O7    C131  S    
C155  H123  S    
C164  C165  S    
C154  H121  S    
C169  H156  S    
N7    N30   A    
O5    C125  S    
O12   C146  S    
N28   Ni5   S    
C67   C74   A    
C139  H85   S    
C35   O24   S    
C125  H54   S    
C143  H95   S    
C26   C81   S    
C31   C48   T    
C136  H79   S    
C32   C47   T    
C173  H166  S    
N12   N17   A    
C5    C77   A    
O19   C167  S    
C51   C83   A    
C64   C85   A    
C54   C86   A    
N15   N22   A    
C130  H66   S    
C134  H75   S    
N9    Ni2   S    
O10   C140  S    
N5    N32   A    
C149  C150  S    
C89   C101  A    
C70   C79   A    
C177  C178  S    
C90   C105  A    
C91   C103  A    
O2    C116  S    
C167  H152  S    
C55   N15   A    
C94   C109  A    
C33   C38   D    
C98   C106  A    
C129  C130  S    
N8    N29   A    
O22   C176  S    
C35   C40   D    
C68   C73   A    
C68   N28   A    
C140  H89   S    
O21   C173  S    
N25   Ni6   S    
C2    H2    S    
C175  H171  S    
C151  H115  S    
C175  H170  S    
C20   C73   S    
C56   H16   S    
O16   C158  S    
O20   C170  S    
C92   C104  A    
C154  H120  S    
C24   C77   S    
C117  H35   S    
C150  H111  S    
C65   N25   A    
C53   C85   A    
C15   C103  S    
C113  H25   S    
C162  H139  S    
C40   O19   S    
C163  H143  S    
C141  H91   S    
C131  H67   S    
N4    Ni1   S    
C52   H12   S    
C68   O4    S    
C158  H130  S    
C155  C156  S    
C63   N23   A    
C56   C88   A    
C7    N7    A    
C172  H162  S    
O1    C113  S    
C158  C159  S    
C180  H182  S    
O18   C164  S    
N8    Ni3   S    
C149  H109  S    
C33   C42   S    
C175  H169  S    
C142  H93   S    
N7    Ni4   S    
C182  H187  S    
N16   Ni4   S    
C121  H44   S    
C111  H24   S    
C6    C78   A    
C4    N4    A    
C161  H137  S    
N5    Ni3   S    
N15   Ni3   S    
C127  H57   S    
C12   C19   T    
C11   C99   S    
C128  H60   S    
C114  H28   S    
C90   C102  A    
C36   O23   S    
C149  H110  S    
C27   C44   T    
C143  C144  S    
C108  H19   S    
C3    C75   A    
C126  H55   S    
C52   N12   A    
C71   N31   A    
C138  H83   S    
C53   N13   A    
C72   N32   A    
C184  H190  S    
C70   O6    S    
C176  H173  S    
C165  H147  S    
C124  H50   S    
C96   C111  A    
C145  H100  S    
C100  C108  A    
N18   Ni6   S    
C153  H118  S    
C162  C163  S    
C104  C112  A    
C166  H150  S    
C123  C124  S    
C30   C85   S    
C115  H30   S    
C184  H192  S    
C69   O5    S    
C126  H56   S    
C60   C81   A    
C157  H128  S    
C180  H181  S    
C150  C151  S    
C49   H9    S    
C58   F2    S    
C174  C175  S    
C123  H49   S    
C135  H77   S    
C131  C132  S    
C15   C24   T    
C55   H15   S    
C16   C23   T    
C156  H126  S    
C171  H161  S    
C56   N16   A    
C93   C97   A    
C172  H164  S    
C1    N1    A    
C179  H179  S    
C157  H129  S    
C114  H27   S    
C36   C39   D    
C107  H20   S    
C168  H154  S    
C135  C136  S    
C105  H18   S    
C72   O8    S    
C127  H59   S    
C128  C129  S    
C177  H175  S    
C133  H71   S    
C174  H167  S    
C58   C83   A    
C122  C123  S    
C57   F1    S    
C92   O12   S    
C96   C100  A    
O6    C128  S    
C124  H51   S    
C34   O21   S    
C129  H63   S    
C96   O16   S    
C55   C87   A    
C116  H32   S    
C144  C145  S    
C69   N29   A    
C70   N30   A    
C64   F8    S    
C67   N27   A    
C9    C18   T    
C120  C121  S    
C3    N3    A    
C151  H114  S    
C159  H132  S    
C138  C139  S    
C183  H188  S    
C13   C101  S    
C161  C162  S    
C106  H17   S    
C34   C37   D    
C50   H10   S    
C153  C154  S    
C156  H125  S    
C163  H142  S    
C181  H183  S    
C166  H148  S    
C178  H177  S    
N26   Ni5   S    
N29   Ni8   S    
C54   H14   S    
N20   Ni6   S    
N30   Ni7   S    
C18   C75   S    
C65   C76   A    
C155  H124  S    
C22   C79   S    
C95   C112  A    
C164  H145  S    
C170  C171  S    
C94   C98   A    
C101  C109  A    
C66   N26   A    
C103  C111  A    
C49   C81   A    
O24   C182  S    
C58   N18   A    
N9    N20   A    
N10   N19   A    
C119  H39   S    
C62   N22   A    
N2    N27   A    
C6    N6    A    
C59   F3    S    
C179  C180  S    
C50   N10   A    
C143  H96   S    
C132  C133  S    
C160  H135  S    
C136  H78   S    
C34   C41   S    
C130  H65   S    
C118  H38   S    
O3    C119  S    
C54   N14   A    
C122  H46   S    
O14   C152  S    
C57   N17   A    
C146  H102  S    
C116  C117  S    
C182  H186  S    
C141  C142  S    
C140  H88   S    
C61   N21   A    
C62   F6    S    
C181  H184  S    
O15   C155  S    
C95   O15   S    
C64   N24   A    
C57   C84   A    
C49   N9    A    
O8    C134  S    
C63   C86   A    
C25   C82   S    
C102  C110  A    
C113  H26   S    
O11   C143  S    
C50   C82   A    
C131  H68   S    
C147  H104  S    
C27   C84   S    
C9    C97   S    
C31   C88   S    
C109  H22   S    
C91   C108  A    
C4    H4    S    
C19   C74   S    
C153  H119  S    
C25   C42   T    
C154  H122  S    
C170  H158  S    
C158  H131  S    
C169  H155  S    
C60   F4    S    
C99   C107  A    
C62   C87   A    
C28   C43   T    
C61   F5    S    
C33   O22   S    
C29   C46   T    
C159  H133  S    
C1    C73   A    
C146  C147  S    
C113  C114  S    
C116  H33   S    
C3    H3    S    
C115  H29   S    
C148  H106  S    
C161  H138  S    
C119  C120  S    
C66   C75   A    
C21   C80   S    
C91   O11   S    
C127  H58   S    
C13   C22   T    
C23   C78   S    
C125  H53   S    
C12   C100  S    
C148  H107  S    
C136  H80   S    
C173  H165  S    
C36   C43   S    
C37   C46   S    
C39   C48   S    
C147  C148  S    
C40   C47   S    
C118  H36   S    
N2    Ni2   S    
C152  H116  S    
C144  H97   S    
C167  H151  S    
C169  H157  S    
C60   N20   A    
C176  H172  S    
C157  H127  S    
C145  H101  S    
C134  C135  S    
C125  C126  S    
C139  H86   S    
C140  C141  S    
C162  H140  S    
C166  H149  S    
C10   C17   T    
N3    Ni2   S    
C184  H191  S    
C10   C98   S    
N11   N18   A    
N6    N31   A    
C120  H41   S    
C117  H34   S    
C150  H112  S    
C173  C174  S    
N12   Ni2   S    
C174  H168  S    
C137  H82   S    
C2    C74   A    
C53   H13   S    
N19   Ni5   S    
N23   Ni7   S    
C59   C82   A    
N24   Ni8   S    
C171  C172  S    
O13   C149  S    
N13   N24   A    
C179  H180  S    
C180  C181  S    
N14   Ni3   S    
C65   O1    S    
C90   O10   S    
C142  H94   S    
C182  C183  S    
C178  H176  S    
C59   N19   A    
C121  H43   S    
C148  H108  S    
N4    N25   A    
C32   C87   S    
C5    H5    S    
C128  H61   S    
C114  C115  S    
C133  H72   S    
C72   C77   A    
C61   C88   A    
C122  H47   S    
C126  C127  S    
C92   C107  A    
C5    N5    A    
C51   N11   A    
O9    C137  S    
C152  H117  S    
C8    N8    A    
C37   O18   S    
C35   C44   S    
C144  H98   S    
C29   C86   S    
N21   Ni7   S    
N22   Ni8   S    
C120  H42   S    
C94   O14   S    
C138  H84   S    
C152  C153  S    
N10   Ni1   S    
C133  H73   S    
C112  H23   S    
C183  H189  S    
C132  H69   S    
C167  C168  S    
C176  C177  S    
C67   O3    S    
C165  H146  S    
C8    H8    S    
N6    Ni4   S    
C145  H99   S    
N1    Ni1   S    
C110  H21   S    
C121  H45   S    
N1    N28   A    
C66   O2    S    
C130  H64   S    
C160  H136  S    
C159  C160  S    
O17   C161  S    
C141  H90   S    
C183  C184  S    
C134  H74   S    
C39   O20   S    
C146  H103  S    
C164  H144  S    
C170  H159  S    
O4    C122  S    
C117  C118  S    
C123  H48   S    
C4    C76   A    
C181  H185  S    
C135  H76   S    
N11   Ni1   S    
C119  H40   S    
C156  C157  S    
C8    C80   A    
C171  H160  S    
C69   C80   A    
N27   Ni6   S    
C6    H6    S    
C71   C78   A    
C168  H153  S    
C26   C41   T    
N31   Ni8   S    
