data_mof_unit_65018.cif
_audit_creation_date              2012-10-26T19:31:23-0400
_audit_creation_method            fapswitch 2.2
_symmetry_space_group_name_H-M    P1
_symmetry_Int_Tables_number       1
_space_group_crystal_system       triclinic
_cell_length_a                    14.622549
_cell_length_b                    15.871854
_cell_length_c                    17.300249
_cell_angle_alpha                 89.932579
_cell_angle_beta                  85.496611
_cell_angle_gamma                 89.945171
_cell_volume                      4002.76192449

loop_
_atom_site_label
_atom_site_type_symbol
_atom_type_description
_atom_site_fract_x
_atom_site_fract_y
_atom_site_fract_z
_atom_type_partial_charge
C1    C     C_R   0.499980 0.660601 0.500039 0.556352
C2    C     C_3   0.585834 0.027913 0.506097 -0.098475
C3    C     C_3   0.499957 0.917464 0.500062 0.046323
C4    C     C_3   0.500043 0.082536 0.499937 0.046323
C5    C     C_1   0.499926 0.825833 0.500111 -0.041031
C6    C     C_1   0.500074 0.174168 0.499888 -0.041022
C7    C     C_3   0.026466 0.439058 0.547277 -0.102821
C8    C     C_3   0.973534 0.560942 0.452723 -0.102823
C9    C     C_3   0.962494 0.513967 0.572168 -0.095861
C10   C     C_3   0.037506 0.486033 0.427833 -0.095860
C11   C     C_3   0.971589 0.425099 0.475118 -0.102969
C12   C     C_R   0.500020 0.339399 0.499961 0.556353
C13   C     C_3   0.028411 0.574901 0.524882 -0.102971
C14   C     C_3   0.908730 0.500008 0.500010 0.014036
C15   C     C_3   0.091270 0.499992 0.499990 0.014036
C16   C     C_R   0.487802 0.502765 0.650196 0.558948
C17   C     C_R   0.512198 0.497225 0.349804 0.558945
C18   C     C_1   0.805907 0.500010 0.500030 0.148119
C19   C     C_1   0.194093 0.499990 0.499970 0.148120
C20   C     C_R   0.479719 0.506571 0.734592 0.001551
C21   C     C_R   0.520285 0.493371 0.265412 0.001557
C22   C     C_R   0.539921 0.555932 0.775225 0.077084
C23   C     C_3   0.469244 0.028096 0.433489 -0.094133
C24   C     C_R   0.460106 0.443959 0.224801 0.077073
C25   C     C_R   0.531944 0.555077 0.855777 -0.098434
C26   C     C_R   0.468105 0.444746 0.144249 -0.098440
C27   C     C_R   0.465031 0.505450 0.896639 0.023389
C28   C     C_R   0.535016 0.494355 0.103364 0.023384
C29   C     C_R   0.402281 0.459325 0.856080 0.102191
C30   C     C_R   0.597744 0.540531 0.143904 0.102195
C31   C     C_R   0.410046 0.460179 0.775366 -0.120027
C32   C     C_R   0.589957 0.539745 0.224617 -0.120020
C33   C     C_2   0.461548 0.501704 0.981442 -0.110537
C34   C     C_3   0.530756 0.971904 0.566509 -0.094136
C35   C     C_2   0.538504 0.498054 0.018561 -0.110556
C36   C     C_3   0.555034 0.971936 0.439649 -0.098055
C37   C     C_3   0.444965 0.028064 0.560350 -0.098053
C38   C     C_1   0.499924 0.750297 0.500102 -0.005553
C39   C     C_1   0.500076 0.249703 0.499898 -0.005538
C40   C     C_3   0.414166 0.972087 0.493902 -0.098473
Cu1   Cu    Cu3+1 0.409780 0.500000 0.499990 1.031618
Cu2   Cu    Cu3+1 0.590220 0.500000 0.500010 1.031618
H1    H     H_    0.051685 0.636915 0.545486 0.123031
H2    H     H_    0.555998 0.947459 0.621103 0.131749
H3    H     H_    0.931656 0.525539 0.631907 0.137915
H4    H     H_    0.068344 0.474461 0.368092 0.137909
H5    H     H_    0.048137 0.388599 0.586415 0.124990
H6    H     H_    0.951862 0.611401 0.413585 0.124987
H7    H     H_    0.605160 0.499498 0.986171 0.164308
H8    H     H_    0.394893 0.500261 0.013832 0.164314
H9    H     H_    0.656293 0.052195 0.511099 0.121255
H10   H     H_    0.343707 0.947805 0.488900 0.121256
H11   H     H_    0.948315 0.363085 0.454514 0.123032
H12   H     H_    0.637015 0.577225 0.255599 0.151223
H13   H     H_    0.362972 0.422735 0.744369 0.151232
H14   H     H_    0.422180 0.405859 0.113474 0.158827
H15   H     H_    0.577885 0.593928 0.886567 0.158844
H16   H     H_    0.600212 0.947528 0.390110 0.124451
H17   H     H_    0.399788 0.052472 0.609889 0.124456
H18   H     H_    0.444002 0.052541 0.378896 0.131754
I1    I     I_    0.640476 0.637866 0.720636 -0.334859
I2    I     I_    0.359553 0.362051 0.279432 -0.334890
I3    I     I_    0.298362 0.382685 0.912497 -0.360806
I4    I     I_    0.701657 0.617152 0.087451 -0.360809
N1    N     N_1   0.725810 0.500000 0.500030 -0.183903
N2    N     N_1   0.274190 0.500000 0.499970 -0.183902
O1    O     O_R   0.423830 0.620920 0.499990 -0.496034
O2    O     O_R   0.576170 0.379080 0.500010 -0.496040
O3    O     O_R   0.576200 0.620920 0.500000 -0.480330
O4    O     O_R   0.423800 0.379080 0.500000 -0.480322
O5    O     O_R   0.414980 0.500010 0.613590 -0.507301
O6    O     O_R   0.585020 0.499990 0.386410 -0.507297
O7    O     O_R   0.567350 0.500010 0.613600 -0.466232
O8    O     O_R   0.432650 0.499990 0.386400 -0.466233

loop_
_geom_bond_atom_site_label_1
_geom_bond_atom_site_label_2
_ccdc_geom_bond_type
C29   I3    S    
C9    H3    S    
C8    C13   S    
C30   I4    S    
C27   C29   A    
C34   C37   S    
Cu1   Cu2   S    
C14   C18   S    
Cu1   O1    S    
C27   C33   S    
C18   N1    T    
C15   C19   S    
C12   O2    A    
C24   C26   A    
C37   C40   S    
C36   H16   S    
C10   C15   S    
C11   C14   S    
C23   C40   S    
C19   N2    T    
C9    C13   S    
C33   C35   D    
Cu1   O8    S    
C28   C35   S    
C22   C25   A    
C35   H7    S    
Cu2   N1    S    
C24   I2    S    
C11   H11   S    
Cu1   O5    S    
C2    C34   S    
C7    C15   S    
C5    C38   T    
Cu2   O2    S    
C16   O5    A    
C25   H15   S    
C32   H12   S    
C7    C11   S    
C23   H18   S    
C21   C32   A    
C16   O7    A    
C34   H2    S    
C4    C6    S    
C2    H9    S    
C4    C23   S    
C3    C34   S    
C33   H8    S    
C40   H10   S    
Cu2   O3    S    
C1    O3    A    
C7    H5    S    
C2    C4    S    
C9    C14   S    
C8    H6    S    
C10   H4    S    
C16   C20   S    
Cu2   O6    S    
C37   H17   S    
C1    C38   S    
C20   C22   A    
C3    C40   S    
C13   C15   S    
C17   O8    A    
C13   H1    S    
C2    C36   S    
C7    C9    S    
C12   O4    A    
Cu2   O7    S    
C8    C14   S    
C3    C5    S    
C26   H14   S    
Cu1   N2    S    
C25   C27   A    
C26   C28   A    
C12   C39   S    
C28   C30   A    
C29   C31   A    
C22   I1    S    
C30   C32   A    
C3    C36   S    
C1    O1    A    
C17   C21   S    
C10   C11   S    
C4    C37   S    
C17   O6    A    
C8    C10   S    
C23   C36   S    
C21   C24   A    
C6    C39   T    
C31   H13   S    
Cu1   O4    S    
C20   C31   A    
