data_mof_unit_5635.cif
_audit_creation_date              2012-12-11T19:54:06-0500
_audit_creation_method            fapswitch 2.2
_symmetry_space_group_name_H-M    P1
_symmetry_Int_Tables_number       1
_space_group_crystal_system       triclinic
_cell_length_a                    8.333103
_cell_length_b                    16.774548
_cell_length_c                    17.28857
_cell_angle_alpha                 111.411259
_cell_angle_beta                  81.828342
_cell_angle_gamma                 95.689591
_cell_volume                      2224.10466849

loop_
_atom_site_label
_atom_site_type_symbol
_atom_type_description
_atom_site_fract_x
_atom_site_fract_y
_atom_site_fract_z
_atom_type_partial_charge
Ba1   Ba    Ba6+2 0.325860 0.460280 0.530510 1.676784
Ba2   Ba    Ba6+2 0.863950 0.539650 0.469460 1.699240
C1    C     C_3   0.988069 0.187927 0.710448 -0.173555
C2    C     C_3   0.919538 0.523406 0.790404 -0.029637
C3    C     C_2   0.833157 0.513730 0.870200 -0.081049
C4    C     C_3   0.470245 0.176963 0.679832 0.274424
C5    C     C_2   0.668539 0.509894 0.884992 0.002622
C6    C     C_2   0.571600 0.528939 0.827230 -0.136898
C7    C     C_1   0.642745 0.542612 0.759149 0.074665
C8    C     C_R   0.419879 0.530998 0.139784 0.116966
C9    C     C_R   0.358992 0.543475 0.223501 -0.045513
C10   C     C_R   0.564822 0.456718 0.234133 0.152456
C11   C     C_R   0.613319 0.432904 0.146276 0.089524
C12   C     C_3   0.965099 0.268408 0.693322 0.480835
C13   C     C_R   0.551092 0.476317 0.100116 -0.014325
C14   C     C_2   0.577233 0.484156 0.954331 -0.089559
C15   C     C_2   0.642376 0.473476 0.016956 -0.033105
C16   C     C_3   0.362939 0.121018 0.720083 -0.383318
C17   C     C_R   0.437019 0.510758 0.270578 -0.285031
C18   C     C_2   0.392455 0.756679 0.501116 -0.291603
C19   C     C_R   0.793350 0.246080 0.476356 -0.303105
C20   C     C_2   0.214425 0.873607 0.583272 0.133168
C21   C     C_2   0.242223 0.789659 0.556875 0.060240
C22   C     C_2   0.516497 0.810149 0.487169 0.019374
C23   C     C_3   0.998773 0.703163 0.742261 0.319307
C24   C     C_3   0.500686 0.906885 0.529739 -0.067344
C25   C     C_3   0.323180 0.931684 0.547784 -0.032040
C26   C     C_2   0.616434 0.963750 0.493650 0.009969
C27   C     C_2   0.574331 0.036860 0.486846 -0.074603
C28   C     C_3   0.708605 0.268282 0.311576 0.293876
C29   C     C_R   0.847542 0.073744 0.427330 0.123840
C30   C     C_R   0.696829 0.101274 0.469585 -0.057691
C31   C     C_R   0.969703 0.128244 0.406082 0.109191
C32   C     C_R   0.944692 0.216992 0.431656 0.006671
C33   C     C_R   0.667317 0.189171 0.493943 -0.047625
C34   C     C_3   0.970585 0.744738 0.837032 -0.348932
C35   C     C_3   0.763971 0.179315 0.255068 -0.029039
C36   C     C_3   0.544658 0.738796 0.688381 0.240683
C37   C     C_3   0.601297 0.831503 0.736465 0.016430
C38   C     C_3   0.249665 0.232022 0.240000 0.492445
C39   C     C_3   0.185412 0.143679 0.184706 -0.410877
C40   C     C_3   0.530166 0.087202 0.280431 -0.270662
C41   C     C_2   0.505049 0.865778 0.822096 0.911091
C42   C     C_3   0.658762 0.970925 0.722214 -0.228342
C43   C     C_3   0.241615 0.316998 0.149379 -0.208923
C44   C     C_2   0.993481 0.111704 0.629889 0.756797
C45   C     C_3   0.706781 0.733676 0.277903 0.431568
C46   C     C_3   0.720445 0.341366 0.693721 -0.203588
C47   C     C_2   0.762044 0.643785 0.234638 0.841518
C48   C     C_2   0.720542 0.870548 0.237773 0.815009
C49   C     C_3   0.329277 0.877999 0.347933 -0.309709
C50   C     C_3   0.212460 0.540688 0.056984 -0.238928
C51   C     C_3   0.867561 0.357550 0.093462 -0.181912
C52   C     C_3   0.103145 0.950440 0.726898 -0.209010
C53   C     C_3   0.089455 0.005346 0.294569 -0.291484
C54   C     C_3   0.730965 0.776062 0.210528 -0.157984
C55   C     C_3   0.226599 0.739183 0.252366 0.512530
C56   C     C_3   0.217700 0.771575 0.180550 -0.343995
C57   C     C_2   0.800417 0.530783 0.733780 -0.294159
H1    H     H_    0.050413 0.265372 0.636879 0.095588
H2    H     H_    0.129759 0.146546 0.131377 0.113415
H3    H     H_    0.887601 0.178088 0.756452 0.061361
H4    H     H_    0.878471 0.689815 0.718170 0.005429
H5    H     H_    0.061894 0.642918 0.725745 0.027003
H6    H     H_    0.917751 0.808108 0.854838 0.148297
H7    H     H_    0.884868 0.703659 0.863355 0.073484
H8    H     H_    0.087211 0.753577 0.863965 0.137217
H9    H     H_    0.100639 0.196940 0.738753 0.082450
H10   H     H_    0.436673 0.079325 0.735281 0.068969
H11   H     H_    0.575916 0.730851 0.300521 -0.281468
H12   H     H_    0.831526 0.151614 0.288562 0.024406
H13   H     H_    0.853215 0.763157 0.174781 0.084736
H14   H     H_    0.639901 0.745771 0.165701 0.030860
H15   H     H_    0.348018 0.713423 0.243166 -0.005284
H16   H     H_    0.336020 0.802286 0.165209 0.084123
H17   H     H_    0.122176 0.818598 0.197657 0.103335
H18   H     H_    0.530155 0.223563 0.732314 0.061797
H19   H     H_    0.188877 0.718415 0.122937 0.127131
H20   H     H_    0.771910 0.468932 0.010470 0.078793
H21   H     H_    0.442760 0.537507 0.845189 0.102233
H22   H     H_    0.448327 0.474469 0.953254 0.095390
H23   H     H_    0.848261 0.185715 0.201566 0.105098
H24   H     H_    0.908606 0.503532 0.911448 0.067113
H25   H     H_    0.849392 0.525894 0.670674 0.070358
H26   H     H_    0.391596 0.523834 0.335625 0.069575
H27   H     H_    0.560743 0.136602 0.633616 0.031870
H28   H     H_    0.405925 0.687945 0.476845 0.054142
H29   H     H_    0.771618 0.313366 0.495101 0.076036
H30   H     H_    0.743477 0.949178 0.481994 0.144155
H31   H     H_    0.448663 0.053629 0.501474 0.102924
H32   H     H_    0.299113 0.160675 0.780820 0.099392
H33   H     H_    0.277317 0.080112 0.677195 0.159597
H34   H     H_    0.422656 0.736492 0.668908 0.006561
H35   H     H_    0.814414 0.307403 0.339517 0.015090
H36   H     H_    0.614185 0.264193 0.362322 0.016156
H37   H     H_    0.565985 0.138029 0.184391 0.218852
H38   H     H_    0.456206 0.031089 0.244520 0.132220
H39   H     H_    0.450975 0.136372 0.325810 0.119371
H40   H     H_    0.606683 0.065337 0.315321 0.144215
H41   H     H_    0.286620 0.895445 0.889290 0.305412
H42   H     H_    0.469241 0.884905 0.676274 0.180870
H43   H     H_    0.650298 0.003596 0.678186 0.174015
H44   H     H_    0.787546 0.968890 0.728989 0.138766
H45   H     H_    0.632357 0.711168 0.632167 0.061629
H46   H     H_    0.594936 0.007698 0.784228 0.094840
H47   H     H_    0.431267 0.243179 0.146606 0.190313
H48   H     H_    0.321941 0.343149 0.106607 0.076122
H49   H     H_    0.177137 0.370640 0.198536 0.147328
H50   H     H_    0.153077 0.270446 0.111918 0.086457
H51   H     H_    0.115531 0.048153 0.518138 0.297175
H52   H     H_    0.779912 0.216255 0.621303 0.145649
H53   H     H_    0.589089 0.332509 0.694555 0.116401
H54   H     H_    0.768910 0.371071 0.647123 0.074320
H55   H     H_    0.729914 0.380817 0.758457 0.119116
H56   H     H_    0.731738 0.831028 0.744115 0.066975
H57   H     H_    0.855618 0.553469 0.131064 0.301763
H58   H     H_    0.748059 0.970879 0.198060 0.319401
H59   H     H_    0.089046 0.830764 0.348760 0.243362
H60   H     H_    0.285654 0.933931 0.402397 0.114622
H61   H     H_    0.359628 0.900398 0.294576 0.119486
H62   H     H_    0.439277 0.855875 0.360736 0.166458
H63   H     H_    0.436881 0.612669 0.071146 0.204784
H64   H     H_    0.224945 0.546692 0.994498 0.087604
H65   H     H_    0.107051 0.576694 0.093031 0.167736
H66   H     H_    0.190120 0.472040 0.049818 0.098904
H67   H     H_    0.337928 0.222091 0.276934 0.059569
H68   H     H_    0.648059 0.320475 0.045049 0.190064
H69   H     H_    0.921606 0.411380 0.074380 0.082682
H70   H     H_    0.912078 0.296942 0.045241 0.077846
H71   H     H_    0.909521 0.362082 0.152477 0.158943
H72   H     H_    0.005945 0.939687 0.618459 0.247592
H73   H     H_    0.069731 0.018243 0.748804 0.066242
H74   H     H_    0.231318 0.949585 0.736905 0.138974
H75   H     H_    0.025067 0.918879 0.766019 0.158135
H76   H     H_    0.206720 0.096439 0.387991 0.235170
H77   H     H_    0.060118 0.959055 0.327336 0.136349
H78   H     H_    0.090406 0.117734 0.221081 0.121965
H79   H     H_    0.200305 0.986561 0.250377 0.108308
H80   H     H_    0.989692 0.002096 0.257412 0.147254
H81   H     H_    0.284946 0.098582 0.159529 0.090166
N1    N     N_2   0.629053 0.121167 0.222716 -0.424293
N2    N     N_2   0.585781 0.885395 0.689539 -0.460748
N3    N     N_2   0.337116 0.276462 0.187217 -0.428596
N4    N     N_2   0.799309 0.263498 0.676487 -0.477693
N5    N     N_2   0.204927 0.809289 0.332292 -0.432085
N6    N     N_2   0.354829 0.578464 0.099157 -0.446520
N7    N     N_2   0.692332 0.354650 0.101355 -0.432198
N8    N     N_2   0.075715 0.906920 0.640045 -0.411083
N9    N     N_2   0.112012 0.091631 0.354375 -0.452356
O1    O     O_2   0.351410 0.559500 0.703710 -0.464769
O2    O     O_2   0.842723 0.804133 0.499436 -0.462369
O3    O     O_3   0.800065 0.777932 0.344794 -0.601259
O4    O     O_3   0.622300 0.553110 0.604480 -0.506374
O5    O     O_3   0.040530 0.390860 0.438530 -0.462226
O6    O     O_2   0.927940 0.718960 0.581060 -0.460035
O7    O     O_3   0.096572 0.759191 0.710375 -0.609569
O8    O     O_2   0.039727 0.517049 0.226294 -0.463946
O9    O     O_3   0.099879 0.676338 0.249757 -0.565007
O10   O     O_3   0.077860 0.395310 0.623380 -0.491144
O11   O     O_2   0.230053 0.449691 0.759614 -0.470081
O12   O     O_3   0.119163 0.280799 0.290478 -0.632965
O13   O     O_3   0.535903 0.695819 0.744223 -0.648083
O14   O     O_3   0.996747 0.341568 0.763671 -0.604146
O15   O     O_2   0.261760 0.281010 0.418880 -0.473351
O16   O     O_3   0.488390 0.347430 0.574410 -0.465497
O17   O     O_2   0.340203 0.200698 0.495656 -0.456755
O18   O     O_2   0.574749 0.888390 0.884903 -0.617217
O19   O     O_R   0.337069 0.871313 0.829023 -0.763084
O20   O     O_2   0.874625 0.062733 0.614468 -0.681304
O21   O     O_R   0.129117 0.100508 0.570244 -0.734702
O22   O     O_2   0.769646 0.598742 0.274904 -0.564106
O23   O     O_3   0.376661 0.220193 0.646609 -0.556074
O24   O     O_R   0.812489 0.612323 0.149012 -0.807598
O25   O     O_2   0.706258 0.915873 0.311423 -0.654852
O26   O     O_R   0.736417 0.906295 0.175506 -0.749707
O27   O     O_2   0.838300 0.440470 0.296230 -0.434043
O28   O     O_3   0.567380 0.446810 0.395500 -0.496209
O29   O     O_3   0.111820 0.604620 0.376600 -0.445133
O30   O     O_3   0.644549 0.303213 0.261808 -0.644135
O31   O     O_3   0.149150 0.609060 0.561440 -0.495274
O32   O     O_3   0.701290 0.652490 0.425560 -0.436073
P1    P     P_3+3 0.533580 0.585010 0.696460 0.988424
P2    P     P_3+3 0.097450 0.292710 0.397510 0.992238
P3    P     P_3+3 0.473107 0.235959 0.554157 0.982208
P4    P     P_3+3 0.656110 0.414920 0.303520 1.047492
P5    P     P_3+3 0.714177 0.761864 0.438275 1.028491
P6    P     P_3+3 0.056783 0.430671 0.733296 0.980876
P7    P     P_3+3 0.107214 0.718783 0.601218 0.982635
P8    P     P_3+3 0.160719 0.589348 0.270351 1.021860

loop_
_geom_bond_atom_site_label_1
_geom_bond_atom_site_label_2
_ccdc_geom_bond_type
O2    P5    D    
C55   O9    S    
C42   H46   S    
Ba2   O6    S    
C55   N5    S    
C1    H9    S    
C39   H2    S    
C47   O24   S    
Ba1   P2    S    
C34   H8    S    
C56   H17   S    
H47   N3    S    
O1    P1    D    
C15   H20   S    
C4    O23   S    
C41   O19   S    
C9    C17   A    
C24   C25   S    
C53   H79   S    
C35   N1    S    
H57   O24   S    
C16   H32   S    
C2    P6    S    
C52   N8    S    
C26   C27   D    
C22   C24   S    
O13   P1    S    
C27   C30   S    
C8    C13   A    
C40   H39   S    
C21   P7    S    
C3    H24   S    
Ba1   O31   S    
C43   H50   S    
C49   N5    S    
O28   P4    S    
C53   H77   S    
C52   H75   S    
C18   H28   S    
C51   N7    S    
C53   H80   S    
C46   N4    S    
C22   P5    S    
Ba1   Ba2   S    
C23   H4    S    
O10   P6    S    
C12   O14   S    
C39   H81   S    
C36   H45   S    
C7    P1    S    
O31   P7    S    
Ba2   O27   S    
H37   N1    S    
Ba1   O28   S    
H72   N8    S    
Ba1   O10   S    
C18   C22   D    
Ba1   O15   S    
C6    C7    D    
C54   H13   S    
C49   H60   S    
C28   O30   S    
C37   N2    S    
C26   H30   S    
Ba2   O28   S    
C39   H78   S    
C43   H49   S    
C32   P2    S    
H58   O26   S    
C16   H10   S    
C19   H29   S    
Ba2   O5    S    
C23   O7    S    
Ba2   O31   S    
C27   H31   S    
C42   H44   S    
C56   H16   S    
C53   N9    S    
O7    P7    S    
C4    C16   S    
C12   N4    S    
C30   C33   A    
O27   P4    D    
O17   P3    D    
C57   H25   S    
O3    P5    S    
C40   H38   S    
C3    C5    D    
O29   P8    S    
C42   H43   S    
C34   H6    S    
C14   C15   D    
C4    H18   S    
C37   C41   S    
C19   C32   A    
C33   P3    S    
H76   N9    S    
C52   H74   S    
C48   C54   S    
C44   O21   S    
C28   C35   S    
C48   O26   S    
C7    C57   D    
C23   H5    S    
C55   H15   S    
O12   P2    S    
C45   H11   S    
C28   H36   S    
C51   H69   S    
C43   N3    S    
C2    C57   S    
H42   N2    S    
O23   P3    S    
C29   C30   A    
C18   C21   S    
Ba1   O16   S    
O32   P5    S    
C38   H67   S    
O5    P2    S    
C40   N1    S    
C29   C31   A    
C49   H61   S    
Ba1   O1    S    
O4    P1    S    
C45   O3    S    
Ba1   O4    S    
C1    C12   S    
H52   N4    S    
C8    N6    S    
C19   C33   A    
H51   O21   S    
C38   C39   S    
C46   H53   S    
C20   N8    S    
Ba2   O4    S    
C37   H56   S    
C20   C25   S    
C11   C13   A    
C49   H62   S    
C35   H23   S    
O9    P8    S    
C51   H70   S    
C11   N7    S    
C52   H73   S    
C46   H55   S    
C1    H3    S    
C13   C15   S    
C5    C14   S    
C50   N6    S    
C54   H14   S    
C36   H34   S    
C48   O25   D    
O16   P3    S    
H59   N5    S    
C2    C3    S    
C17   H26   S    
C50   H66   S    
O30   P4    S    
C41   O18   D    
C45   C47   S    
C12   H1    S    
C1    C44   S    
C24   C26   S    
C4    H27   S    
C44   O20   D    
H41   O19   S    
O6    P7    D    
O14   P6    S    
C16   H33   S    
C35   H12   S    
Ba2   P4    S    
C38   O12   S    
C28   H35   S    
O15   P2    D    
C31   N9    S    
C40   H40   S    
C50   H65   S    
C55   C56   S    
C36   C37   S    
C10   P4    S    
C10   C17   A    
C14   H22   S    
C50   H64   S    
C31   C32   A    
C34   H7    S    
H63   N6    S    
Ba1   O5    S    
O8    P8    D    
Ba1   P1    S    
C5    C6    S    
C8    C9    A    
C56   H19   S    
C23   C34   S    
C47   O22   D    
C36   O13   S    
C10   C11   A    
C42   N2    S    
C38   N3    S    
C6    H21   S    
C20   C21   D    
C46   H54   S    
C51   H71   S    
Ba2   O29   S    
O11   P6    D    
C9    P8    S    
Ba2   O32   S    
C43   H48   S    
H68   N7    S    
C45   C54   S    
