data_mof_unit_39472.cif
_audit_creation_date              2013-03-05T15:40:42-0500
_audit_creation_method            fapswitch 2.2
_symmetry_space_group_name_H-M    P1
_symmetry_Int_Tables_number       1
_space_group_crystal_system       triclinic
_cell_length_a                    19.052099
_cell_length_b                    10.939187
_cell_length_c                    18.846035
_cell_angle_alpha                 90.128488
_cell_angle_beta                  90.283964
_cell_angle_gamma                 90.136249
_cell_volume                      3927.71714093

loop_
_atom_site_label
_atom_site_type_symbol
_atom_site_description
_atom_site_fract_x
_atom_site_fract_y
_atom_site_fract_z
_atom_type_partial_charge
O1    O     O_R   0.043230 0.549300 0.667990 -0.519335
O2    O     O_R   0.956770 0.549300 0.332010 -0.513765
O3    O     O_R   0.543230 0.049300 0.667990 -0.518159
O4    O     O_R   0.456770 0.049300 0.332010 -0.515428
O5    O     O_R   0.178620 0.457600 0.674100 -0.496240
O6    O     O_R   0.821380 0.457600 0.325900 -0.489151
O7    O     O_R   0.678620 0.957600 0.674100 -0.497665
O8    O     O_R   0.321380 0.957600 0.325900 -0.494915
C1    C     C_R   0.239087 0.467936 0.646180 0.548848
C2    C     C_R   0.761445 0.469366 0.354482 0.564073
C3    C     C_R   0.739086 0.967936 0.646179 0.546660
C4    C     C_R   0.261444 0.969361 0.354482 0.553685
O9    O     O_R   0.284680 0.542100 0.669460 -0.526894
O10   O     O_R   0.715320 0.542100 0.330540 -0.518867
O11   O     O_R   0.784680 0.042100 0.669460 -0.528235
O12   O     O_R   0.215320 0.042100 0.330540 -0.521600
O13   O     O_R   0.262860 0.790390 0.676650 -0.499766
O14   O     O_R   0.737140 0.790390 0.323350 -0.498501
O15   O     O_R   0.762860 0.290390 0.676650 -0.502983
O16   O     O_R   0.237140 0.290390 0.323350 -0.499128
C5    C     C_R   0.227309 0.875491 0.648092 0.555056
C6    C     C_R   0.773110 0.874467 0.352474 0.564702
C7    C     C_R   0.727309 0.375490 0.648092 0.550906
C8    C     C_R   0.273109 0.374468 0.352474 0.560557
O17   O     O_R   0.167460 0.907030 0.670940 -0.508343
O18   O     O_R   0.832540 0.907030 0.329060 -0.504450
O19   O     O_R   0.667460 0.407030 0.670940 -0.510030
O20   O     O_R   0.332540 0.407030 0.329060 -0.508973
O21   O     O_R   0.053950 0.750220 0.675100 -0.493348
O22   O     O_R   0.946050 0.750220 0.324900 -0.503288
O23   O     O_R   0.553950 0.250220 0.675100 -0.493457
O24   O     O_R   0.446050 0.250220 0.324900 -0.506035
C9    C     C_R   0.026659 0.654070 0.646397 0.538460
C10   C     C_R   0.972914 0.656330 0.353959 0.536512
C11   C     C_R   0.526653 0.154070 0.646403 0.541504
C12   C     C_R   0.472909 0.156330 0.353964 0.535732
O25   O     O_R   0.043300 0.547370 0.827390 -0.494124
O26   O     O_R   0.956700 0.547370 0.172610 -0.504015
O27   O     O_R   0.543300 0.047370 0.827390 -0.482531
O28   O     O_R   0.456700 0.047370 0.172610 -0.496265
O29   O     O_R   0.178690 0.455820 0.821860 -0.504163
O30   O     O_R   0.821310 0.455820 0.178140 -0.462311
O31   O     O_R   0.678690 0.955820 0.821860 -0.506898
O32   O     O_R   0.321310 0.955820 0.178140 -0.481418
C13   C     C_R   0.239819 0.462374 0.849025 0.565501
C14   C     C_R   0.777515 0.526830 0.144011 0.573600
C15   C     C_R   0.739764 0.962572 0.849124 0.568294
C16   C     C_R   0.261939 0.969756 0.147663 0.552612
O33   O     O_R   0.284750 0.540170 0.828860 -0.499066
O34   O     O_R   0.715250 0.540170 0.171140 -0.499151
O35   O     O_R   0.784750 0.040170 0.828860 -0.493060
O36   O     O_R   0.215250 0.040170 0.171140 -0.518594
O37   O     O_R   0.262920 0.788600 0.824420 -0.447417
O38   O     O_R   0.737080 0.788600 0.175580 -0.508892
O39   O     O_R   0.762920 0.288600 0.824420 -0.446987
O40   O     O_R   0.237080 0.288600 0.175580 -0.490324
C17   C     C_R   0.228495 0.876569 0.851408 0.552225
C18   C     C_R   0.773562 0.872072 0.146485 0.569541
C19   C     C_R   0.728395 0.375371 0.852272 0.552613
C20   C     C_R   0.273349 0.372793 0.146738 0.575969
O41   O     O_R   0.167530 0.905110 0.830340 -0.551572
O42   O     O_R   0.832470 0.905110 0.169660 -0.517255
O43   O     O_R   0.667530 0.405110 0.830340 -0.546841
O44   O     O_R   0.332470 0.405110 0.169660 -0.525394
O45   O     O_R   0.054010 0.748440 0.822860 -0.501265
O46   O     O_R   0.945990 0.748440 0.177140 -0.509238
O47   O     O_R   0.554010 0.248440 0.822860 -0.496441
O48   O     O_R   0.445990 0.248440 0.177140 -0.504940
C21   C     C_R   0.063236 0.647387 0.857841 0.572643
C22   C     C_R   0.969670 0.650779 0.148487 0.532628
C23   C     C_R   0.562764 0.147415 0.857964 0.577592
C24   C     C_R   0.469432 0.150793 0.148445 0.555482
Cr1   Cr    Cr6+3 0.113970 0.508630 0.747920 1.046035
Cr2   Cr    Cr6+3 0.886030 0.508630 0.252080 1.056242
Cr3   Cr    Cr6+3 0.613970 0.008630 0.747920 1.050127
Cr4   Cr    Cr6+3 0.386030 0.008630 0.252080 1.055778
Cr5   Cr    Cr6+3 0.269200 0.666740 0.749850 1.061206
Cr6   Cr    Cr6+3 0.730800 0.666740 0.250150 1.034406
Cr7   Cr    Cr6+3 0.769200 0.166740 0.749850 1.058406
Cr8   Cr    Cr6+3 0.230800 0.166740 0.250150 1.040714
Cr9   Cr    Cr6+3 0.112300 0.820070 0.749800 1.029869
Cr10  Cr    Cr6+3 0.887700 0.820070 0.250200 1.025976
Cr11  Cr    Cr6+3 0.612300 0.320070 0.749800 1.034269
Cr12  Cr    Cr6+3 0.387700 0.320070 0.250200 1.032939
O49   O     O_3   0.165160 0.665150 0.749190 -0.278663
O50   O     O_3   0.834840 0.665150 0.250810 -0.295325
O51   O     O_3   0.665160 0.165150 0.749190 -0.279122
O52   O     O_3   0.334840 0.165150 0.250810 -0.263041
C25   C     C_2   0.249873 0.922567 0.579744 -0.108815
C26   C     C_2   0.751658 0.917102 0.422199 -0.108326
C27   C     C_2   0.749874 0.422573 0.579745 -0.110040
C28   C     C_2   0.251658 0.417101 0.422199 -0.108698
C29   C     C_2   0.250141 0.915142 0.423876 -0.114137
C30   C     C_2   0.752589 0.910348 0.578172 -0.118540
C31   C     C_2   0.750145 0.415155 0.423880 -0.113521
C32   C     C_2   0.252592 0.410346 0.578174 -0.117592
C33   C     C_2   0.305196 0.885184 0.465052 -0.161632
C34   C     C_2   0.699416 0.871111 0.537536 -0.160666
C35   C     C_2   0.805202 0.385203 0.465056 -0.162087
C36   C     C_2   0.199421 0.371100 0.537539 -0.160627
C37   C     C_2   0.296476 0.860212 0.540658 -0.165131
C38   C     C_2   0.709628 0.846592 0.462135 -0.162495
C39   C     C_2   0.796482 0.360226 0.540661 -0.164891
C40   C     C_2   0.209634 0.346581 0.462137 -0.161918
H1    H     H_    0.358021 0.881006 0.443736 0.169914
H2    H     H_    0.647143 0.859964 0.559130 0.173227
H3    H     H_    0.858026 0.381030 0.443739 0.169786
H4    H     H_    0.147148 0.359943 0.559133 0.173232
H5    H     H_    0.327533 0.786838 0.563471 0.150949
H6    H     H_    0.682815 0.767583 0.439821 0.154526
H7    H     H_    0.827541 0.286855 0.563473 0.151152
H8    H     H_    0.182828 0.267564 0.439825 0.154820
H9    H     H_    0.197230 0.915977 0.445193 0.110114
H10   H     H_    0.805307 0.916840 0.556749 0.118729
H11   H     H_    0.697234 0.415986 0.445197 0.110055
H12   H     H_    0.305309 0.416845 0.556750 0.118777
H13   H     H_    0.220837 0.998552 0.557020 0.112806
H14   H     H_    0.777636 0.997050 0.444551 0.113746
H15   H     H_    0.720837 0.498556 0.557023 0.112553
H16   H     H_    0.277631 0.497054 0.444551 0.113055
C41   C     C_R   0.005096 0.668506 0.425702 -0.042377
C42   C     C_R   0.993667 0.657814 0.574886 -0.038048
C43   C     C_R   0.505075 0.168502 0.425715 -0.040745
C44   C     C_R   0.493646 0.157814 0.574900 -0.037247
C45   C     C_R   0.992357 0.894732 0.433817 -0.072365
C46   C     C_R   0.964014 0.875100 0.578310 -0.085602
C47   C     C_R   0.492329 0.394731 0.433832 -0.072099
C48   C     C_R   0.463993 0.375096 0.578326 -0.085328
C49   C     C_R   0.971278 0.997151 0.472369 -0.126644
C50   C     C_R   0.955279 0.986472 0.544036 -0.132570
C51   C     C_R   0.471251 0.497149 0.472386 -0.127019
C52   C     C_R   0.455255 0.486469 0.544054 -0.132705
C53   C     C_R   0.985224 0.770563 0.540271 0.008102
C54   C     C_R   0.994580 0.777867 0.465750 0.009227
C55   C     C_R   0.485200 0.270561 0.540285 0.007732
C56   C     C_R   0.494555 0.277864 0.465763 0.009470
H17   H     H_    0.966535 0.084668 0.446240 0.110689
H18   H     H_    0.936132 0.064336 0.573509 0.109074
H19   H     H_    0.466506 0.584666 0.446257 0.109975
H20   H     H_    0.436108 0.564331 0.573528 0.109420
H21   H     H_    0.007480 0.908646 0.379231 0.136160
H22   H     H_    0.950835 0.869807 0.634043 0.127263
H23   H     H_    0.507452 0.408650 0.379247 0.136613
H24   H     H_    0.450818 0.369801 0.634061 0.129091
C57   C     C_R   0.996927 0.549557 0.533483 0.022697
C58   C     C_R   0.016899 0.557889 0.462220 0.014443
C59   C     C_R   0.496896 0.049556 0.533498 0.022204
C60   C     C_R   0.516869 0.057882 0.462236 0.014640
C61   C     C_R   0.983703 0.432191 0.561927 -0.079959
C62   C     C_R   0.041623 0.451662 0.427508 -0.069335
C63   C     C_R   0.483670 0.932195 0.561948 -0.079816
C64   C     C_R   0.541595 0.951650 0.427530 -0.069201
C65   C     C_R   0.002715 0.327273 0.524837 -0.149841
C66   C     C_R   0.033879 0.337097 0.458579 -0.135100
C67   C     C_R   0.502685 0.827273 0.524864 -0.150228
C68   C     C_R   0.533853 0.837089 0.458607 -0.135645
H25   H     H_    0.064832 0.456867 0.375232 0.138161
H26   H     H_    0.959212 0.421110 0.613246 0.138373
H27   H     H_    0.564810 0.956848 0.375256 0.138608
H28   H     H_    0.459182 0.921122 0.613268 0.140881
H29   H     H_    0.995572 0.238852 0.548759 0.108449
H30   H     H_    0.050956 0.255977 0.430691 0.107521
H31   H     H_    0.495544 0.738854 0.548790 0.108679
H32   H     H_    0.550933 0.755966 0.430723 0.107425
C69   C     C_2   0.255348 0.937919 0.914451 0.219131
C70   C     C_2   0.758800 0.908067 0.074396 0.240922
C71   C     C_2   0.754999 0.424780 0.919230 0.216018
C72   C     C_2   0.258732 0.410014 0.074747 0.224345
C73   C     C_2   0.253749 0.934486 0.074169 -0.048142
C74   C     C_2   0.754524 0.892235 0.912556 -0.078430
C75   C     C_2   0.782271 0.525135 0.066983 -0.075096
C76   C     C_2   0.254904 0.390199 0.911735 -0.057278
C77   C     C_2   0.222285 0.015615 0.031078 -0.118787
C78   C     C_2   0.808488 0.923615 0.953774 -0.104265
C79   C     C_2   0.726752 0.551190 0.025996 -0.148195
C80   C     C_2   0.308009 0.421528 0.954020 -0.099810
C81   C     C_2   0.207805 0.988181 0.957793 -0.152485
C82   C     C_2   0.810567 0.885575 0.027174 -0.151978
C83   C     C_2   0.721832 0.519878 0.950207 -0.169753
C84   C     C_2   0.308723 0.380370 0.026886 -0.144360
H33   H     H_    0.199907 0.100176 0.051142 0.162235
H34   H     H_    0.849433 0.985367 0.935841 0.190237
H35   H     H_    0.679482 0.588638 0.049521 0.168855
H36   H     H_    0.347824 0.487040 0.938058 0.178435
H37   H     H_    0.152975 0.996974 0.942529 0.141226
H38   H     H_    0.859136 0.842288 0.044305 0.105145
H39   H     H_    0.680068 0.565985 0.921406 0.137034
H40   H     H_    0.354745 0.328502 0.043142 0.127888
H41   H     H_    0.276348 0.849940 0.054469 0.163585
H42   H     H_    0.716225 0.826561 0.931320 0.130922
H43   H     H_    0.832326 0.501023 0.044307 0.148691
H44   H     H_    0.217534 0.321771 0.929024 0.137854
C85   C     C_2   0.045702 0.651902 0.932183 -0.108100
C86   C     C_2   0.008704 0.651598 0.082532 -0.094080
C87   C     C_2   0.543857 0.151859 0.931857 -0.078208
C88   C     C_2   0.507618 0.151358 0.082188 -0.084844
C89   C     C_2   0.010987 0.550145 0.040449 -0.020717
C90   C     C_2   0.047221 0.550735 0.972726 0.007743
C91   C     C_2   0.506765 0.051205 0.039148 0.011012
C92   C     C_2   0.543819 0.050426 0.972143 0.019262
H45   H     H_    0.035187 0.735761 0.068041 0.104497
H46   H     H_    0.025063 0.737747 0.952066 0.083186
H47   H     H_    0.536567 0.233490 0.068507 0.105482
H48   H     H_    0.523356 0.237934 0.951643 0.092666
N1    N     N_R   0.329593 0.943733 0.929343 0.066689
O53   O     O_R   0.356095 0.042121 0.957832 -0.380587
O54   O     O_R   0.371951 0.861309 0.904273 -0.310657
N2    N     N_R   0.696404 0.976882 0.059008 0.057326
O55   O     O_R   0.698324 0.067211 0.014284 -0.317452
O56   O     O_R   0.643312 0.968639 0.101871 -0.362954
N3    N     N_R   0.808146 0.354795 0.954789 0.062370
O57   O     O_R   0.870123 0.346134 0.926585 -0.336789
O58   O     O_R   0.790194 0.277975 0.004108 -0.267412
N4    N     N_R   0.201009 0.491343 0.060882 0.051981
O59   O     O_R   0.206501 0.577579 0.013749 -0.373835
O60   O     O_R   0.150169 0.497305 0.106571 -0.359068
C93   C     C_1   0.975435 0.435128 0.057164 0.283510
N5    N     N_1   0.947857 0.343562 0.070306 -0.191804
C94   C     C_1   0.071066 0.432375 0.946496 0.324495
N6    N     N_1   0.087467 0.336764 0.926244 -0.290150
C95   C     C_1   0.466556 0.940058 0.053810 0.347052
N7    N     N_1   0.435074 0.851627 0.065129 -0.232330
C96   C     C_1   0.567682 0.931564 0.946679 0.331153
N8    N     N_1   0.584532 0.835855 0.926947 -0.293229

loop_
_geom_bond_atom_site_label_1
_geom_bond_atom_site_label_2
_geom_bond_distance
_ccdc_geom_bond_type
C45   C54   1.414828 A    
C18   O42   1.254386 A    
C71   C83   1.351440 D    
O4    C12   1.277264 A    
O47   Cr11  1.938812 S    
C62   H25   1.083424 S    
O39   C19   1.270161 A    
O20   Cr12  2.057188 S    
C69   C81   1.340776 D    
C35   C39   1.461627 S    
C96   N8    1.156959 T    
C73   H41   1.086521 S    
C78   H34   1.086373 S    
O29   Cr1   1.945738 S    
O26   C22   1.244775 A    
C57   C58   1.400806 A    
C30   H10   1.086583 S    
O1    C9    1.257523 A    
C55   C56   1.418978 A    
C5    C25   1.454863 S    
N1    O53   1.301430 A    
C76   H44   1.083624 S    
C27   H15   1.087084 S    
O7    C3    1.273756 A    
C80   C84   1.446141 S    
C20   C72   1.443374 S    
O24   C12   1.272409 A    
C11   C44   1.484918 S    
C87   C92   1.345886 D    
O25   C21   1.289849 A    
O38   C18   1.273012 A    
N4    O60   1.300852 A    
C86   C89   1.363521 D    
C83   H39   1.086730 S    
C30   C34   1.336320 D    
C81   H37   1.086677 S    
C37   H5    1.086494 S    
C85   C90   1.346525 D    
O21   C9    1.288919 A    
O8    Cr4   1.944586 S    
O23   Cr11  1.943510 S    
C14   C75   1.455031 S    
C39   H7    1.086494 S    
O30   C14   1.308936 A    
C42   C57   1.418390 A    
C72   N4    1.439467 S    
O32   Cr4   1.942138 S    
C61   C65   1.392104 A    
O44   Cr12  2.066804 S    
C57   C61   1.414958 A    
C1    O9    1.263530 A    
C84   H40   1.088610 S    
C59   C60   1.400803 A    
C58   C62   1.415068 A    
C3    O11   1.263535 A    
C36   C40   1.459577 S    
C26   C38   1.344718 D    
C64   C68   1.392334 A    
C46   C53   1.409362 A    
C45   H21   1.080691 S    
N2    O55   1.300780 A    
C91   C95   1.463120 S    
C7    O19   1.269127 A    
O8    C4    1.271671 A    
C15   O35   1.265787 A    
O3    Cr3   2.066209 S    
C61   H26   1.082825 S    
C78   C82   1.445812 S    
O47   C23   1.299954 A    
O2    Cr2   2.063370 S    
O48   C24   1.278667 A    
C33   H1    1.086510 S    
O2    C10   1.277261 A    
O42   Cr10  2.066804 S    
C64   H27   1.083420 S    
Cr5   O49   1.982192 S    
C91   C92   1.449767 S    
O18   Cr10  2.057188 S    
O17   Cr9   2.057957 S    
C89   C90   1.454081 S    
C70   N2    1.437280 S    
C88   C91   1.361735 D    
C89   C93   1.463177 S    
C8    C28   1.454208 S    
Cr7   O51   1.982192 S    
C14   O34   1.302476 A    
O6    Cr2   1.944586 S    
O9    Cr5   2.058738 S    
N1    O54   1.301078 A    
O31   Cr3   1.945738 S    
O24   Cr12  1.948063 S    
C44   C59   1.418369 A    
O11   Cr7   2.058738 S    
C36   H4    1.084437 S    
O30   Cr2   1.942138 S    
O22   C10   1.272401 A    
O48   Cr12  1.938447 S    
C4    O12   1.268835 A    
C12   C43   1.487415 S    
C47   C56   1.414834 A    
C43   C60   1.411396 A    
C2    O10   1.268828 A    
C48   C55   1.409358 A    
C31   H11   1.087069 S    
C94   N6    1.156795 T    
C40   H8    1.085789 S    
O16   Cr8   1.933005 S    
N4    O59   1.301573 A    
O7    Cr3   1.944480 S    
C87   H48   1.086195 S    
C67   H31   1.076710 S    
C93   N5    1.157852 T    
C34   C38   1.459580 S    
C86   H45   1.084952 S    
C75   C79   1.338315 D    
C46   H22   1.082806 S    
O13   C5    1.271487 A    
C85   H46   1.085602 S    
O40   C20   1.274416 A    
C65   H29   1.076710 S    
O12   Cr8   2.062309 S    
Cr12  O52   1.969381 S    
O22   Cr10  1.948063 S    
C59   C63   1.414955 A    
C42   C53   1.405772 A    
O5    C1    1.273760 A    
C95   N7    1.157792 T    
C72   C84   1.354456 D    
O46   Cr10  1.938447 S    
O39   Cr7   1.939167 S    
O13   Cr5   1.937728 S    
C29   C33   1.343319 D    
C23   C87   1.440895 S    
N3    O57   1.300884 A    
O3    C11   1.257520 A    
O40   Cr8   1.943101 S    
C22   C86   1.451668 S    
C33   C37   1.461630 S    
C21   C85   1.442693 S    
C13   O33   1.265961 A    
C6    C26   1.454207 S    
C75   H43   1.079997 S    
C47   H23   1.080683 S    
O29   C13   1.271669 A    
Cr2   O50   1.972629 S    
C88   H47   1.085349 S    
O15   Cr7   1.937728 S    
C48   H24   1.082807 S    
C1    C32   1.451251 S    
Cr1   O49   1.968507 S    
C70   C82   1.354295 D    
C3    C30   1.451253 S    
Cr3   O51   1.968507 S    
O14   Cr6   1.933005 S    
N3    O58   1.300909 A    
C25   H13   1.087083 S    
O21   Cr9   1.943510 S    
C10   C41   1.487399 S    
O27   Cr3   2.062851 S    
C6    O18   1.267825 A    
C53   C54   1.418976 A    
C41   C54   1.428127 A    
C7    C27   1.454861 S    
C4    C29   1.454027 S    
C38   H6    1.085789 S    
C51   C52   1.391186 A    
C50   H18   1.080956 S    
C13   C76   1.450735 S    
C26   H14   1.086969 S    
O34   Cr6   2.050959 S    
C15   C74   1.449813 S    
C19   C71   1.459703 S    
O15   C7    1.271488 A    
C8    O20   1.267830 A    
C79   H35   1.086422 S    
C49   C50   1.391187 A    
O26   Cr2   2.062917 S    
C80   H36   1.086344 S    
C5    O17   1.269131 A    
C48   C52   1.390197 A    
O27   C23   1.288553 A    
O28   C24   1.244323 A    
C44   C55   1.405752 A    
C25   C37   1.342885 D    
O14   C6    1.267998 A    
C92   C96   1.459396 S    
C19   O43   1.272409 A    
C66   H30   1.081905 S    
C60   C64   1.415071 A    
C27   C39   1.342881 D    
O37   C17   1.272404 A    
Cr11  O51   1.973453 S    
C24   C88   1.448299 S    
C79   C83   1.470556 S    
C17   O41   1.265684 A    
C74   C78   1.329488 D    
C52   H20   1.080954 S    
C35   H3    1.086512 S    
C74   H42   1.083881 S    
O25   Cr1   2.062851 S    
C63   C67   1.392101 A    
C34   H2    1.084439 S    
C43   C56   1.428150 A    
C20   O44   1.254161 A    
C77   C81   1.437943 S    
O1    Cr1   2.066209 S    
C63   H28   1.082831 S    
C47   C51   1.394921 A    
O19   Cr11  2.057957 S    
C28   H16   1.086969 S    
C71   N3    1.435183 S    
Cr8   O52   1.982274 S    
O32   C16   1.275686 A    
Cr10  O50   1.969381 S    
C73   C77   1.344391 D    
Cr6   O50   1.982274 S    
C9    C42   1.484930 S    
O31   C15   1.271582 A    
C2    C31   1.454035 S    
O45   C21   1.300214 A    
C32   C36   1.336312 D    
O23   C11   1.288919 A    
C41   C58   1.411374 A    
O33   Cr5   2.056414 S    
C29   H9    1.087069 S    
C31   C35   1.343320 D    
O10   Cr6   2.062309 S    
O5    Cr1   1.944480 S    
Cr4   O52   1.972629 S    
C18   C70   1.441895 S    
O35   Cr7   2.056414 S    
O4    Cr4   2.063370 S    
C51   H19   1.081338 S    
O6    C2    1.271658 A    
C28   C40   1.344720 D    
C77   H33   1.087365 S    
C16   C73   1.444582 S    
C82   H38   1.088365 S    
C45   C49   1.394916 A    
C16   O36   1.259357 A    
C49   H17   1.081336 S    
O46   C22   1.280070 A    
C68   H32   1.081907 S    
N2    O56   1.300699 A    
C62   C66   1.392329 A    
O28   Cr4   2.062917 S    
O43   Cr11  2.061481 S    
C67   C68   1.389595 A    
C46   C50   1.390202 A    
O45   Cr9   1.938812 S    
C32   H12   1.086581 S    
C17   C69   1.453448 S    
O41   Cr9   2.061481 S    
O38   Cr6   1.943101 S    
O37   Cr5   1.939167 S    
O36   Cr8   2.050959 S    
C69   N1    1.441960 S    
O16   C8    1.268004 A    
Cr9   O49   1.973453 S    
C76   C80   1.328637 D    
C65   C66   1.389594 A    
C90   C94   1.459215 S    
