data_mof_unit_14582.cif
_audit_creation_date              2013-03-05T15:46:11-0500
_audit_creation_method            fapswitch 2.2
_symmetry_space_group_name_H-M    P1
_symmetry_Int_Tables_number       1
_space_group_crystal_system       triclinic
_cell_length_a                    10.171158
_cell_length_b                    10.563124
_cell_length_c                    12.772721
_cell_angle_alpha                 92.735953
_cell_angle_beta                  91.620268
_cell_angle_gamma                 94.11553
_cell_volume                      1366.49982811

loop_
_atom_site_label
_atom_site_type_symbol
_atom_site_description
_atom_site_fract_x
_atom_site_fract_y
_atom_site_fract_z
_atom_type_partial_charge
O1    O     O_R   0.567930 0.307680 0.508550 -0.657451
O2    O     O_R   0.432070 0.692320 0.491450 -0.615666
O3    O     O_R   0.351090 0.340020 0.481290 -0.520748
O4    O     O_R   0.648910 0.659980 0.518710 -0.548786
C1    C     C_R   0.448292 0.265747 0.486354 0.877838
C2    C     C_R   0.554338 0.733459 0.501272 0.924573
O5    O     O_R   0.590490 0.486480 0.665020 -0.600639
O6    O     O_R   0.409510 0.513520 0.334980 -0.605163
O7    O     O_R   0.373660 0.518820 0.637760 -0.545562
O8    O     O_R   0.626340 0.481180 0.362240 -0.587131
C3    C     C_R   0.476280 0.511774 0.698000 0.904487
C4    C     C_R   0.523223 0.488850 0.301344 0.804560
Zn1   Zn    Zn3+2 0.644780 0.478400 0.518200 1.047572
Zn2   Zn    Zn3+2 0.355220 0.521600 0.481800 1.086729
C5    C     C_R   0.527485 0.462636 0.189954 -0.194664
C6    C     C_R   0.462990 0.527569 0.808615 -0.198258
C7    C     C_R   0.497858 0.667684 0.964301 -0.134301
C8    C     C_R   0.421291 0.338389 0.041560 -0.089621
C9    C     C_R   0.475310 0.651044 0.855293 0.293592
C10   C     C_R   0.456136 0.351168 0.148376 0.292913
C11   C     C_R   0.457361 0.419785 0.867531 -0.142159
C12   C     C_R   0.560710 0.564074 0.126931 -0.167270
C13   C     C_R   0.462923 0.437103 0.976988 0.021747
C14   C     C_R   0.509897 0.557819 0.022864 0.030875
C15   C     C_2   0.429109 0.129994 0.460384 -0.248214
C16   C     C_2   0.583530 0.866923 0.484987 -0.293114
C17   C     C_2   0.527433 0.064937 0.419133 -0.010048
C18   C     C_2   0.511509 0.927235 0.415217 -0.057112
H1    H     H_    0.658392 0.919186 0.535755 0.213850
H2    H     H_    0.336708 0.080358 0.480750 0.209388
N1    N     N_2   0.162330 0.550370 0.457540 -0.215367
N2    N     N_2   0.837670 0.449630 0.542460 -0.227582
C19   C     C_2   0.071274 0.484686 0.504792 0.279249
C20   C     C_2   0.927726 0.503073 0.485858 0.246458
H3    H     H_    0.867137 0.395451 0.602522 0.211623
H4    H     H_    0.133991 0.617523 0.407342 0.206664
C21   C     C_2   0.655920 0.669613 0.169069 0.489412
H5    H     H_    0.663987 0.694712 0.252454 0.084070
O9    O     O_2   0.730932 0.725913 0.111154 -0.465278
C22   C     C_2   0.462498 0.291462 0.813421 0.452457
H6    H     H_    0.414717 0.270858 0.736821 0.069967
O10   O     O_2   0.524755 0.209800 0.852223 -0.461070
N3    N     N_R   0.413866 0.253116 0.215879 0.181715
O11   O     O_R   0.465729 0.144453 0.206055 -0.331211
O12   O     O_R   0.301436 0.258855 0.261275 -0.322984
N4    N     N_R   0.472902 0.758274 0.790540 0.220267
O13   O     O_R   0.366345 0.777488 0.736662 -0.339416
O14   O     O_R   0.581869 0.825618 0.774064 -0.314731
C23   C     C_2   0.486429 0.794575 0.018900 0.624344
H7    H     H_    0.461654 0.800302 0.100906 0.035902
O15   O     O_2   0.502711 0.893613 0.973926 -0.405591
C24   C     C_2   0.318870 0.237720 0.001103 0.612881
H8    H     H_    0.252599 0.257444 0.936755 0.042423
O16   O     O_2   0.307971 0.132527 0.036777 -0.407279
C25   C     C_2   0.420849 0.861226 0.332946 0.525051
H9    H     H_    0.428420 0.761924 0.310540 0.013031
O17   O     O_2   0.337915 0.918490 0.287710 -0.455925
C26   C     C_2   0.651593 0.124189 0.376545 0.577082
H10   H     H_    0.659148 0.222394 0.355136 0.096877
O18   O     O_2   0.745895 0.061288 0.360739 -0.499474
N5    N     N_R   0.889610 0.579794 0.402424 0.209524
O19   O     O_R   0.884495 0.701478 0.420704 -0.348112
O20   O     O_R   0.896246 0.535560 0.306070 -0.358424
N6    N     N_R   0.108109 0.391870 0.576007 0.210455
O21   O     O_R   0.122413 0.424004 0.675463 -0.380105
O22   O     O_R   0.090489 0.272023 0.546886 -0.349117

loop_
_geom_bond_atom_site_label_1
_geom_bond_atom_site_label_2
_geom_bond_distance
_ccdc_geom_bond_type
O7    Zn2   1.997368 S    
N1    C19   1.297207 D    
C6    C11   1.393087 A    
C15   C17   1.357899 D    
N3    O12   1.300638 A    
C3    C6    1.426112 S    
Zn1   N2    2.024271 S    
C16   C18   1.349408 D    
C18   C25   1.491194 S    
C4    C5    1.438872 S    
Zn2   N1    2.024270 S    
O6    C4    1.284858 A    
N6    O21   1.300540 A    
C25   H9    1.082724 S    
C22   O10   1.221533 D    
C19   C20   1.501062 S    
C9    N4    1.435233 S    
C8    C24   1.497040 S    
C21   O9    1.221373 D    
C2    C16   1.445803 S    
O5    C3    1.288311 A    
O7    C3    1.287712 A    
N6    O22   1.300700 A    
O2    C2    1.288227 A    
O3    Zn2   1.915191 S    
O8    C4    1.297561 A    
N3    O11   1.299387 A    
C6    C9    1.403703 A    
C1    C15   1.454364 S    
C12   C14   1.409314 A    
C22   H6    1.085539 S    
C7    C9    1.405300 A    
C21   H5    1.084594 S    
C24   O16   1.219884 D    
C8    C10   1.397661 A    
C25   O17   1.220791 D    
C11   C13   1.400315 A    
N5    O19   1.300394 A    
O2    Zn2   1.910290 S    
O1    C1    1.283918 A    
C7    C14   1.421058 A    
O1    Zn1   1.910288 S    
C13   C14   1.422320 A    
C26   O18   1.221407 D    
C8    C13   1.409004 A    
N2    H3    1.029281 S    
C19   N6    1.430945 S    
O5    Zn1   1.969509 S    
C10   N3    1.429428 S    
C24   H8    1.085557 S    
C16   H1    1.087476 S    
O4    C2    1.299567 A    
C23   H7    1.084137 S    
C20   N5    1.430704 S    
C7    C23   1.494703 S    
C17   C18   1.450266 S    
N5    O20   1.300705 A    
N1    H4    1.029393 S    
C15   H2    1.087170 S    
C17   C26   1.496771 S    
O6    Zn2   1.969509 S    
C23   O15   1.220552 D    
C26   H10   1.083337 S    
N4    O13   1.300816 A    
C12   C21   1.492845 S    
N4    O14   1.301160 A    
C5    C12   1.398597 A    
O4    Zn1   1.915191 S    
N2    C20   1.297133 D    
C5    C10   1.410999 A    
O3    C1    1.307557 A    
O8    Zn1   1.997369 S    
C11   C22   1.496832 S    
