data_mof_unit_29854.cif
_audit_creation_date              2012-12-11T14:08:30-0500
_audit_creation_method            fapswitch 2.2
_symmetry_space_group_name_H-M    P1
_symmetry_Int_Tables_number       1
_space_group_crystal_system       triclinic
_cell_length_a                    10.952396
_cell_length_b                    10.993281
_cell_length_c                    18.665467
_cell_angle_alpha                 90.162283
_cell_angle_beta                  89.883482
_cell_angle_gamma                 60.254705
_cell_volume                      1951.23576841

loop_
_atom_site_label
_atom_site_type_symbol
_atom_type_description
_atom_site_fract_x
_atom_site_fract_y
_atom_site_fract_z
_atom_type_partial_charge
C1    C     C_R   0.241393 0.643438 0.610061 0.545679
C2    C     C_2   0.773924 0.173819 0.710164 -0.154158
C3    C     C_2   0.196538 0.656839 0.684685 -0.100855
C4    C     C_R   0.652796 0.621263 0.601705 0.539595
C5    C     C_2   0.207280 0.656578 0.843240 -0.102122
C6    C     C_2   0.211029 0.552878 0.803438 -0.154965
C7    C     C_2   0.239355 0.542356 0.725930 -0.168153
C8    C     C_2   0.667588 0.684354 0.331382 -0.105631
C9    C     C_2   0.674896 0.684241 0.174231 -0.105128
C10   C     C_2   0.788110 0.635838 0.217496 -0.148852
C11   C     C_2   0.783547 0.609375 0.293056 -0.163841
C12   C     C_3   0.673250 0.548906 0.801449 -0.274838
C13   C     C_2   0.674043 0.138001 0.333831 -0.106146
C14   C     C_2   0.652942 0.145033 0.179332 -0.100119
C15   C     C_2   0.609111 0.075765 0.222054 -0.152534
C16   C     C_R   0.627478 0.229485 0.602693 0.539993
C17   C     C_2   0.592146 0.100741 0.298463 -0.161749
C18   C     C_2   0.120498 0.681670 0.345618 -0.105748
C19   C     C_2   0.111704 0.691989 0.191165 -0.104892
C20   C     C_2   0.040380 0.804444 0.234403 -0.148184
C21   C     C_2   0.072886 0.800449 0.309756 -0.162615
C22   C     C_R   0.701023 0.106491 0.898980 0.574419
C23   C     C_3   0.697152 0.674326 0.812786 0.067246
C24   C     C_R   0.722404 0.687830 0.888800 0.566895
C25   C     C_R   0.122812 0.704352 0.908970 0.577522
C26   C     C_R   0.675920 0.104760 0.105169 0.543558
C27   C     C_R   0.699457 0.692871 0.098728 0.546923
C28   C     C_R   0.215303 0.651495 0.404775 0.560761
C29   C     C_R   0.085674 0.713820 0.115514 0.543320
C30   C     C_R   0.644916 0.627130 0.396280 0.558662
C31   C     C_R   0.621107 0.222955 0.397543 0.560357
C32   C     C_3   0.565455 0.808241 0.783488 -0.221618
C33   C     C_3   0.557058 0.796833 0.701892 -0.239806
C34   C     C_3   0.667161 0.646463 0.677053 0.046670
C35   C     C_3   0.830370 0.649070 0.769326 -0.032930
C36   C     C_3   0.816535 0.620814 0.690442 -0.220359
C37   C     C_3   0.644308 0.539822 0.721725 -0.228366
C38   C     C_2   0.671592 0.166497 0.673746 -0.101034
C39   C     C_2   0.681001 0.180752 0.831218 -0.108433
C40   C     C_2   0.790751 0.152504 0.788389 -0.147494
Cr1   Cr    Cr6+3 0.393010 0.398050 0.501480 1.018331
Cr2   Cr    Cr6+3 0.398820 0.707980 0.501630 1.016184
Cr3   Cr    Cr6+3 0.708140 0.393940 0.496850 1.015048
Cr4   Cr    Cr6+3 0.937950 0.938450 0.008940 1.028949
Cr5   Cr    Cr6+3 0.626180 0.937030 0.994750 1.023850
Cr6   Cr    Cr6+3 0.937790 0.625760 0.001410 1.022262
H1    H     H_    0.568229 0.905637 0.796329 0.173382
H2    H     H_    0.291247 0.438250 0.702187 0.151097
H3    H     H_    0.245124 0.723174 0.821033 0.102017
H4    H     H_    0.468417 0.819104 0.808892 0.110046
H5    H     H_    0.144045 0.761056 0.708160 0.137839
H6    H     H_    0.892493 0.600906 0.195732 0.163600
H7    H     H_    0.874309 0.518335 0.315441 0.151390
H8    H     H_    0.569050 0.720711 0.194049 0.091909
H9    H     H_    0.580438 0.780147 0.310244 0.103254
H10   H     H_    0.577684 0.003721 0.200116 0.156939
H11   H     H_    0.500942 0.103904 0.323496 0.154388
H12   H     H_    0.716375 0.432372 0.702635 0.141976
H13   H     H_    0.685250 0.217236 0.199797 0.094190
H14   H     H_    0.770025 0.125937 0.309848 0.100012
H15   H     H_    0.968021 0.906967 0.212525 0.159679
H16   H     H_    0.448284 0.821771 0.688036 0.143588
H17   H     H_    0.076730 0.889845 0.332144 0.151999
H18   H     H_    0.185383 0.588150 0.210791 0.091724
H19   H     H_    0.107771 0.596279 0.324519 0.104025
H20   H     H_    0.577671 0.875083 0.674911 0.134598
H21   H     H_    0.838960 0.687788 0.654364 0.147466
H22   H     H_    0.767768 0.449982 0.818345 0.131580
H23   H     H_    0.926578 0.557127 0.790694 0.143621
H24   H     H_    0.582583 0.561525 0.834205 0.114043
H25   H     H_    0.534849 0.559884 0.714847 0.127391
H26   H     H_    0.895959 0.510125 0.677704 0.124373
H27   H     H_    0.897117 0.100137 0.809403 0.165956
H28   H     H_    0.847003 0.197238 0.682413 0.141829
H29   H     H_    0.574727 0.236370 0.810119 0.101876
H30   H     H_    0.605240 0.132809 0.700443 0.118370
H31   H     H_    0.179502 0.481685 0.826040 0.148304
I1    I     I_    0.865209 0.823241 0.775745 -0.463192
O1    O     O_R   0.507110 0.256280 0.580300 -0.524281
O2    O     O_R   0.837080 0.593860 0.915300 -0.523815
O3    O     O_R   0.064770 0.636080 0.932550 -0.487185
O4    O     O_R   0.280830 0.527190 0.577940 -0.500942
O5    O     O_R   0.068250 0.829200 0.092940 -0.514464
O6    O     O_R   0.799650 0.057040 0.080330 -0.507059
O7    O     O_R   0.586130 0.079760 0.077080 -0.515010
O8    O     O_R   0.627700 0.809630 0.066580 -0.502649
O9    O     O_R   0.816140 0.597180 0.075920 -0.514901
O10   O     O_R   0.045360 0.639170 0.081440 -0.509275
O11   O     O_3   0.833980 0.833750 0.001700 -0.244576
O12   O     O_R   0.524640 0.695370 0.425100 -0.497915
O13   O     O_R   0.261360 0.738990 0.584270 -0.521405
O14   O     O_R   0.532590 0.694780 0.574370 -0.511590
O15   O     O_R   0.744470 0.503750 0.577000 -0.532287
O16   O     O_R   0.698520 0.277230 0.571620 -0.502131
O17   O     O_R   0.498530 0.256920 0.419280 -0.512810
O18   O     O_R   0.272880 0.527780 0.428680 -0.499242
O19   O     O_R   0.252780 0.739630 0.423250 -0.510557
O20   O     O_R   0.735890 0.504390 0.415980 -0.511880
O21   O     O_R   0.690560 0.277820 0.422350 -0.498106
O22   O     O_3   0.499990 0.499990 0.499980 -0.250482
O23   O     O_R   0.089190 0.825870 0.932320 -0.507969
O24   O     O_R   0.819070 0.053960 0.931440 -0.483313
O25   O     O_R   0.607070 0.076440 0.916460 -0.513620
O26   O     O_R   0.647110 0.806550 0.917690 -0.497458

loop_
_geom_bond_atom_site_label_1
_geom_bond_atom_site_label_2
_ccdc_geom_bond_type
C28   O19   A    
C18   C21   D    
C35   C36   S    
Cr3   O20   S    
C30   O12   A    
Cr4   O5    S    
C10   H6    S    
C36   H21   S    
Cr6   O11   S    
C38   H30   S    
C18   H19   S    
C14   H13   S    
C12   H22   S    
C12   C23   S    
Cr3   O21   S    
C29   O5    A    
C3    C7    D    
C26   O7    A    
C5    C6    D    
Cr1   O18   S    
Cr1   O4    S    
C34   C37   S    
C12   C37   S    
Cr3   O16   S    
C40   H27   S    
Cr2   O13   S    
C20   H15   S    
C29   O10   A    
Cr5   O25   S    
C24   O2    A    
C19   C20   D    
C33   H16   S    
C1    C3    S    
C26   O6    A    
C23   C24   S    
C31   O21   A    
Cr5   O11   S    
C9    C10   D    
Cr2   O14   S    
C37   H12   S    
C11   H7    S    
C1    O13   A    
C25   O3    A    
C5    H3    S    
C8    H9    S    
C33   H20   S    
Cr6   O10   S    
C4    C34   S    
C18   C28   S    
Cr3   O22   S    
Cr2   O19   S    
C39   C40   D    
C13   H14   S    
C3    H5    S    
C6    H31   S    
C1    O4    A    
C22   O25   A    
C24   O26   A    
C27   O8    A    
Cr5   O7    S    
Cr5   O26   S    
Cr2   O22   S    
Cr6   O3    S    
C2    C38   D    
C19   H18   S    
C33   C34   S    
Cr1   O22   S    
C14   C26   S    
C27   O9    A    
C32   H4    S    
C5    C25   S    
C39   H29   S    
C37   H25   S    
C32   H1    S    
C19   C29   S    
C9    C27   S    
Cr6   O9    S    
C15   C17   S    
C12   H24   S    
Cr4   O24   S    
C16   O16   A    
C13   C31   S    
C23   C32   S    
Cr4   O6    S    
C2    H28   S    
Cr1   O1    S    
Cr4   O23   S    
C6    C7    S    
C30   O20   A    
C35   I1    S    
C23   C35   S    
C22   O24   A    
C13   C17   D    
C28   O18   A    
C16   O1    A    
C8    C30   S    
C7    H2    S    
Cr5   O8    S    
C32   C33   S    
Cr6   O2    S    
C25   O23   A    
Cr1   O17   S    
C8    C11   D    
C31   O17   A    
C22   C39   S    
Cr3   O15   S    
C34   C36   S    
C15   H10   S    
C21   H17   S    
C10   C11   S    
C4    O15   A    
C2    C40   S    
C20   C21   S    
C35   H23   S    
C17   H11   S    
C14   C15   D    
C9    H8    S    
Cr2   O12   S    
Cr4   O11   S    
C36   H26   S    
C16   C38   S    
C4    O14   A    
