data_mof_unit_21744.cif
_audit_creation_date              2013-03-05T16:47:31-0500
_audit_creation_method            fapswitch 2.2
_symmetry_space_group_name_H-M    P1
_symmetry_Int_Tables_number       1
_space_group_crystal_system       triclinic
_cell_length_a                    10.981081
_cell_length_b                    11.011107
_cell_length_c                    10.082747
_cell_angle_alpha                 100.691994
_cell_angle_beta                  100.527517
_cell_angle_gamma                 89.490751
_cell_volume                      1177.41799394

loop_
_atom_site_label
_atom_site_type_symbol
_atom_site_description
_atom_site_fract_x
_atom_site_fract_y
_atom_site_fract_z
_atom_type_partial_charge
O1    O     O_R   0.517830 0.337490 0.617920 -0.591692
O2    O     O_R   0.482170 0.662510 0.382080 -0.591692
O3    O     O_R   0.482150 0.301790 0.382070 -0.561252
O4    O     O_R   0.517850 0.698210 0.617930 -0.561252
C1    C     C_R   0.500296 0.262210 0.498648 0.806652
C2    C     C_R   0.499704 0.737790 0.501352 0.806652
O5    O     O_R   0.337480 0.517860 0.617920 -0.570653
O6    O     O_R   0.662520 0.482140 0.382080 -0.570653
O7    O     O_R   0.301810 0.482160 0.382070 -0.569896
O8    O     O_R   0.698190 0.517840 0.617930 -0.569896
C3    C     C_R   0.262173 0.500100 0.498462 0.796403
C4    C     C_R   0.737827 0.499900 0.501537 0.796403
Cu1   Cu    Cu3+1 0.521120 0.521140 0.639640 0.994848
Cu2   Cu    Cu3+1 0.478880 0.478860 0.360360 0.994848
H1    H     H_    0.181807 0.408181 0.889172 0.159511
H2    H     H_    0.818193 0.591819 0.110828 0.159511
C5    C     C_R   0.158106 0.535110 0.074362 0.086830
C6    C     C_R   0.841894 0.464890 0.925638 0.086830
C7    C     C_R   0.112945 0.547249 0.196183 -0.133469
C8    C     C_R   0.887055 0.452751 0.803817 -0.133469
H3    H     H_    0.117410 0.636008 0.265021 0.173573
H4    H     H_    0.882590 0.363992 0.734979 0.173573
C9    C     C_R   0.070387 0.444184 0.237128 0.051224
C10   C     C_R   0.929613 0.555815 0.762871 0.051224
C11   C     C_R   0.060627 0.328696 0.149355 -0.048855
C12   C     C_R   0.939373 0.671304 0.850645 -0.048855
H5    H     H_    0.024473 0.248673 0.179148 0.190770
H6    H     H_    0.975527 0.751326 0.820852 0.190770
C13   C     C_R   0.098640 0.317071 0.022515 -0.131631
C14   C     C_R   0.901360 0.682929 0.977485 -0.131631
H7    H     H_    0.089860 0.228799 0.953048 0.204011
H8    H     H_    0.910140 0.771201 0.046952 0.204012
C15   C     C_R   0.149178 0.419488 0.985668 -0.273912
C16   C     C_R   0.850822 0.580512 0.014332 -0.273912
C17   C     C_R   0.913351 0.462027 0.380247 -0.241018
C18   C     C_R   0.086649 0.537973 0.619753 -0.241018
H9    H     H_    0.847246 0.435189 0.286176 0.211519
H10   H     H_    0.152754 0.564811 0.713824 0.211519
C19   C     C_R   0.872642 0.499737 0.504266 -0.080013
C20   C     C_R   0.127357 0.500263 0.495734 -0.080013
C21   C     C_R   0.961511 0.537773 0.625891 0.026338
C22   C     C_R   0.038489 0.462227 0.374109 0.026338
H11   H     H_    0.523095 0.215812 0.930703 0.139313
H12   H     H_    0.476905 0.784188 0.069297 0.139313
C23   C     C_R   0.395452 0.144036 0.035623 -0.235538
C24   C     C_R   0.604548 0.855964 0.964377 -0.235538
H13   H     H_    0.315350 0.164488 0.964020 0.151032
H14   H     H_    0.684650 0.835512 0.035980 0.151032
C25   C     C_R   0.381093 0.095674 0.151240 0.385540
C26   C     C_R   0.618907 0.904326 0.848760 0.385540
C27   C     C_R   0.489044 0.073125 0.243050 -0.003251
C28   C     C_R   0.510956 0.926875 0.756950 -0.003250
C29   C     C_R   0.606531 0.093903 0.216338 -0.198015
C30   C     C_R   0.393469 0.906097 0.783662 -0.198015
H15   H     H_    0.689194 0.075467 0.286053 0.155709
H16   H     H_    0.310806 0.924533 0.713947 0.155709
C31   C     C_R   0.618734 0.142389 0.102787 -0.027606
C32   C     C_R   0.381266 0.857611 0.897213 -0.027607
H17   H     H_    0.711033 0.156725 0.086021 0.189298
H18   H     H_    0.288967 0.843275 0.913979 0.189298
C33   C     C_R   0.513602 0.171081 0.014435 -0.164900
C34   C     C_R   0.486398 0.828919 0.985565 -0.164900
C35   C     C_R   0.486330 0.913080 0.378884 -0.191034
C36   C     C_R   0.513670 0.086920 0.621116 -0.191033
H19   H     H_    0.478413 0.847010 0.284589 0.145054
H20   H     H_    0.521586 0.152989 0.715411 0.145054
C37   C     C_R   0.500144 0.872441 0.503312 -0.058272
C38   C     C_R   0.499856 0.127559 0.496688 -0.058272
C39   C     C_R   0.514384 0.961605 0.625557 0.079224
C40   C     C_R   0.485616 0.038395 0.374443 0.079224
H21   H     H_    0.421498 0.423129 0.861467 0.146594
H22   H     H_    0.578501 0.576871 0.138533 0.146594
N1    N     N_2   0.447120 0.447110 0.150550 -0.281700
N2    N     N_2   0.552880 0.552890 0.849450 -0.281700
C41   C     C_2   0.508849 0.508692 0.080274 0.012358
C42   C     C_2   0.491151 0.491308 0.919726 0.012358
H23   H     H_    0.619523 0.615103 0.907219 0.203408
H24   H     H_    0.380477 0.384897 0.092781 0.203408
C43   C     C_2   0.219071 0.643462 0.047060 0.787347
O9    O     O_2   0.267052 0.634752 0.946071 -0.662320
O10   O     O_R   0.224645 0.755367 0.140638 -0.745296
H25   H     H_    0.277235 0.821935 0.121009 0.339696
C44   C     C_2   0.780929 0.356538 0.952940 0.787347
O11   O     O_2   0.732947 0.365247 0.053929 -0.662320
O12   O     O_R   0.775355 0.244632 0.859362 -0.745295
H26   H     H_    0.722765 0.178065 0.878991 0.339696
N3    N     N_R   0.258556 0.071773 0.173863 0.089561
O13   O     O_R   0.235015 0.083634 0.297415 -0.367419
O14   O     O_R   0.168341 0.040536 0.069802 -0.388076
N4    N     N_R   0.741444 0.928227 0.826137 0.089561
O15   O     O_R   0.764985 0.916368 0.702585 -0.367418
O16   O     O_R   0.831659 0.959464 0.930199 -0.388076

loop_
_geom_bond_atom_site_label_1
_geom_bond_atom_site_label_2
_geom_bond_distance
_ccdc_geom_bond_type
C32   C34   1.395824 A    
N3    O13   1.300943 A    
C35   H19   1.074714 S    
C25   N3    1.439658 S    
C17   C19   1.394343 A    
O7    Cu2   1.995328 S    
O10   H25   1.006506 S    
C19   C21   1.418085 A    
O12   H26   1.006506 S    
O5    C3    1.313134 A    
C9    C22   1.464047 S    
N2    C42   1.335413 D    
C24   C34   1.396198 A    
O1    C1    1.311003 A    
C36   C38   1.390962 A    
C7    H3    1.084455 S    
C10   C12   1.400714 A    
C1    C38   1.479149 S    
H21   C42   1.084459 S    
C31   H17   1.075226 S    
C32   H18   1.075225 S    
C13   C15   1.399891 A    
C5    C43   1.466563 S    
C23   C33   1.396198 A    
O4    Cu1   2.001230 S    
C17   C22   1.386829 A    
C28   C39   1.452319 S    
H2    C16   1.082656 S    
C26   N4    1.439658 S    
C8    C10   1.389424 A    
C25   C27   1.415218 A    
N2    H23   1.024299 S    
C26   C28   1.415219 A    
N1    H24   1.024298 S    
C27   C40   1.452319 S    
C23   H13   1.081850 S    
Cu1   Cu2   2.720541 S    
C10   C21   1.464046 S    
N1    C41   1.335413 D    
C18   C21   1.386828 A    
O2    C2    1.311003 A    
C5    C15   1.406385 A    
H22   C41   1.084459 S    
C28   C30   1.394424 A    
C30   H16   1.084339 S    
C29   H15   1.084339 S    
C11   C13   1.399841 A    
C35   C37   1.390962 A    
C14   C16   1.399891 A    
Cu2   N1    2.043814 S    
C18   C20   1.394343 A    
O4    C2    1.309289 A    
C43   O10   1.400412 S    
C29   C31   1.377667 A    
H12   C34   1.074050 S    
C27   C29   1.394423 A    
C36   H20   1.074713 S    
C7    C9    1.389425 A    
C41   C42   1.570198 S    
C6    C16   1.406385 A    
N4    O16   1.301121 A    
C44   O11   1.217603 D    
C35   C40   1.388767 A    
C23   C25   1.402274 A    
O6    C4    1.313135 A    
C6    C44   1.466563 S    
C36   C39   1.388767 A    
O7    C3    1.305681 A    
O3    Cu2   2.001230 S    
O8    C4    1.305681 A    
C2    C37   1.479149 S    
C44   O12   1.400412 S    
C8    H4    1.084455 S    
C12   C14   1.399842 A    
N3    O14   1.301120 A    
O1    Cu1   1.993139 S    
H11   C33   1.074050 S    
C30   C32   1.377667 A    
O6    Cu2   1.988160 S    
C17   H9    1.078013 S    
O3    C1    1.309289 A    
O8    Cu1   1.995328 S    
C31   C33   1.395824 A    
C11   H5    1.082713 S    
C24   C26   1.402274 A    
C12   H6    1.082713 S    
C4    C19   1.475635 S    
C18   H10   1.078014 S    
C13   H7    1.081202 S    
C14   H8    1.081203 S    
N4    O15   1.300946 A    
C20   C22   1.418085 A    
C5    C7    1.390317 A    
C6    C8    1.390317 A    
C9    C11   1.400714 A    
C3    C20   1.475635 S    
O2    Cu2   1.993139 S    
C43   O9    1.217602 D    
C24   H14   1.081849 S    
O5    Cu1   1.988161 S    
Cu1   N2    2.043814 S    
C38   C40   1.410983 A    
C37   C39   1.410983 A    
H1    C15   1.082656 S    
