data_mof_unit_14612.cif
_audit_creation_date              2012-12-11T14:07:43-0500
_audit_creation_method            fapswitch 2.2
_symmetry_space_group_name_H-M    P1
_symmetry_Int_Tables_number       1
_space_group_crystal_system       triclinic
_cell_length_a                    19.74294
_cell_length_b                    17.044675
_cell_length_c                    15.3649
_cell_angle_alpha                 89.933289
_cell_angle_beta                  53.22175
_cell_angle_gamma                 90.001266
_cell_volume                      4141.33102966

loop_
_atom_site_label
_atom_site_type_symbol
_atom_type_description
_atom_site_fract_x
_atom_site_fract_y
_atom_site_fract_z
_atom_type_partial_charge
C1    C     C_R   0.339579 0.174679 0.049975 -0.093303
C2    C     C_R   0.710288 0.850599 0.983003 -0.127624
C3    C     C_R   0.210388 0.649390 0.982811 -0.129752
C4    C     C_R   0.141790 0.311078 0.082916 -0.146381
C5    C     C_R   0.610596 0.816439 0.695372 0.046330
C6    C     C_R   0.694521 0.135031 0.678987 0.119117
C7    C     C_R   0.192975 0.363712 0.678026 0.087124
C8    C     C_R   0.109135 0.684167 0.696224 0.048378
C9    C     C_3   0.250302 0.198418 0.480326 0.415086
C10   C     C_3   0.198565 0.872620 0.524224 0.420057
C11   C     C_3   0.696883 0.627396 0.524472 0.415485
C12   C     C_R   0.377511 0.802046 0.992926 -0.131154
C13   C     C_3   0.864780 0.285768 0.484129 0.392959
C14   C     C_3   0.197719 0.248422 0.582440 -0.418115
C15   C     C_3   0.139202 0.823041 0.627627 -0.530366
C16   C     C_3   0.640558 0.677515 0.627799 -0.427525
C17   C     C_3   0.818581 0.227836 0.580699 -0.494828
C18   C     C_3   0.384858 0.238644 0.455907 -0.625380
C19   C     C_3   0.305079 0.761673 0.432951 -0.658686
C20   C     C_3   0.806046 0.736724 0.433831 -0.622309
C21   C     C_3   0.864424 0.176695 0.372857 -0.628571
C22   C     C_3   0.685540 0.733025 0.418103 -0.334029
C23   C     C_R   0.877530 0.697934 0.992854 -0.136991
C24   C     C_3   0.748495 0.278952 0.459396 -0.342219
C25   C     C_3   0.332420 0.320254 0.371495 -0.356553
C26   C     C_3   0.183579 0.768746 0.419399 -0.342773
C27   C     C_3   0.339929 0.235121 0.400562 0.224946
C28   C     C_3   0.248391 0.817929 0.422615 0.245606
C29   C     C_3   0.748722 0.682102 0.422608 0.195954
C30   C     C_3   0.843787 0.265200 0.402938 0.252690
C31   C     C_3   0.657200 0.766262 0.598321 0.139111
C32   C     C_3   0.753221 0.179343 0.577811 0.187919
C33   C     C_3   0.250212 0.318891 0.576626 0.156309
C34   C     C_R   0.839541 0.325261 0.050165 -0.100577
C35   C     C_3   0.155990 0.734255 0.598944 0.191832
C36   C     C_3   0.752651 0.786524 0.536461 0.420406
C37   C     C_3   0.802227 0.125949 0.474574 0.388705
C38   C     C_3   0.332546 0.289980 0.559819 0.403759
C39   C     C_3   0.251410 0.714116 0.537927 0.421199
C40   C     C_R   0.349206 0.828987 0.218786 -0.154174
C41   C     C_R   0.397375 0.199021 0.208337 -0.088845
C42   C     C_R   0.896851 0.301262 0.210632 -0.144318
C43   C     C_R   0.849271 0.670966 0.218749 -0.114248
C44   C     C_3   0.631675 0.783081 0.521807 -0.481990
C45   C     C_R   0.670013 0.916611 0.048980 0.455110
C46   C     C_3   0.696507 0.236716 0.568356 -0.464971
C47   C     C_3   0.278253 0.369045 0.474989 -0.499794
C48   C     C_3   0.131107 0.717024 0.521881 -0.491161
C49   C     C_2   0.281023 0.689384 0.967648 -0.165791
C50   C     C_2   0.183674 0.253365 0.106920 -0.159878
C51   C     C_2   0.683619 0.246410 0.107106 -0.163785
C52   C     C_2   0.780913 0.810592 0.967817 -0.171706
C53   C     C_2   0.710386 0.315343 0.053855 -0.139439
C54   C     C_2   0.817068 0.749453 0.900778 -0.114667
C55   C     C_2   0.317201 0.750655 0.900641 -0.115357
C56   C     C_R   0.624951 0.109372 0.114275 0.533775
C57   C     C_2   0.210614 0.184665 0.053348 -0.120810
C58   C     C_R   0.368112 0.888001 0.893692 -0.126104
C59   C     C_R   0.329313 0.086256 0.952601 -0.120754
C60   C     C_R   0.829269 0.413765 0.952704 -0.136462
C61   C     C_R   0.868067 0.612087 0.893733 -0.123128
C62   C     C_R   0.404852 0.107432 0.305257 -0.155028
C63   C     C_R   0.357380 0.922040 0.314515 -0.115769
C64   C     C_R   0.857598 0.578014 0.314678 -0.157831
C65   C     C_R   0.907672 0.393037 0.303796 -0.091393
C66   C     C_R   0.287017 0.147255 0.025877 0.092854
C67   C     C_R   0.125057 0.390488 0.114154 0.527751
C68   C     C_R   0.351541 0.811536 0.928713 0.119081
C69   C     C_R   0.851500 0.688510 0.928728 0.119906
C70   C     C_R   0.786931 0.352698 0.026115 0.093055
C71   C     C_R   0.306853 0.862233 0.321459 0.103451
C72   C     C_R   0.385857 0.184756 0.304450 0.040135
C73   C     C_R   0.888823 0.315431 0.305202 0.024779
C74   C     C_R   0.807018 0.637767 0.321578 0.048792
C75   C     C_R   0.616425 0.202067 0.018397 0.423432
C76   C     C_R   0.657327 0.818355 0.961351 0.475925
C77   C     C_R   0.157423 0.681663 0.961146 0.474302
C78   C     C_R   0.170033 0.583346 0.048931 0.458930
C79   C     C_R   0.116443 0.297930 0.018351 0.447563
C80   C     C_R   0.601296 0.801496 0.790123 -0.015765
C81   C     C_R   0.652121 0.168853 0.781482 -0.194910
C82   C     C_R   0.151682 0.330566 0.780947 -0.141332
C83   C     C_R   0.100674 0.698725 0.790432 -0.010200
C84   C     C_R   0.643355 0.075993 0.685640 -0.102825
C85   C     C_R   0.593434 0.894512 0.695308 -0.145419
C86   C     C_R   0.092349 0.606030 0.695996 -0.178853
C87   C     C_R   0.142902 0.424427 0.685979 -0.139985
C88   C     C_R   0.641683 0.188828 0.083078 -0.142004
H1    H     H_    0.329708 0.223994 0.100137 0.094480
H2    H     H_    0.354575 0.795207 0.430632 0.198009
H3    H     H_    0.852845 0.701504 0.435377 0.196521
H4    H     H_    0.931251 0.165265 0.340182 0.196194
H5    H     H_    0.643952 0.695039 0.409701 0.207448
H6    H     H_    0.732807 0.342656 0.472669 0.201081
H7    H     H_    0.302003 0.321198 0.329590 0.191336
H8    H     H_    0.141117 0.808128 0.414351 0.214958
H9    H     H_    0.563363 0.770159 0.564359 0.198089
H10   H     H_    0.667443 0.280864 0.634942 0.214514
H11   H     H_    0.222592 0.389050 0.479599 0.191221
H12   H     H_    0.388211 0.747202 0.018275 0.081362
H13   H     H_    0.062455 0.728043 0.564491 0.198408
H14   H     H_    0.449357 0.263951 0.398597 0.186932
H15   H     H_    0.339133 0.720556 0.362670 0.179734
H16   H     H_    0.843273 0.776434 0.362075 0.184337
H17   H     H_    0.857800 0.159290 0.308731 0.178403
H18   H     H_    0.331525 0.777549 0.195963 0.099283
H19   H     H_    0.397261 0.255096 0.175621 0.100245
H20   H     H_    0.893560 0.245253 0.180681 0.113361
H21   H     H_    0.831523 0.722271 0.195716 0.093024
H22   H     H_    0.687403 0.338814 0.010904 0.205730
H23   H     H_    0.888285 0.752753 0.018084 0.082158
H24   H     H_    0.808397 0.737577 0.838676 0.192747
H25   H     H_    0.308571 0.762678 0.838506 0.192427
H26   H     H_    0.187932 0.161502 0.009940 0.205096
H27   H     H_    0.219706 0.140011 0.399307 0.325101
H28   H     H_    0.135769 0.970290 0.567112 0.313629
H29   H     H_    0.682140 0.529668 0.472256 0.312500
H30   H     H_    0.870200 0.378850 0.552757 0.311486
H31   H     H_    0.174382 0.210769 0.654478 0.111677
H32   H     H_    0.149855 0.840280 0.688124 0.129797
H33   H     H_    0.653897 0.660541 0.685874 0.117414
H34   H     H_    0.829677 0.275955 0.100487 0.088451
H35   H     H_    0.864923 0.188903 0.577848 0.137458
H36   H     H_    0.778311 0.722352 0.619599 0.317565
H37   H     H_    0.892066 0.082471 0.479407 0.329053
H38   H     H_    0.288758 0.199066 0.657372 0.311459
H39   H     H_    0.277817 0.781772 0.617359 0.318590
H40   H     H_    0.719340 0.773371 0.347199 0.147830
H41   H     H_    0.730954 0.256481 0.407252 0.146356
H42   H     H_    0.396278 0.347183 0.315853 0.168496
H43   H     H_    0.215738 0.729741 0.347278 0.146146
H44   H     H_    0.642108 0.845716 0.496806 0.161069
H45   H     H_    0.572457 0.664397 0.668767 0.206919
H46   H     H_    0.643764 0.205020 0.576151 0.159705
H47   H     H_    0.313895 0.421882 0.469199 0.168687
H48   H     H_    0.143553 0.654698 0.495509 0.159802
H49   H     H_    0.762152 0.849197 0.510798 0.128365
H50   H     H_    0.756121 0.100687 0.463095 0.093107
H51   H     H_    0.370970 0.342488 0.547334 0.115178
H52   H     H_    0.260773 0.650872 0.515132 0.101158
H53   H     H_    0.291217 0.677598 0.028234 0.120633
H54   H     H_    0.207640 0.274079 0.150341 0.121328
H55   H     H_    0.707837 0.225419 0.150152 0.113327
H56   H     H_    0.787818 0.261526 0.657275 0.189988
H57   H     H_    0.791133 0.822246 0.028379 0.121315
H58   H     H_    0.365371 0.913542 0.831376 0.097349
H59   H     H_    0.308097 0.051631 0.914160 0.107188
H60   H     H_    0.808043 0.448467 0.914273 0.108092
H61   H     H_    0.865260 0.586651 0.831484 0.097891
H62   H     H_    0.409022 0.078131 0.364306 0.113153
H63   H     H_    0.347420 0.957609 0.379179 0.089054
H64   H     H_    0.847883 0.542527 0.379418 0.100968
H65   H     H_    0.918113 0.423148 0.356413 0.168011
H66   H     H_    0.557600 0.263435 0.977444 0.312185
H67   H     H_    0.140199 0.270533 0.592643 0.206948
H68   H     H_    0.599567 0.727710 0.962866 0.300042
H69   H     H_    0.099780 0.772351 0.962547 0.300291
H70   H     H_    0.057241 0.236665 0.977942 0.307611
H71   H     H_    0.602163 0.744793 0.819991 0.100692
H72   H     H_    0.671134 0.218917 0.804855 0.130116
H73   H     H_    0.170257 0.279632 0.803559 0.163757
H74   H     H_    0.101653 0.755310 0.820313 0.100677
H75   H     H_    0.653843 0.040999 0.620222 0.098543
H76   H     H_    0.587101 0.924666 0.638708 0.088815
H77   H     H_    0.085433 0.576197 0.639774 0.095182
H78   H     H_    0.071800 0.836484 0.664776 0.205993
H79   H     H_    0.153789 0.462137 0.622530 0.099975
H80   H     H_    0.756117 0.947252 0.065007 0.302685
H81   H     H_    0.623118 0.121349 0.241061 0.299528
H82   H     H_    0.123427 0.378212 0.240788 0.302131
H83   H     H_    0.256101 0.552585 0.064984 0.303765
H84   H     H_    0.256041 0.138720 0.505669 0.008860
H85   H     H_    0.243856 0.903064 0.533517 0.006231
H86   H     H_    0.740246 0.593661 0.534391 0.027183
H87   H     H_    0.934493 0.280772 0.440606 0.036327
H88   H     H_    0.393196 0.178706 0.476677 0.184044
N1    N     N_R   0.408680 0.130160 0.995800 -0.050636
N2    N     N_R   0.403730 0.078230 0.935950 -0.044331
N3    N     N_R   0.903730 0.421770 0.935950 -0.042323
N4    N     N_R   0.903730 0.578230 0.935950 -0.040379
N5    N     N_R   0.426630 0.075970 0.212960 -0.036449
N6    N     N_R   0.426630 0.924030 0.212960 -0.039574
N7    N     N_R   0.926630 0.575970 0.212960 -0.031945
N8    N     N_R   0.926630 0.424030 0.212960 -0.050327
N9    N     N_R   0.591320 0.134600 0.004200 -0.139003
N10   N     N_R   0.591320 0.865400 0.004200 -0.147023
N11   N     N_R   0.091320 0.634600 0.004200 -0.147214
N12   N     N_R   0.408680 0.869840 0.995800 -0.041834
N13   N     N_R   0.091320 0.365400 0.004200 -0.140413
N14   N     N_R   0.578320 0.867660 0.846880 -0.053112
N15   N     N_R   0.578320 0.132340 0.846880 -0.049647
N16   N     N_R   0.078320 0.367660 0.846880 -0.059906
N17   N     N_R   0.078320 0.632340 0.846880 -0.053936
N18   N     N_R   0.573370 0.074390 0.787040 -0.046095
N19   N     N_R   0.573370 0.925610 0.787040 -0.036513
N20   N     N_R   0.073370 0.574390 0.787040 -0.034651
N21   N     N_R   0.073370 0.425610 0.787040 -0.039505
N22   N     N_R   0.596270 0.927870 0.064040 -0.094514
N23   N     N_R   0.908680 0.630160 0.995800 -0.043102
N24   N     N_R   0.596270 0.072130 0.064040 -0.095624
N25   N     N_R   0.096270 0.427870 0.064040 -0.096185
N26   N     N_R   0.096270 0.572130 0.064040 -0.094469
N27   N     N_R   0.908680 0.369840 0.995800 -0.048277
N28   N     N_R   0.421680 0.867580 0.153120 -0.049901
N29   N     N_R   0.421680 0.132420 0.153120 -0.053751
N30   N     N_R   0.921680 0.367580 0.153120 -0.049600
N31   N     N_R   0.921680 0.632420 0.153120 -0.048904
N32   N     N_R   0.403730 0.921770 0.935950 -0.041696
Ni1   Ni    Ni4+2 0.500000 0.131190 0.000000 0.202850
Ni2   Ni    Ni4+2 0.500000 0.868810 0.000000 0.189835
Ni3   Ni    Ni4+2 0.000000 0.631190 0.000000 0.188938
Ni4   Ni    Ni4+2 1.000000 0.368810 0.000000 0.198006
Ni5   Ni    Ni4+2 0.488650 1.000000 0.862740 0.209704
Ni6   Ni    Ni4+2 0.988650 0.500000 0.862740 0.205922
Ni7   Ni    Ni4+2 0.511350 1.000000 0.137260 0.274401
Ni8   Ni    Ni4+2 0.011350 0.500000 0.137260 0.270837
O1    O     O_3   0.208446 0.193133 0.431728 -0.754919
O2    O     O_3   0.658655 0.741915 0.932079 -0.768778
O3    O     O_3   0.158870 0.758115 0.931627 -0.767980
O4    O     O_3   0.089386 0.226690 0.007481 -0.781664
O5    O     O_3   0.696009 0.959416 0.099698 -0.709489
O6    O     O_3   0.610358 0.079959 0.207721 -0.705347
O7    O     O_3   0.110630 0.419688 0.207511 -0.709424
O8    O     O_3   0.195929 0.540532 0.099834 -0.707261
O9    O     O_3   0.152185 0.928652 0.512633 -0.751453
O10   O     O_3   0.646106 0.575160 0.515634 -0.743170
O11   O     O_3   0.837738 0.362170 0.525595 -0.777906
O12   O     O_3   0.780366 0.778692 0.601983 -0.729566
O13   O     O_3   0.842696 0.062326 0.484592 -0.738373
O14   O     O_3   0.316598 0.249583 0.650330 -0.761195
O15   O     O_3   0.279032 0.724861 0.603148 -0.739660
O16   O     O_3   0.589588 0.273343 0.007203 -0.783426

loop_
_geom_bond_atom_site_label_1
_geom_bond_atom_site_label_2
_ccdc_geom_bond_type
C53   H22   S    
C6    C32   S    
N32   Ni5   S    
C85   H76   S    
C40   C71   A    
C14   H67   S    
C8    C83   A    
N7    N31   A    
C23   C69   A    
N5    N29   A    
H80   O5    S    
C16   H33   S    
C14   C33   S    
H83   O8    S    
C3    C49   S    
C65   C73   A    
N12   Ni2   S    
C38   O14   S    
C16   C31   S    
C37   O13   S    
C12   C68   A    
N11   N26   A    
C9    C27   S    
C52   H57   S    
C22   C44   S    
C64   H64   S    
C17   H56   S    
N6    N28   A    
C21   C37   S    
C22   C29   S    
H37   O13   S    
C10   C15   S    
C59   C66   A    
N17   Ni3   S    
C53   C70   S    
C9    O1    S    
C12   N12   A    
C23   N23   A    
H69   O3    S    
N24   Ni7   S    
N8    N30   A    
C15   H32   S    
C44   H9    S    
C18   H14   S    
N1    Ni1   S    
N16   Ni4   S    
C81   N15   A    
C65   H65   S    
C86   N20   A    
C19   H2    S    
C64   N7    A    
C1    N1    A    
C24   H41   S    
C17   H35   S    
C87   H79   S    
C40   N28   A    
C84   N18   A    
C11   H86   S    
C49   H53   S    
C10   O9    S    
C38   H51   S    
C15   H78   S    
C60   C70   A    
C41   H19   S    
C36   H49   S    
C25   C47   S    
C8    C86   A    
C26   C48   S    
C5    C85   A    
C43   C74   A    
C46   H10   S    
C36   O12   S    
C81   H72   S    
N31   Ni3   S    
C54   H24   S    
C7    C33   S    
N29   Ni1   S    
C75   N9    A    
C86   H77   S    
C19   H15   S    
C76   N10   A    
N18   Ni5   S    
C16   H45   S    
C15   C35   S    
H36   O12   S    
C5    C31   S    
C52   C54   D    
C55   C68   S    
C20   C29   S    
N4    N23   A    
C2    C45   A    
C26   H8    S    
C20   H3    S    
C7    C87   A    
H29   O10   S    
C6    C84   A    
C31   C44   S    
C43   N31   A    
C14   H31   S    
C41   N29   A    
C78   N26   A    
C13   C30   S    
C4    C79   A    
C76   O2    S    
C30   C73   S    
C77   O3    S    
C80   H71   S    
C43   H21   S    
C29   C74   S    
C55   H25   S    
N13   N25   A    
C45   N22   A    
N16   N21   A    
C4    C50   S    
C82   N16   A    
C8    C35   S    
C83   N17   A    
C35   C39   S    
C9    C14   S    
N25   Ni8   S    
C39   O15   S    
C67   N25   A    
C24   H6    S    
C46   H46   S    
N20   Ni6   S    
C11   C16   S    
C22   H40   S    
H81   O6    S    
C67   O7    S    
C58   N32   A    
C34   N27   A    
N17   N20   A    
H70   O4    S    
H39   O15   S    
C1    C66   A    
C62   C72   A    
N5    Ni7   S    
C32   C37   S    
C5    C80   A    
C25   H42   S    
C19   C28   S    
C63   H63   S    
C35   C48   S    
C63   C71   A    
C84   H75   S    
C19   C39   S    
N14   N19   A    
N15   Ni1   S    
C41   C72   A    
C59   H59   S    
C58   C68   A    
C83   H74   S    
N3    N27   A    
C25   H7    S    
C37   H50   S    
N10   Ni2   S    
N26   Ni8   S    
N6    Ni7   S    
C77   N11   A    
C22   H5    S    
N9    Ni1   S    
N27   Ni4   S    
C28   C71   S    
C44   H44   S    
C87   N21   A    
C3    C77   A    
C60   N3    A    
C2    C76   A    
H38   O14   S    
C40   H18   S    
C80   N14   A    
N11   Ni3   S    
C10   C28   S    
N7    Ni8   S    
C13   H87   S    
C34   C70   A    
C39   H52   S    
N12   N32   A    
C42   C73   A    
C1    H1    S    
C62   H62   S    
N2    Ni5   S    
H66   O16   S    
C50   C57   D    
C32   C46   S    
C48   H48   S    
C59   N2    A    
C85   N19   A    
C18   C27   S    
C47   H11   S    
N22   Ni7   S    
N13   Ni4   S    
C51   C88   S    
C13   O11   S    
C4    C67   A    
C58   H58   S    
C57   H26   S    
C20   H16   S    
C82   H73   S    
C51   H55   S    
H30   O11   S    
C25   C27   S    
C23   H23   S    
C21   C30   S    
C26   C28   S    
C33   C38   S    
C2    C52   S    
C13   C17   S    
H28   O9    S    
C61   C69   A    
N4    Ni6   S    
N14   Ni2   S    
N15   N18   A    
C45   O5    S    
C57   C66   S    
C49   C55   D    
C62   N5    A    
C56   O6    S    
N10   N22   A    
C63   N6    A    
C79   O4    S    
C54   C69   S    
C61   H61   S    
C10   H85   S    
C11   O10   S    
C33   C47   S    
C48   H13   S    
N3    Ni6   S    
C42   N30   A    
N23   Ni3   S    
C47   H47   S    
N9    N24   A    
C18   C38   S    
C75   O16   S    
C24   C30   S    
C12   H12   S    
C26   H43   S    
N8    Ni8   S    
N21   Ni6   S    
H82   O7    S    
C20   C36   S    
N30   Ni4   S    
C75   C88   A    
C7    C82   A    
C56   C88   A    
C11   C29   S    
C61   N4    A    
C34   H34   S    
N1    N2    A    
C79   N13   A    
N28   Ni2   S    
C6    C81   A    
C17   C32   S    
C64   C74   A    
C31   C36   S    
H27   O1    S    
C9    H84   S    
H68   O2    S    
C60   H60   S    
C51   C53   D    
C3    C78   A    
C42   H20   S    
C65   N8    A    
C21   H17   S    
C27   C72   S    
C50   H54   S    
N19   Ni5   S    
C78   O8    S    
C24   C46   S    
C56   N24   A    
C21   H4    S    
C18   H88   S    
