data_mof_unit_41297.cif
_audit_creation_date              2013-03-05T16:09:55-0500
_audit_creation_method            fapswitch 2.2
_symmetry_space_group_name_H-M    P1
_symmetry_Int_Tables_number       1
_space_group_crystal_system       triclinic
_cell_length_a                    10.623917
_cell_length_b                    10.017861
_cell_length_c                    10.625743
_cell_angle_alpha                 89.693917
_cell_angle_beta                  90.652193
_cell_angle_gamma                 89.46298
_cell_volume                      1130.74666812

loop_
_atom_site_label
_atom_site_type_symbol
_atom_site_description
_atom_site_fract_x
_atom_site_fract_y
_atom_site_fract_z
_atom_type_partial_charge
O1    O     O_R   0.316770 0.614620 0.499990 -0.516679
O2    O     O_R   0.683230 0.614620 0.500010 -0.534666
O3    O     O_R   0.316800 0.385290 0.500000 -0.648205
O4    O     O_R   0.683200 0.385290 0.500000 -0.624739
C1    C     C_R   0.260611 0.499919 0.500106 0.883132
C2    C     C_R   0.739300 0.499240 0.501987 0.900001
O5    O     O_R   0.500010 0.614690 0.316770 -0.567788
O6    O     O_R   0.499990 0.614690 0.683230 -0.568548
O7    O     O_R   0.500040 0.385360 0.316770 -0.618625
O8    O     O_R   0.499960 0.385360 0.683230 -0.626282
C3    C     C_R   0.508251 0.500574 0.259690 0.896394
C4    C     C_R   0.482844 0.500148 0.738112 0.896389
Zn1   Zn    Zn3+2 0.500000 0.653120 0.500000 1.154284
Zn2   Zn    Zn3+2 0.500000 0.346880 0.500000 1.007227
H1    H     H_    0.491501 0.287019 0.112923 0.236402
H2    H     H_    0.465982 0.286340 0.887171 0.249536
C5    C     C_R   0.567319 0.742133 0.093908 0.223524
C6    C     C_R   0.397162 0.740899 0.889757 0.189642
C7    C     C_R   0.533890 0.863252 0.032536 0.168867
C8    C     C_R   0.431617 0.863217 0.945514 0.295276
C9    C     C_R   0.451924 0.621597 0.937200 -0.088334
C10   C     C_R   0.508998 0.622869 0.055178 -0.075959
C11   C     C_R   0.511316 0.501687 0.124108 -0.051215
C12   C     C_R   0.457401 0.500590 0.870906 -0.062098
C13   C     C_R   0.489867 0.380896 0.062993 -0.081243
C14   C     C_R   0.469325 0.380211 0.935617 -0.105258
C15   C     C_R   0.066891 0.414942 0.585915 -0.101459
C16   C     C_R   0.937262 0.413451 0.585661 -0.122461
H3    H     H_    0.119353 0.352795 0.652281 0.163685
H4    H     H_    0.888250 0.349893 0.651459 0.175565
C17   C     C_R   0.871868 0.497533 0.502189 -0.033430
C18   C     C_R   0.127929 0.498126 0.500650 -0.014282
C19   C     C_R   0.933291 0.579072 0.416792 -0.059956
C20   C     C_R   0.061899 0.575769 0.413073 -0.080684
H5    H     H_    0.882019 0.643864 0.352714 0.233360
H6    H     H_    0.109049 0.632117 0.341245 0.215662
C21   C     C_R   0.591927 0.072529 0.560027 -0.026953
C22   C     C_R   0.408001 0.075288 0.440605 -0.149442
H7    H     H_    0.665605 0.128436 0.606012 0.204520
H8    H     H_    0.334210 0.133254 0.394874 0.221057
C23   C     C_R   0.593123 0.930624 0.562602 0.435623
C24   C     C_R   0.407465 0.933763 0.437348 0.449286
N1    N     N_R   0.500000 0.857200 0.500000 -0.180484
N2    N     N_R   0.500000 0.142810 0.500000 -0.145953
N3    N     N_R   0.675025 0.734774 0.176403 0.242002
O9    O     O_R   0.761754 0.645001 0.156812 -0.399707
O10   O     O_R   0.686842 0.816180 0.270709 -0.334625
N4    N     N_R   0.300065 0.735372 0.794321 0.255253
O11   O     O_R   0.217811 0.639935 0.795767 -0.380701
O12   O     O_R   0.297931 0.820484 0.701504 -0.295911
S1    S     S_3+6 0.633444 0.004063 0.048583 0.148156
O13   O     O_2   0.768585 0.958459 0.046280 -0.165420
O14   O     O_2   0.612791 0.101364 0.942448 -0.239370
O15   O     O_3   0.607575 0.079624 0.186851 -0.503635
H9    H     H_    0.519270 0.059021 0.207340 0.349196
S2    S     S_3+6 0.337949 0.008194 0.917561 0.098336
O16   O     O_2   0.201700 0.970060 0.906571 -0.218129
O17   O     O_2   0.351492 0.104636 0.024241 -0.305773
O18   O     O_3   0.382678 0.080136 0.782108 -0.541395
H10   H     H_    0.313210 0.142469 0.758818 0.374558
S3    S     S_3+6 0.726852 0.861979 0.642992 0.088508
O19   O     O_2   0.697612 0.741765 0.721277 -0.280639
O20   O     O_2   0.825135 0.827292 0.547780 -0.251027
O21   O     O_3   0.788234 0.977090 0.740193 -0.521447
H11   H     H_    0.866730 0.935871 0.774175 0.423921
S4    S     S_3+6 0.274802 0.869877 0.356535 0.040760
O22   O     O_2   0.304536 0.748687 0.280385 -0.340811
O23   O     O_2   0.176059 0.839546 0.452290 -0.239652
O24   O     O_3   0.215558 0.986266 0.256934 -0.536718
H12   H     H_    0.138940 0.945686 0.220088 0.419583

loop_
_geom_bond_atom_site_label_1
_geom_bond_atom_site_label_2
_geom_bond_distance
_ccdc_geom_bond_type
S3    O21   1.683234 S    
S4    O23   1.501676 D    
O7    Zn2   1.982736 S    
C17   C19   1.389970 A    
C22   N2    1.346868 A    
O6    Zn1   1.982636 S    
S2    O17   1.499895 D    
C15   H3    1.084150 S    
C6    C9    1.412386 A    
C23   N1    1.402205 A    
C4    C12   1.439734 S    
C6    C8    1.413421 A    
C5    C10   1.412115 A    
S2    O18   1.681571 S    
C23   S3    1.780118 S    
O6    C4    1.299663 A    
C1    C18   1.409968 S    
O21   H11   0.990674 S    
S1    O15   1.680546 S    
C21   N2    1.350725 A    
C16   H4    1.084017 S    
S4    O22   1.495857 D    
C13   C14   1.368551 A    
O3    C1    1.289266 A    
O18   H10   0.990647 S    
C21   H7    1.080538 S    
O4    Zn2   1.987508 S    
C9    C10   1.386488 A    
C22   H8    1.080597 S    
O7    C3    1.305091 A    
C18   C20   1.389326 A    
O15   H9    0.988901 S    
O2    C2    1.295313 A    
O3    Zn2   1.980433 S    
O8    C4    1.304274 A    
O1    C1    1.299675 A    
N4    O12   1.300137 A    
N4    O11   1.301441 A    
C19   H5    1.077879 S    
C12   C14   1.389039 A    
O5    C3    1.299681 A    
C20   H6    1.077722 S    
C8    S2    1.774655 S    
N3    O10   1.301060 A    
C21   C23   1.421634 A    
O24   H12   0.990835 S    
S3    O19   1.496989 D    
H1    C13   1.077208 S    
S4    O24   1.683335 S    
O1    Zn1   1.988003 S    
C24   N1    1.401227 A    
S1    O13   1.503072 D    
C22   C24   1.418448 A    
C7    S1    1.778770 S    
Zn1   N1    2.044445 S    
C11   C13   1.395748 A    
C19   C20   1.367433 A    
S2    O16   1.503939 D    
Zn2   N2    2.044346 S    
O4    C2    1.292864 A    
O8    Zn2   1.986773 S    
C9    C12   1.406362 A    
C3    C11   1.441379 S    
C15   C16   1.377362 A    
C24   S4    1.768781 S    
O2    Zn1   1.980910 S    
C10   C11   1.414332 A    
C2    C17   1.408309 S    
O5    Zn1   1.986672 S    
C5    C7    1.414859 A    
C15   C18   1.396858 A    
N3    O9    1.300742 A    
C16   C17   1.394949 A    
S3    O20   1.501838 D    
C7    C8    1.418697 A    
C5    N3    1.434585 S    
S1    O14   1.499585 D    
H2    C14   1.075162 S    
C6    N4    1.439930 S    
