data_mof_unit_42062.cif
_audit_creation_date              2013-03-05T15:58:06-0500
_audit_creation_method            fapswitch 2.2
_symmetry_space_group_name_H-M    P1
_symmetry_Int_Tables_number       1
_space_group_crystal_system       triclinic
_cell_length_a                    15.074737
_cell_length_b                    13.853537
_cell_length_c                    10.820224
_cell_angle_alpha                 90.534678
_cell_angle_beta                  89.960587
_cell_angle_gamma                 90.561423
_cell_volume                      2259.47129037

loop_
_atom_site_label
_atom_site_type_symbol
_atom_site_description
_atom_site_fract_x
_atom_site_fract_y
_atom_site_fract_z
_atom_type_partial_charge
O1    O     O_R   0.370250 0.582280 0.500040 -0.528203
O2    O     O_R   0.370250 0.417720 0.500040 -0.545278
C1    C     C_R   0.328643 0.500615 0.501753 0.884409
O3    O     O_R   0.499970 0.582270 0.317700 -0.582797
O4    O     O_R   0.499970 0.417730 0.317700 -0.555575
C2    C     C_R   0.498553 0.499877 0.259942 0.778465
Cu1   Cu    Cu3+1 0.499990 0.597420 0.500010 1.012597
Cu2   Cu    Cu3+1 0.499990 0.402580 0.500010 1.008266
O5    O     O_R   0.629730 0.582260 0.499980 -0.588833
O6    O     O_R   0.629730 0.417740 0.499980 -0.601318
O7    O     O_R   0.500000 0.582270 0.682320 -0.591556
O8    O     O_R   0.500000 0.417730 0.682320 -0.562889
C3    C     C_R   0.670880 0.500389 0.501688 0.787665
C4    C     C_R   0.503621 0.500231 0.739881 0.786806
C5    C     C_3   0.500777 0.606587 0.070360 -0.165540
C6    C     C_3   0.418357 0.440137 0.065687 -0.181866
H1    H     H_    0.561583 0.642378 0.108636 0.138770
H2    H     H_    0.433904 0.362531 0.080208 0.155551
C7    C     C_3   0.511809 0.604397 0.928854 -0.392687
C8    C     C_3   0.416069 0.454478 0.923970 -0.383341
H3    H     H_    0.460732 0.648239 0.884579 0.229194
H4    H     H_    0.360447 0.501021 0.894350 0.235508
H5    H     H_    0.577174 0.636527 0.902944 0.178745
H6    H     H_    0.405541 0.382710 0.880584 0.220902
H7    H     H_    0.643584 0.492662 0.104138 0.171713
H8    H     H_    0.590555 0.377036 0.113000 0.210285
H9    H     H_    0.646958 0.471019 0.892574 0.177848
H10   H     H_    0.577354 0.365484 0.901910 0.204792
C9    C     C_3   0.584090 0.450594 0.073654 -0.415463
C10   C     C_3   0.497759 0.500358 0.121646 -0.022991
C11   C     C_3   0.504142 0.500172 0.877830 0.060465
C12   C     C_3   0.583234 0.442697 0.930302 -0.355413
C13   C     C_R   0.813236 0.573856 0.443660 -0.215421
C14   C     C_R   0.767103 0.501888 0.506432 -0.072763
C15   C     C_R   0.812441 0.433126 0.575510 -0.202396
C16   C     C_R   0.905415 0.436920 0.585218 0.029145
C17   C     C_R   0.952003 0.507217 0.515272 0.065721
C18   C     C_R   0.905269 0.575914 0.445508 0.117706
C19   C     C_R   0.953560 0.371734 0.659778 -0.019165
C20   C     C_R   0.046530 0.374528 0.657112 -0.219503
C21   C     C_R   0.092300 0.441431 0.584218 0.081876
C22   C     C_R   0.045284 0.508716 0.513816 0.058842
C23   C     C_R   0.091419 0.577915 0.442269 0.034390
C24   C     C_R   0.042907 0.646787 0.375886 -0.148601
C25   C     C_R   0.950986 0.645612 0.377685 -0.178963
C26   C     C_R   0.184782 0.442348 0.581831 -0.193104
C27   C     C_R   0.231293 0.505238 0.504944 -0.135869
C28   C     C_R   0.184783 0.576406 0.438284 -0.048289
H11   H     H_    0.777288 0.626644 0.390318 0.164726
H12   H     H_    0.774117 0.377558 0.621092 0.185000
H13   H     H_    0.083668 0.324724 0.713456 0.178022
H14   H     H_    0.221059 0.396289 0.643084 0.178456
H15   H     H_    0.075249 0.701927 0.321298 0.172419
H16   H     H_    0.915601 0.698849 0.324680 0.159164
C29   C     C_R   0.444307 0.796218 0.575765 0.157999
C30   C     C_R   0.433870 0.203575 0.556979 0.150010
N1    N     N_R   0.499930 0.743810 0.499950 -0.231642
N2    N     N_R   0.499930 0.256190 0.499950 -0.231583
C31   C     C_R   0.557550 0.792266 0.423401 0.089674
C32   C     C_R   0.564031 0.207623 0.434552 0.033607
C33   C     C_R   0.562901 0.895794 0.421795 -0.081394
C34   C     C_R   0.564445 0.104125 0.424624 -0.080617
C35   C     C_R   0.500967 0.948213 0.491937 0.070281
C36   C     C_R   0.500750 0.051296 0.491668 0.083821
C37   C     C_R   0.438753 0.897537 0.564261 -0.030975
C38   C     C_R   0.435612 0.101563 0.558890 -0.043236
C39   C     C_R   0.625863 0.948298 0.349929 -0.064073
C40   C     C_R   0.626944 0.052025 0.351828 -0.073850
C41   C     C_R   0.371756 0.048701 0.625753 -0.149792
C42   C     C_R   0.372485 0.949322 0.626666 -0.115303
H17   H     H_    0.600336 0.749500 0.365055 0.156923
H18   H     H_    0.614142 0.250195 0.388360 0.165155
H19   H     H_    0.320667 0.083243 0.680182 0.162587
H20   H     H_    0.319981 0.913454 0.677444 0.169938
C43   C     C_2   0.232505 0.647796 0.361836 0.860141
O9    O     O_2   0.237666 0.634630 0.250626 -0.574128
O10   O     O_R   0.266591 0.732233 0.416046 -0.720787
H21   H     H_    0.296348 0.776168 0.353783 0.348625
C44   C     C_2   0.399994 0.754135 0.685500 0.845312
O11   O     O_2   0.341676 0.693050 0.675653 -0.544923
O12   O     O_R   0.415910 0.798192 0.800359 -0.790291
H22   H     H_    0.370250 0.779428 0.864652 0.343847
C45   C     C_2   0.353631 0.249290 0.605754 0.863430
O13   O     O_2   0.355940 0.294838 0.702519 -0.639657
O14   O     O_R   0.272691 0.228336 0.547647 -0.749952
H23   H     H_    0.219561 0.241028 0.602414 0.320976
C46   C     C_2   0.689936 0.895343 0.270880 0.873236
O15   O     O_2   0.693459 0.911366 0.160024 -0.554352
O16   O     O_R   0.746761 0.828068 0.323533 -0.776486
H24   H     H_    0.786845 0.796550 0.260010 0.324131
C47   C     C_2   0.693633 0.105481 0.277172 0.871006
O17   O     O_2   0.772621 0.088770 0.289506 -0.552509
O18   O     O_R   0.665792 0.173966 0.191735 -0.766902
H25   H     H_    0.717207 0.205572 0.146594 0.344044
C48   C     C_2   0.423119 0.670089 0.106151 0.898473
O19   O     O_2   0.433350 0.734162 0.183487 -0.591038
O20   O     O_R   0.342609 0.661682 0.042921 -0.721371
H26   H     H_    0.300349 0.715937 0.063694 0.362151
C49   C     C_2   0.328288 0.451298 0.126654 0.896115
O21   O     O_2   0.265437 0.484651 0.070395 -0.509752
O22   O     O_R   0.314730 0.413208 0.244109 -0.756103
H27   H     H_    0.250406 0.416539 0.270981 0.337753
C50   C     C_2   0.910604 0.301692 0.744658 0.854181
O23   O     O_2   0.845544 0.324725 0.805306 -0.606859
O24   O     O_R   0.947781 0.210455 0.760010 -0.738607
H28   H     H_    0.913833 0.169635 0.821724 0.353143

loop_
_geom_bond_atom_site_label_1
_geom_bond_atom_site_label_2
_geom_bond_distance
_ccdc_geom_bond_type
C46   O15   1.222905 D    
C35   C37   1.407555 A    
O18   H25   1.013833 S    
C21   C22   1.406568 A    
C7    H5    1.114020 S    
C48   O19   1.222935 D    
C4    C11   1.492666 S    
C23   C24   1.410064 A    
C7    C11   1.544315 S    
O12   H22   1.012174 S    
Cu1   Cu2   2.699222 S    
O14   H23   1.011780 S    
Cu1   O7    1.985716 S    
O22   H27   1.013490 S    
C5    C10   1.577862 S    
C16   C17   1.419173 A    
C7    H3    1.098349 S    
C17   C18   1.413913 A    
C9    C12   1.553992 S    
C5    C48   1.519067 S    
O4    C2    1.303799 A    
O7    C4    1.302713 A    
N1    C31   1.374453 A    
C38   C41   1.407638 A    
C32   H18   1.079135 S    
N2    C32   1.374804 A    
C37   C42   1.404501 A    
C26   H14   1.077357 S    
C40   C47   1.485635 S    
C32   C34   1.436896 A    
C14   C15   1.399995 A    
C17   C22   1.406213 A    
C33   C35   1.406088 A    
O5    C3    1.298371 A    
C18   C25   1.394743 A    
C34   C36   1.406780 A    
Cu2   N2    2.028005 S    
C24   H15   1.082036 S    
C49   O21   1.223249 D    
C42   H20   1.082606 S    
C21   C26   1.394302 A    
C41   H19   1.081796 S    
C23   C28   1.408424 A    
C6    C8    1.548515 S    
C28   C43   1.476620 S    
O3    Cu1   1.981820 S    
C29   C37   1.413591 A    
O20   H26   1.013572 S    
C16   C19   1.421396 A    
H7    C9    1.113259 S    
C31   C33   1.435970 A    
C39   C40   1.436877 A    
C27   C28   1.418234 A    
C8    H6    1.105612 S    
H10   C12   1.112874 S    
O3    C2    1.296198 A    
C19   C20   1.401924 A    
C44   O12   1.399299 S    
O10   H21   1.013623 S    
C35   C36   1.428122 A    
O1    C1    1.288474 A    
C15   C16   1.405992 A    
C36   C38   1.407545 A    
C5    C7    1.540067 S    
C43   O9    1.217930 D    
C9    C10   1.564796 S    
C47   O18   1.398427 S    
C29   C44   1.483282 S    
C33   C39   1.424984 A    
C45   O13   1.217746 D    
Cu2   O8    1.981820 S    
C15   H12   1.080569 S    
C13   C14   1.391906 A    
C50   O24   1.399001 S    
C43   O10   1.397227 S    
Cu2   O6    1.964995 S    
C20   C21   1.399131 A    
C45   O14   1.399666 S    
C8    H4    1.111909 S    
C25   H16   1.083251 S    
C29   N1    1.379505 A    
C22   C23   1.414934 A    
C47   O17   1.222871 D    
C24   C25   1.385756 A    
C30   C45   1.466495 S    
C5    H1    1.115966 S    
C26   C27   1.394109 A    
C2    C10   1.496528 S    
H9    C12   1.112866 S    
O1    Cu1   1.964966 S    
C11   C12   1.551086 S    
O2    Cu2   1.969052 S    
O8    C4    1.297199 A    
O6    C3    1.296849 A    
O4    Cu2   1.985716 S    
C48   O20   1.396966 S    
C6    C49   1.517758 S    
C19   C50   1.485884 S    
C20   H13   1.084921 S    
O24   H28   1.014151 S    
C39   C46   1.484507 S    
C13   C18   1.387536 A    
C34   C40   1.425029 A    
C46   O16   1.397574 S    
O2    C1    1.313858 A    
C3    C14   1.451415 S    
C30   C38   1.414069 A    
C1    C27   1.469919 S    
C30   N2    1.377349 A    
C41   C42   1.377029 A    
Cu1   N1    2.028034 S    
C44   O11   1.218278 D    
Cu1   O5    1.969086 S    
H8    C9    1.113224 S    
C6    H2    1.115185 S    
C13   H11   1.085201 S    
C50   O23   1.222983 D    
O16   H24   1.013502 S    
C6    C10   1.570784 S    
C49   O22   1.394789 S    
C31   H17   1.079590 S    
C8    C11   1.549594 S    
