data_mof_unit_52090.cif
_audit_creation_date              2013-03-05T15:56:45-0500
_audit_creation_method            fapswitch 2.2
_symmetry_space_group_name_H-M    P1
_symmetry_Int_Tables_number       1
_space_group_crystal_system       triclinic
_cell_length_a                    21.492673
_cell_length_b                    21.225082
_cell_length_c                    13.682182
_cell_angle_alpha                 90.439114
_cell_angle_beta                  90.528602
_cell_angle_gamma                 89.947652
_cell_volume                      6241.13790713

loop_
_atom_site_label
_atom_site_type_symbol
_atom_site_description
_atom_site_fract_x
_atom_site_fract_y
_atom_site_fract_z
_atom_type_partial_charge
O1    O     O_R   0.064880 0.435140 0.582280 -0.550418
O2    O     O_R   0.935120 0.564860 0.417720 -0.571724
O3    O     O_R   0.935120 0.564860 0.582280 -0.565440
O4    O     O_R   0.064880 0.435140 0.417720 -0.613865
O5    O     O_R   0.935120 0.435140 0.417720 -0.517485
O6    O     O_R   0.064880 0.564860 0.582280 -0.574948
O7    O     O_R   0.064880 0.564860 0.417720 -0.551860
O8    O     O_R   0.935120 0.435140 0.582280 -0.587302
O9    O     O_R   0.564880 0.935140 0.582280 -0.579771
O10   O     O_R   0.435120 0.064860 0.417720 -0.553746
O11   O     O_R   0.435120 0.064860 0.582280 -0.581918
O12   O     O_R   0.564880 0.935140 0.417720 -0.557679
O13   O     O_R   0.435120 0.935140 0.417720 -0.575405
O14   O     O_R   0.564880 0.064860 0.582280 -0.544359
O15   O     O_R   0.564880 0.064860 0.417720 -0.586219
O16   O     O_R   0.435120 0.935140 0.582280 -0.588355
C1    C     C_R   0.083476 0.412051 0.500088 0.889206
C2    C     C_R   0.916565 0.587946 0.500179 0.918114
C3    C     C_R   0.911445 0.417071 0.499063 0.899069
C4    C     C_R   0.083314 0.588072 0.500270 0.895925
C5    C     C_R   0.583449 0.912066 0.499805 0.899632
C6    C     C_R   0.416916 0.088237 0.499943 0.891410
C7    C     C_R   0.416771 0.911828 0.499753 0.890560
C8    C     C_R   0.583636 0.087836 0.500950 0.890665
Cu1   Cu    Cu3+1 0.000000 0.500000 0.597420 1.041491
Cu2   Cu    Cu3+1 0.000000 0.500000 0.402580 1.059228
Cu3   Cu    Cu3+1 0.500000 1.000000 0.597420 1.039012
Cu4   Cu    Cu3+1 0.500000 0.000000 0.402580 1.026405
C9    C     C_R   0.129348 0.686409 0.426424 0.310305
C10   C     C_R   0.830399 0.351412 0.408412 0.397079
C11   C     C_R   0.869706 0.686213 0.575359 0.301907
C12   C     C_R   0.131415 0.314376 0.573959 0.369820
C13   C     C_R   0.641297 0.175876 0.589073 0.372123
C14   C     C_R   0.370733 0.813359 0.573652 0.280229
C15   C     C_R   0.370882 0.187168 0.426635 0.376515
C16   C     C_R   0.630137 0.813742 0.424449 0.379528
C17   C     C_R   0.128162 0.640099 0.500924 -0.144904
C18   C     C_R   0.859629 0.371614 0.497002 -0.182034
C19   C     C_R   0.871484 0.639718 0.500145 -0.153074
C20   C     C_R   0.129364 0.360944 0.500073 -0.175589
C21   C     C_R   0.628972 0.139458 0.503245 -0.168322
C22   C     C_R   0.371953 0.859732 0.499162 -0.150063
C23   C     C_R   0.372216 0.140362 0.500301 -0.169544
C24   C     C_R   0.628453 0.860204 0.499757 -0.160247
C25   C     C_R   0.171561 0.642162 0.577616 -0.270779
C26   C     C_R   0.839402 0.347220 0.586317 -0.302233
C27   C     C_R   0.828774 0.641668 0.422493 -0.246149
C28   C     C_R   0.172495 0.359734 0.424133 -0.301902
C29   C     C_R   0.661261 0.151870 0.417013 -0.260928
C30   C     C_R   0.328474 0.857720 0.422528 -0.271899
C31   C     C_R   0.329769 0.142562 0.577065 -0.285429
C32   C     C_R   0.671180 0.858224 0.577339 -0.278308
C33   C     C_R   0.218634 0.686920 0.579181 0.113923
C34   C     C_R   0.792448 0.302289 0.588546 0.116310
C35   C     C_R   0.781879 0.686607 0.420475 0.106945
C36   C     C_R   0.219660 0.315021 0.422382 0.120264
C37   C     C_R   0.706028 0.198822 0.414792 0.112356
C38   C     C_R   0.281312 0.813032 0.421023 0.118489
C39   C     C_R   0.283402 0.187988 0.579429 0.118317
C40   C     C_R   0.718048 0.813283 0.579284 0.119601
C41   C     C_R   0.224882 0.728552 0.500340 0.042371
C42   C     C_R   0.770420 0.275713 0.500381 0.038729
C43   C     C_R   0.774909 0.728365 0.499943 0.046696
C44   C     C_R   0.226702 0.273155 0.500925 0.037475
C45   C     C_R   0.724083 0.229158 0.502293 0.035229
C46   C     C_R   0.275007 0.771463 0.499919 0.045201
C47   C     C_R   0.276557 0.229932 0.500938 0.035458
C48   C     C_R   0.724942 0.771485 0.499828 0.036355
C49   C     C_R   0.181129 0.727467 0.422182 -0.029705
C50   C     C_R   0.792787 0.297281 0.409996 -0.006328
C51   C     C_R   0.817902 0.727330 0.579138 -0.026021
C52   C     C_R   0.183731 0.274004 0.578905 -0.023420
C53   C     C_R   0.694469 0.214734 0.591080 -0.011850
C54   C     C_R   0.318823 0.772445 0.577979 -0.007480
C55   C     C_R   0.319351 0.228730 0.422666 -0.022048
C56   C     C_R   0.681998 0.772615 0.420532 -0.024425
C57   C     C_R   0.260168 0.689814 0.658150 -0.186497
C58   C     C_R   0.767863 0.282803 0.677601 -0.188182
C59   C     C_R   0.741420 0.689766 0.340215 -0.178989
C60   C     C_R   0.260170 0.312030 0.343243 -0.195962
C61   C     C_R   0.733679 0.215232 0.326487 -0.184947
C62   C     C_R   0.239843 0.810010 0.341942 -0.195256
C63   C     C_R   0.243215 0.191311 0.658920 -0.195400
C64   C     C_R   0.758690 0.810320 0.659339 -0.189738
C65   C     C_R   0.775989 0.264693 0.323804 -0.085151
C66   C     C_R   0.191060 0.767059 0.341643 -0.128600
C67   C     C_R   0.194705 0.234587 0.659582 -0.108425
C68   C     C_R   0.807351 0.767199 0.660080 -0.128086
C69   C     C_R   0.309012 0.732659 0.658386 -0.117244
C70   C     C_R   0.718658 0.240205 0.678867 -0.094424
C71   C     C_R   0.692829 0.732995 0.339351 -0.100291
C72   C     C_R   0.308657 0.268644 0.342433 -0.103754
H1    H     H_    0.169211 0.607997 0.636071 0.166511
H2    H     H_    0.858949 0.364469 0.654788 0.181121
H3    H     H_    0.831667 0.607454 0.363365 0.186963
H4    H     H_    0.169499 0.394111 0.365972 0.163943
H5    H     H_    0.650553 0.125913 0.350365 0.173440
H6    H     H_    0.330849 0.891854 0.364031 0.160503
H7    H     H_    0.332427 0.108128 0.635193 0.164212
H8    H     H_    0.668370 0.892502 0.636408 0.162945
H9    H     H_    0.254724 0.658998 0.720304 0.155875
H10   H     H_    0.785562 0.301753 0.746175 0.153743
H11   H     H_    0.747647 0.659003 0.277440 0.158989
H12   H     H_    0.253940 0.342900 0.281152 0.150008
H13   H     H_    0.721298 0.191008 0.259056 0.150113
H14   H     H_    0.245397 0.840682 0.279644 0.152930
H15   H     H_    0.249460 0.160501 0.721080 0.149719
H16   H     H_    0.752635 0.841242 0.721967 0.152679
H17   H     H_    0.796431 0.276274 0.254262 0.203820
H18   H     H_    0.162388 0.764493 0.276552 0.226959
H19   H     H_    0.166963 0.237449 0.724862 0.211139
H20   H     H_    0.835520 0.764820 0.725685 0.226520
H21   H     H_    0.337981 0.734781 0.723218 0.214277
H22   H     H_    0.700885 0.226300 0.749153 0.204682
H23   H     H_    0.665094 0.735742 0.273348 0.214840
H24   H     H_    0.336307 0.265876 0.277082 0.212387
C73   C     C_R   0.054046 0.488123 0.793905 0.094193
C74   C     C_R   0.947014 0.515448 0.205743 0.153855
C75   C     C_R   0.946068 0.512154 0.792715 0.086846
C76   C     C_R   0.053695 0.486535 0.207276 0.059281
C77   C     C_R   0.555159 0.996532 0.794029 0.134098
C78   C     C_R   0.444775 0.002388 0.205978 0.061962
C79   C     C_R   0.444814 0.003127 0.792519 0.040978
C80   C     C_R   0.555216 0.997512 0.207493 0.056261
N1    N     N_R   0.000000 0.500000 0.743810 -0.188968
N2    N     N_R   0.000000 0.500000 0.256190 -0.187870
N3    N     N_R   0.500000 1.000000 0.743810 -0.176740
N4    N     N_R   0.500000 1.000000 0.256190 -0.188225
C81   C     C_R   0.945025 0.513340 0.895718 -0.003477
C82   C     C_R   0.055161 0.486711 0.104189 0.000901
C83   C     C_R   0.055283 0.487335 0.896952 -0.002589
C84   C     C_R   0.945512 0.514922 0.102794 -0.008808
C85   C     C_R   0.443472 0.002929 0.895581 0.004663
C86   C     C_R   0.556525 0.997141 0.104428 -0.012897
C87   C     C_R   0.556498 0.996660 0.897138 0.000655
C88   C     C_R   0.443455 0.002630 0.102871 -0.010539
C89   C     C_R   0.000186 0.500366 0.948102 0.088469
C90   C     C_R   0.000263 0.500543 0.051705 0.092059
C91   C     C_R   0.499986 0.999816 0.948170 0.096447
C92   C     C_R   0.499988 0.999862 0.051843 0.079931
C93   C     C_R   0.890400 0.527234 0.947344 -0.160609
C94   C     C_R   0.109951 0.473451 0.052558 -0.173989
C95   C     C_R   0.110063 0.473986 0.949835 -0.159631
C96   C     C_R   0.890723 0.528356 0.050025 -0.156057
C97   C     C_R   0.387226 0.005777 0.947079 -0.182502
C98   C     C_R   0.612761 0.994118 0.052925 -0.166703
C99   C     C_R   0.612744 0.993799 0.950192 -0.163454
C100  C     C_R   0.387214 0.005555 0.049809 -0.162017
H25   H     H_    0.096247 0.479085 0.753588 0.128443
H26   H     H_    0.905735 0.528212 0.245458 0.164435
H27   H     H_    0.903831 0.521201 0.751488 0.134014
H28   H     H_    0.095622 0.476146 0.248475 0.119402
H29   H     H_    0.598181 0.994075 0.753637 0.116396
H30   H     H_    0.401733 0.004273 0.246378 0.130603
H31   H     H_    0.401782 0.005536 0.750963 0.107451
H32   H     H_    0.598271 0.995618 0.249059 0.132732
H33   H     H_    0.847522 0.537484 0.908348 0.151957
H34   H     H_    0.152717 0.462782 0.091582 0.141666
H35   H     H_    0.152925 0.463757 0.911780 0.147147
H36   H     H_    0.848065 0.539371 0.088152 0.152340
H37   H     H_    0.343253 0.008141 0.907933 0.138657
H38   H     H_    0.656745 0.991947 0.092068 0.145661
H39   H     H_    0.656714 0.991403 0.912260 0.143322
H40   H     H_    0.343231 0.007746 0.087731 0.144290
S1    S     S_3+6 0.063658 0.698445 0.347324 0.020867
O17   O     O_2   0.073572 0.662626 0.253595 -0.256210
O18   O     O_2   0.004616 0.676229 0.393392 -0.278422
O19   O     O_3   0.054384 0.775320 0.321766 -0.515465
H41   H     H_    0.048569 0.796113 0.386113 0.349283
S2    S     S_3+6 0.827229 0.400824 0.303592 -0.021114
O20   O     O_2   0.826269 0.468624 0.335991 -0.341075
O21   O     O_2   0.883168 0.388355 0.241225 -0.312389
O22   O     O_3   0.762296 0.387543 0.236944 -0.524865
H42   H     H_    0.766222 0.415063 0.179179 0.374838
S3    S     S_3+6 0.934761 0.698774 0.655805 0.020394
O23   O     O_2   0.923655 0.664519 0.749721 -0.268803
O24   O     O_2   0.994221 0.675513 0.611641 -0.268908
O25   O     O_3   0.944038 0.775977 0.680653 -0.512583
H43   H     H_    0.950408 0.795796 0.616196 0.349479
S4    S     S_3+6 0.065116 0.300192 0.648574 -0.004312
O26   O     O_2   0.060175 0.231487 0.673432 -0.299007
O27   O     O_2   0.070722 0.338281 0.741250 -0.303643
O28   O     O_3   0.999621 0.320292 0.588788 -0.541422
H44   H     H_    0.965481 0.303337 0.629060 0.372910
S5    S     S_3+6 0.585671 0.182991 0.685041 0.015642
O29   O     O_2   0.520671 0.173311 0.646272 -0.246356
O30   O     O_2   0.599867 0.134759 0.761911 -0.334655
O31   O     O_3   0.588882 0.255360 0.735943 -0.523182
H45   H     H_    0.560410 0.253596 0.792375 0.382501
S6    S     S_3+6 0.436314 0.800817 0.653054 0.049390
O32   O     O_2   0.445464 0.731422 0.669111 -0.233712
O33   O     O_2   0.495181 0.825926 0.610226 -0.237336
O34   O     O_3   0.423806 0.835932 0.761763 -0.508738
H46   H     H_    0.397902 0.873329 0.747051 0.321424
S7    S     S_3+6 0.436509 0.198922 0.349315 0.017267
O35   O     O_2   0.443739 0.267303 0.323959 -0.269284
O36   O     O_2   0.495218 0.178313 0.400013 -0.277124
O37   O     O_3   0.426370 0.156500 0.246113 -0.551759
H47   H     H_    0.467024 0.158125 0.212537 0.375509
S8    S     S_3+6 0.564986 0.801998 0.343822 0.025698
O38   O     O_2   0.557570 0.733452 0.317801 -0.262910
O39   O     O_2   0.505820 0.823403 0.391124 -0.267219
O40   O     O_3   0.576554 0.843418 0.241309 -0.552748
H48   H     H_    0.535610 0.844050 0.207482 0.377859

loop_
_geom_bond_atom_site_label_1
_geom_bond_atom_site_label_2
_geom_bond_distance
_ccdc_geom_bond_type
C84   C96   1.405747 A    
C63   C67   1.388925 A    
O40   H48   0.990621 S    
S6    O32   1.503344 D    
C8    C21   1.466888 S    
C58   H10   1.083826 S    
O7    C4    1.288010 A    
C57   H9    1.084063 S    
C14   C22   1.422723 A    
C88   C92   1.407890 A    
C25   H1    1.085243 S    
C97   C100  1.405611 A    
O25   H43   0.990701 S    
S5    O29   1.503456 D    
C29   C37   1.386568 A    
S3    O24   1.500200 D    
C79   H31   1.082560 S    
O22   H42   0.990643 S    
O10   C6    1.289987 A    
C70   H22   1.081283 S    
C87   C91   1.407841 A    
C98   H38   1.083314 S    
C15   C55   1.416206 A    
S1    O17   1.502598 D    
O7    Cu2   1.968851 S    
C77   H29   1.082607 S    
C79   C85   1.410717 A    
C76   C82   1.411136 A    
C13   C53   1.409890 A    
C54   C69   1.409522 A    
C27   C35   1.387291 A    
C66   H18   1.079371 S    
C39   C63   1.396408 A    
C53   C70   1.408644 A    
C77   N3    1.366957 A    
C65   H17   1.081800 S    
C38   C62   1.396595 A    
C86   C92   1.407796 A    
C76   N2    1.368257 A    
S5    O30   1.502426 D    
O6    Cu1   1.973772 S    
C67   H19   1.079761 S    
S2    O20   1.502732 D    
C84   C90   1.406320 A    
C46   C54   1.417420 A    
C45   C53   1.412405 A    
O13   C7    1.295044 A    
O3    C2    1.288728 A    
C20   C28   1.398887 A    
Cu2   N2    2.002935 S    
O14   C8    1.286683 A    
C74   H26   1.077958 S    
Cu1   N1    2.002935 S    
C10   S2    1.783957 S    
C16   C56   1.416294 A    
S6    O34   1.682283 S    
C39   C47   1.406790 A    
Cu3   N3    2.002935 S    
C41   C46   1.411440 A    
C38   C46   1.406983 A    
S3    O23   1.502358 D    
C62   H14   1.084045 S    
C71   H23   1.079374 S    
S8    O38   1.503433 D    
C35   C43   1.406492 A    
C36   C44   1.406697 A    
O13   Cu4   1.973775 S    
O37   H47   0.991673 S    
O14   Cu3   1.973772 S    
C96   H36   1.083474 S    
C15   C23   1.420716 A    
C59   C71   1.389567 A    
S4    O28   1.677999 S    
C15   S7    1.789734 S    
C80   N4    1.367118 A    
S7    O37   1.681433 S    
O16   C7    1.287979 A    
C24   C32   1.398022 A    
O16   Cu3   1.968854 S    
C12   C20   1.419597 A    
C25   C33   1.388371 A    
S1    O18   1.500105 D    
O1    Cu1   1.969778 S    
O8    Cu1   1.968854 S    
C78   H30   1.082573 S    
C42   C50   1.410692 A    
C59   H11   1.084118 S    
C33   C41   1.407131 A    
C94   H34   1.083347 S    
C73   C83   1.410137 A    
C21   C29   1.401172 A    
C10   C50   1.405844 A    
S7    O36   1.500710 D    
S4    O27   1.502537 D    
S3    O25   1.682627 S    
C9    C49   1.416026 A    
C31   C39   1.386413 A    
C31   H7    1.085335 S    
C86   C98   1.405859 A    
C69   H21   1.079709 S    
C30   H6    1.085253 S    
O8    C3    1.298220 A    
C76   H28   1.081927 S    
C100  H40   1.083316 S    
C44   C47   1.409958 A    
C64   C68   1.389151 A    
C14   S6    1.792582 S    
C12   C52   1.414513 A    
C93   C96   1.404860 A    
S5    O31   1.682908 S    
C11   S3    1.790351 S    
C34   C42   1.406060 A    
Cu1   Cu2   2.665835 S    
C62   C66   1.389966 A    
O12   C5    1.288526 A    
C32   H8    1.085337 S    
C58   C70   1.392304 A    
S7    O35   1.503394 D    
O31   H45   0.990564 S    
C1    C20   1.465420 S    
C30   C38   1.388759 A    
C60   C72   1.390116 A    
C33   C57   1.396206 A    
C2    C19   1.464370 S    
O28   H44   0.991220 S    
C83   C89   1.407221 A    
C3    C18   1.474070 S    
C75   C81   1.409721 A    
C97   H37   1.083329 S    
C5    C24   1.464696 S    
C35   C59   1.396392 A    
C85   C97   1.405858 A    
C79   N3    1.367160 A    
C6    C23   1.464621 S    
C26   H2    1.084422 S    
O11   Cu3   1.969291 S    
C57   C69   1.389481 A    
C26   C34   1.389819 A    
C73   H25   1.082138 S    
C81   C89   1.407771 A    
O2    Cu2   1.969778 S    
C77   C87   1.410767 A    
C51   C68   1.408525 A    
C7    C22   1.467074 S    
C78   C88   1.410801 A    
C88   C100  1.405850 A    
C55   C72   1.408846 A    
C22   C30   1.398490 A    
O4    C1    1.292190 A    
C75   N1    1.367124 A    
C93   H33   1.083336 S    
O19   H41   0.990701 S    
C14   C54   1.416378 A    
C85   C91   1.407787 A    
S1    O19   1.682622 S    
C87   C99   1.405822 A    
C80   H32   1.082541 S    
C37   C61   1.397979 A    
C16   C24   1.421452 A    
C47   C55   1.418180 A    
C17   C25   1.397972 A    
C82   C90   1.407466 A    
C52   C67   1.408209 A    
C83   C95   1.406009 A    
S4    O26   1.504010 D    
O9    Cu3   1.969778 S    
C19   C27   1.398481 A    
C98   C99   1.405575 A    
O10   Cu4   1.969778 S    
C28   C36   1.388218 A    
C61   H13   1.083886 S    
C43   C48   1.410367 A    
O15   C8    1.296338 A    
S6    O33   1.499276 D    
C28   H4    1.085203 S    
C42   C45   1.404126 A    
C16   S8    1.791041 S    
C37   C45   1.406610 A    
O2    C2    1.292859 A    
C36   C60   1.396710 A    
O4    Cu2   1.969291 S    
C91   C92   1.418465 A    
C95   H35   1.083330 S    
O5    C3    1.289190 A    
C48   C56   1.418254 A    
O6    C4    1.294513 A    
C89   C90   1.417481 A    
O11   C6    1.291694 A    
O1    C1    1.289979 A    
C72   H24   1.079386 S    
C80   C86   1.410657 A    
C41   C49   1.417571 A    
C13   C21   1.423873 A    
C99   H39   1.083334 S    
C4    C17   1.466377 S    
C40   C64   1.396429 A    
O9    C5    1.293045 A    
O15   Cu4   1.968851 S    
S2    O21   1.502850 D    
C23   C31   1.398014 A    
S8    O40   1.681581 S    
C11   C51   1.415132 A    
C64   H16   1.084082 S    
C11   C19   1.421064 A    
C9    S1    1.790323 S    
C44   C52   1.417569 A    
C78   N4    1.367015 A    
C82   C94   1.405933 A    
C18   C26   1.403677 A    
C75   H27   1.082129 S    
C74   C84   1.408608 A    
C56   C71   1.408965 A    
C29   H5    1.084754 S    
O5    Cu2   1.973775 S    
C68   H20   1.079554 S    
C63   H15   1.084088 S    
O3    Cu1   1.969291 S    
C81   C93   1.405618 A    
C40   C48   1.406701 A    
C32   C40   1.386886 A    
O34   H46   0.990005 S    
C9    C17   1.421871 A    
Cu3   Cu4   2.665835 S    
C27   H3    1.085145 S    
C94   C95   1.405637 A    
C12   S4    1.787626 S    
C60   H12   1.084066 S    
C13   S5    1.789380 S    
C74   N2    1.367138 A    
C10   C18   1.423457 A    
O12   Cu4   1.969291 S    
C50   C65   1.406985 A    
C73   N1    1.367511 A    
C43   C51   1.417845 A    
S8    O39   1.500649 D    
C61   C65   1.390445 A    
C49   C66   1.408870 A    
Cu4   N4    2.002935 S    
C34   C58   1.398180 A    
S2    O22   1.682827 S    
