data_mof_unit_55343.cif
_audit_creation_date              2013-03-05T16:47:54-0500
_audit_creation_method            fapswitch 2.2
_symmetry_space_group_name_H-M    P1
_symmetry_Int_Tables_number       1
_space_group_crystal_system       triclinic
_cell_length_a                    10.977569
_cell_length_b                    10.892023
_cell_length_c                    9.728777
_cell_angle_alpha                 87.418817
_cell_angle_beta                  91.154869
_cell_angle_gamma                 96.462988
_cell_volume                      1154.55098172

loop_
_atom_site_label
_atom_site_type_symbol
_atom_site_description
_atom_site_fract_x
_atom_site_fract_y
_atom_site_fract_z
_atom_type_partial_charge
O1    O     O_R   0.499990 0.319640 0.618810 -0.572813
O2    O     O_R   0.500000 0.319660 0.381240 -0.481803
C1    C     C_R   0.502410 0.262074 0.503686 0.856213
O3    O     O_R   0.319640 0.500000 0.618780 -0.509808
O4    O     O_R   0.319650 0.500020 0.381210 -0.598766
C2    C     C_R   0.262288 0.497789 0.498586 0.866758
Cu1   Cu    Cu3+1 0.499990 0.499990 0.640660 1.076244
Cu2   Cu    Cu3+1 0.500010 0.500010 0.359340 1.107513
O5    O     O_R   0.500000 0.680340 0.618760 -0.536610
O6    O     O_R   0.500010 0.680360 0.381190 -0.507850
O7    O     O_R   0.680350 0.499980 0.618790 -0.549803
O8    O     O_R   0.680360 0.500000 0.381220 -0.539064
C3    C     C_R   0.488370 0.735368 0.496781 1.001076
C4    C     C_R   0.737257 0.499523 0.502163 0.910029
H1    H     H_    0.260302 0.566832 0.882314 0.251516
C5    C     C_R   0.228922 0.661459 0.064518 -0.193724
H2    H     H_    0.281078 0.746799 0.030061 0.194607
C6    C     C_R   0.174217 0.653161 0.193006 -0.103543
H3    H     H_    0.181712 0.733329 0.255910 0.198726
C7    C     C_R   0.113640 0.540072 0.241718 -0.082377
C8    C     C_R   0.108557 0.434993 0.162523 0.325057
C9    C     C_R   0.160380 0.444831 0.032863 0.677567
C10   C     C_R   0.218775 0.558701 0.982523 -0.274253
C11   C     C_R   0.934301 0.531323 0.384776 -0.127500
H4    H     H_    0.884930 0.555589 0.292340 0.185754
C12   C     C_R   0.871461 0.501407 0.506962 -0.130019
C13   C     C_R   0.938976 0.471787 0.627393 -0.076773
C14   C     C_R   0.064290 0.464403 0.618495 0.647431
C15   C     C_R   0.127549 0.496920 0.496896 -0.125911
C16   C     C_R   0.060239 0.528736 0.378354 -0.003042
C17   C     C_R   0.910769 0.552368 0.859978 0.489376
C18   C     C_R   0.867943 0.535276 0.994290 -0.298502
H5    H     H_    0.882292 0.610618 0.063464 0.182991
C19   C     C_R   0.811079 0.420226 0.040586 -0.187962
H6    H     H_    0.780418 0.405947 0.145604 0.207651
C20   C     C_R   0.797975 0.321810 0.952787 0.065125
H7    H     H_    0.761013 0.231124 0.992085 0.257464
C21   C     C_R   0.833299 0.340073 0.815349 -0.081154
H8    H     H_    0.821848 0.263087 0.747815 0.196281
C22   C     C_R   0.887678 0.456285 0.767147 0.080495
C23   C     C_R   0.431364 0.088749 0.755141 0.344998
C24   C     C_R   0.340884 0.023697 0.837438 0.591736
C25   C     C_R   0.283133 0.911043 0.796312 -0.320021
H9    H     H_    0.209465 0.863531 0.856544 0.245474
C26   C     C_R   0.326964 0.855529 0.683868 0.589152
C27   C     C_R   0.418018 0.921575 0.600081 -0.153016
C28   C     C_R   0.452537 0.048135 0.622514 -0.168437
C29   C     C_R   0.503351 0.126016 0.510660 -0.253346
C30   C     C_R   0.535422 0.070822 0.390510 0.618417
C31   C     C_R   0.520056 0.943771 0.381591 0.597776
C32   C     C_R   0.470931 0.867484 0.490478 -0.274484
C33   C     C_R   0.642099 0.693903 0.136846 0.518528
C34   C     C_R   0.684692 0.802533 0.067034 0.600328
C35   C     C_R   0.670330 0.814595 0.928029 0.183842
C36   C     C_R   0.634103 0.708687 0.854892 0.235741
C37   C     C_R   0.567230 0.598897 0.921979 -0.034004
C38   C     C_R   0.567821 0.596387 0.071785 -0.194065
N1    N     N_R   0.501190 0.501210 0.147910 -0.231488
C39   C     C_R   0.439093 0.407650 0.076404 0.750450
H10   H     H_    0.382198 0.336294 0.878231 0.238036
C40   C     C_R   0.437795 0.408992 0.929831 -0.018547
N2    N     N_R   0.501230 0.501290 0.852040 -0.206852
F1    F     F_    0.584821 0.139472 0.280972 -0.556822
Cl1   Cl    Cl    0.548917 0.175215 0.844038 -0.537078
F2    F     F_    0.314900 0.065301 0.961780 -0.531660
F3    F     F_    0.272249 0.742878 0.650224 -0.654848
F4    F     F_    0.547999 0.896084 0.262557 -0.590065
F5    F     F_    0.373661 0.312539 0.145877 -0.557587
F6    F     F_    0.686997 0.687840 0.265123 -0.586187
F7    F     F_    0.752095 0.893837 0.135237 -0.488098
Cl2   Cl    Cl    0.731887 0.957028 0.847955 -0.375432
Cl3   Cl    Cl    0.725743 0.719500 0.707494 -0.461919
Cl4   Cl    Cl    0.041679 0.288902 0.225848 -0.444990
F8    F     F_    0.160991 0.341149 0.961190 -0.542466
F9    F     F_    0.123967 0.420746 0.729441 -0.623368
Cl5   Cl    Cl    0.997743 0.693445 0.812975 -0.506295

loop_
_geom_bond_atom_site_label_1
_geom_bond_atom_site_label_2
_geom_bond_distance
_ccdc_geom_bond_type
C36   C37   1.465024 A    
C30   F1    1.359810 S    
C23   C24   1.397196 A    
C17   Cl5   1.762344 S    
Cu1   Cu2   2.736894 S    
C7    C16   1.458169 S    
C26   C27   1.413934 A    
C37   C38   1.456356 A    
Cu1   O7    1.995586 S    
C12   C13   1.418073 A    
C14   C15   1.395418 A    
C11   C12   1.393794 A    
C6    H3    1.083365 S    
C21   H8    1.083134 S    
O7    C4    1.306696 A    
C8    Cl4   1.765643 S    
C1    C29   1.481632 S    
C17   C22   1.411143 A    
C19   H6    1.081255 S    
O5    C3    1.315621 A    
C33   F6    1.334106 S    
Cu2   N1    2.056701 S    
C35   C36   1.397990 A    
C35   Cl2   1.773890 S    
C28   C29   1.431690 A    
C5    H2    1.078915 S    
C24   F2    1.357375 S    
C31   F4    1.345115 S    
C19   C20   1.393629 A    
C36   Cl3   1.760254 S    
H1    C10   1.080350 S    
C3    C32   1.471319 S    
C8    C9    1.389011 A    
O3    Cu1   1.986957 S    
C34   F7    1.360428 S    
C39   C40   1.425199 A    
C11   H4    1.078661 S    
O3    C2    1.316723 A    
N1    C39   1.369472 A    
C34   C35   1.360523 A    
C27   C32   1.407160 A    
H10   C40   1.079881 S    
O1    C1    1.310145 A    
C18   C19   1.395435 A    
C25   H9    1.078309 S    
Cu1   N2    2.056916 S    
C15   C16   1.408332 A    
C39   F5    1.354604 S    
C17   C18   1.395087 A    
C13   C22   1.477501 S    
Cu2   O8    1.986957 S    
C31   C32   1.395102 A    
C23   C28   1.414645 A    
C4    C12   1.470888 S    
C25   C26   1.392890 A    
Cu2   O6    1.985339 S    
C29   C30   1.406853 A    
O8    C4    1.321044 A    
C5    C10   1.396506 A    
C37   N2    1.410686 A    
C24   C25   1.387972 A    
C9    F8    1.354405 S    
C26   F3    1.354901 S    
C33   C34   1.376864 A    
Cu1   O5    1.966322 S    
C27   C28   1.413386 A    
C20   H7    1.080960 S    
O1    Cu1   1.985339 S    
O2    Cu2   1.966323 S    
O6    C3    1.312877 A    
O4    Cu2   1.995586 S    
C18   H5    1.080514 S    
C20   C21   1.399057 A    
O2    C1    1.322255 A    
C21   C22   1.402202 A    
C38   N1    1.392900 A    
O4    C2    1.313063 A    
C6    C7    1.399917 A    
C40   N2    1.365082 A    
C11   C16   1.388670 A    
C33   C38   1.427737 A    
C2    C15   1.477838 S    
C7    C8    1.403563 A    
C5    C6    1.392564 A    
C30   C31   1.381544 A    
C13   C14   1.391656 A    
C9    C10   1.402864 A    
C23   Cl1   1.747849 S    
C14   F9    1.347480 S    
