data_mof_unit_44631.cif
_audit_creation_date              2012-12-10T16:57:48-0500
_audit_creation_method            fapswitch 2.2
_symmetry_space_group_name_H-M    P1
_symmetry_Int_Tables_number       1
_space_group_crystal_system       triclinic
_cell_length_a                    7.750177
_cell_length_b                    8.567981
_cell_length_c                    19.168727
_cell_angle_alpha                 90.957542
_cell_angle_beta                  85.613862
_cell_angle_gamma                 93.725551
_cell_volume                      1266.36996926

loop_
_atom_site_label
_atom_site_type_symbol
_atom_type_description
_atom_site_fract_x
_atom_site_fract_y
_atom_site_fract_z
_atom_type_partial_charge
C1    C     C_R   0.545921 0.794842 0.498179 0.971159
C2    C     C_R   0.623888 0.425372 0.176416 0.000554
C3    C     C_R   0.518106 0.517260 0.854608 0.016350
C4    C     C_R   0.481892 0.482738 0.145392 0.016350
C5    C     C_R   0.658524 0.458812 0.812886 0.107485
C6    C     C_R   0.341474 0.541186 0.187114 0.107485
C7    C     C_R   0.651296 0.454387 0.740504 -0.227307
C8    C     C_R   0.348702 0.545612 0.259496 -0.227307
C9    C     C_R   0.507662 0.506566 0.709929 -0.073263
C10   C     C_R   0.492338 0.493434 0.290071 -0.073263
C11   C     C_R   0.487186 0.490941 0.069961 0.272431
C12   C     C_R   0.454079 0.205158 0.501821 0.971159
C13   C     C_R   0.512811 0.509057 0.930039 0.272431
C14   C     C_1   0.232615 0.638761 0.864807 0.153508
C15   C     C_1   0.767383 0.361238 0.135192 0.153507
C16   C     C_3   0.820686 0.407520 0.843063 -0.412532
C17   C     C_3   0.825918 0.228956 0.841710 -0.348421
C18   C     C_3   0.988387 0.178397 0.873119 -0.812491
C19   C     C_3   0.179311 0.592475 0.156937 -0.412531
C20   C     C_3   0.174074 0.771039 0.158291 -0.348422
C21   C     C_3   0.011601 0.821594 0.126883 -0.812493
C22   C     C_2   0.570144 0.958323 0.497139 -0.383791
C23   C     C_2   0.429856 0.041677 0.502861 -0.383791
C24   C     C_R   0.502086 0.501107 0.634416 0.879262
C25   C     C_R   0.497914 0.498893 0.365584 0.879263
C26   C     C_R   0.371171 0.567561 0.751449 -0.249885
C27   C     C_R   0.628828 0.432438 0.248551 -0.249886
C28   C     C_R   0.376110 0.574627 0.823584 0.000554
H1    H     H_    0.261111 0.610596 0.727694 0.161382
H2    H     H_    0.989901 0.217733 0.928610 0.275581
H3    H     H_    0.989701 0.048873 0.871074 0.257638
H4    H     H_    0.709632 0.175621 0.872085 0.247331
H5    H     H_    0.825397 0.184556 0.786898 0.219291
H6    H     H_    0.936107 0.459730 0.811706 0.203710
H7    H     H_    0.830938 0.451817 0.897452 0.225423
H8    H     H_    0.010087 0.782262 0.071392 0.275581
H9    H     H_    0.893263 0.771148 0.156895 0.258965
H10   H     H_    0.010283 0.951118 0.128930 0.257637
H11   H     H_    0.174596 0.815438 0.213103 0.219292
H12   H     H_    0.738889 0.389404 0.272306 0.161382
H13   H     H_    0.290357 0.824376 0.127916 0.247331
H14   H     H_    0.169059 0.548179 0.102548 0.225423
H15   H     H_    0.063891 0.540262 0.188295 0.203710
H16   H     H_    0.758301 0.409736 0.708047 0.160408
H17   H     H_    0.241697 0.590262 0.291954 0.160409
H18   H     H_    0.702573 0.009537 0.491684 0.179577
H19   H     H_    0.297427 0.990463 0.508316 0.179577
H20   H     H_    0.014032 0.382491 0.447468 0.190280
H21   H     H_    0.985968 0.617509 0.552532 0.190280
H22   H     H_    0.106728 0.228839 0.843108 0.258964
N1    N     N_R   0.510924 0.368252 0.961168 -0.169786
N2    N     N_R   0.489073 0.631746 0.038832 -0.169786
N3    N     N_R   0.499007 0.359288 0.030366 -0.155271
N4    N     N_R   0.500990 0.640710 0.969634 -0.155271
N5    N     N_2   0.950330 0.457950 0.481240 -0.176490
N6    N     N_2   0.049670 0.542050 0.518760 -0.176490
N7    N     N_1   0.118306 0.690530 0.897898 -0.217542
N8    N     N_1   0.881691 0.309468 0.102102 -0.217542
O1    O     O_R   0.389250 0.738570 0.504600 -0.612752
O2    O     O_R   0.610750 0.261430 0.495400 -0.612752
O3    O     O_R   0.678400 0.711620 0.492580 -0.628597
O4    O     O_R   0.321600 0.288380 0.507420 -0.628597
O5    O     O_R   0.355380 0.513500 0.607880 -0.620060
O6    O     O_R   0.644620 0.486500 0.392120 -0.620060
O7    O     O_R   0.644530 0.486550 0.595850 -0.630322
O8    O     O_R   0.355470 0.513450 0.404150 -0.630323
Zn1   Zn    Zn3+2 0.306930 0.517990 0.508030 0.938178
Zn2   Zn    Zn3+2 0.693070 0.482010 0.491970 0.938178

loop_
_geom_bond_atom_site_label_1
_geom_bond_atom_site_label_2
_ccdc_geom_bond_type
C10   C27   A    
H20   N5    S    
C2    C4    A    
N5    N6    D    
C5    C7    A    
C9    C24   S    
C14   C28   S    
C2    C27   A    
C2    C15   S    
H21   N6    S    
C12   O4    A    
C26   C28   A    
C19   C20   S    
C3    C13   S    
C19   H14   S    
C27   H12   S    
C3    C5    A    
O7    Zn2   S    
C16   H6    S    
N5    Zn2   S    
C20   H11   S    
C1    C22   S    
C21   H8    S    
C7    H16   S    
C4    C11   S    
C6    C19   S    
C12   C23   S    
O2    Zn2   S    
O8    Zn1   S    
C17   H5    S    
C24   O7    A    
C18   H2    S    
O4    Zn1   S    
C10   C25   S    
C8    C10   A    
C3    C28   A    
C22   H18   S    
N2    N4    A    
C9    C26   A    
C20   H13   S    
C24   O5    A    
C7    C9    A    
C1    O1    A    
C16   H7    S    
C17   C18   S    
C15   N8    T    
O5    Zn1   S    
C23   H19   S    
C25   O8    A    
C1    O3    A    
N6    Zn1   S    
O6    Zn2   S    
C21   H9    S    
C20   C21   S    
C18   H22   S    
C26   H1    S    
C4    C6    A    
C13   N4    A    
C12   O2    A    
C17   H4    S    
C14   N7    T    
O3    Zn2   S    
C8    H17   S    
C5    C16   S    
C6    C8    A    
C11   N2    A    
O1    Zn1   S    
C13   N1    A    
C22   C23   D    
C21   H10   S    
C18   H3    S    
C19   H15   S    
C16   C17   S    
N1    N3    A    
C25   O6    A    
C11   N3    A    
