data_mof_unit_60362.cif
_audit_creation_date              2013-03-05T16:13:17-0500
_audit_creation_method            fapswitch 2.2
_symmetry_space_group_name_H-M    P1
_symmetry_Int_Tables_number       1
_space_group_crystal_system       orthorhombic
_cell_length_a                    30.397527
_cell_length_b                    30.397532
_cell_length_c                    18.355356
_cell_angle_alpha                 90.0
_cell_angle_beta                  90.0
_cell_angle_gamma                 90.0
_cell_volume                      16960.528821

loop_
_atom_site_label
_atom_site_type_symbol
_atom_site_description
_atom_site_fract_x
_atom_site_fract_y
_atom_site_fract_z
_atom_type_partial_charge
O1    O     O_R   0.435730 0.037210 0.500000 -0.551184
O2    O     O_R   0.962790 0.435730 0.500000 -0.551183
O3    O     O_R   0.564270 0.962790 0.500000 -0.551183
O4    O     O_R   0.037210 0.564270 0.500000 -0.551185
O5    O     O_R   0.564270 0.037210 0.500000 -0.551184
O6    O     O_R   0.037210 0.435730 0.500000 -0.551184
O7    O     O_R   0.435730 0.962790 0.500000 -0.551184
O8    O     O_R   0.962790 0.564270 0.500000 -0.551184
O9    O     O_R   0.935730 0.537210 0.000000 -0.551186
O10   O     O_R   0.462790 0.935730 0.000000 -0.551184
O11   O     O_R   0.064270 0.462790 0.000000 -0.551186
O12   O     O_R   0.537210 0.064270 0.000000 -0.551184
O13   O     O_R   0.064270 0.537210 0.000000 -0.551186
O14   O     O_R   0.537210 0.935730 0.000000 -0.551185
O15   O     O_R   0.935730 0.462790 0.000000 -0.551186
O16   O     O_R   0.462790 0.064270 0.000000 -0.551183
C1    C     C_R   0.225900 0.000000 0.500000 -0.090269
C2    C     C_R   0.000000 0.225900 0.500000 -0.090269
C3    C     C_R   0.774100 1.000000 0.500000 -0.090270
C4    C     C_R   0.000000 0.774100 0.500000 -0.090269
C5    C     C_R   0.725900 0.500000 0.000000 -0.090269
C6    C     C_R   0.500000 0.725900 0.000000 -0.090270
C7    C     C_R   0.274100 0.500000 1.000000 -0.090269
C8    C     C_R   0.500000 0.274100 0.000000 -0.090269
C9    C     C_R   0.414975 1.000000 0.500000 0.910008
C10   C     C_R   0.000000 0.414975 0.500000 0.910002
C11   C     C_R   0.585024 1.000000 0.500000 0.910002
C12   C     C_R   0.000000 0.585024 0.500000 0.910010
C13   C     C_R   0.914975 0.500000 0.000000 0.910014
C14   C     C_R   0.500000 0.914975 0.000000 0.910010
C15   C     C_R   0.085025 0.500000 0.000000 0.910015
C16   C     C_R   0.500000 0.085025 0.000000 0.910001
O17   O     O_R   0.500010 0.037210 0.394200 -0.556805
O18   O     O_R   0.962790 0.500010 0.394200 -0.556804
O19   O     O_R   0.499990 0.962790 0.394200 -0.556804
O20   O     O_R   0.037210 0.499990 0.394200 -0.556804
O21   O     O_R   0.499990 0.037210 0.605800 -0.556806
O22   O     O_R   0.037210 0.500010 0.605800 -0.556805
O23   O     O_R   0.500010 0.962790 0.605800 -0.556804
O24   O     O_R   0.962790 0.499990 0.605800 -0.556804
O25   O     O_R   0.000010 0.537210 0.894200 -0.556805
O26   O     O_R   0.462790 0.000010 0.894200 -0.556804
O27   O     O_R   0.999990 0.462790 0.894200 -0.556806
O28   O     O_R   0.537210 0.999990 0.894200 -0.556806
O29   O     O_R   0.999990 0.537210 0.105800 -0.556805
O30   O     O_R   0.537210 0.000010 0.105800 -0.556805
O31   O     O_R   0.000010 0.462790 0.105800 -0.556806
O32   O     O_R   0.462790 0.999990 0.105800 -0.556805
C17   C     C_R   0.500000 0.000000 0.360213 0.859241
C18   C     C_R   0.000000 0.500000 0.360213 0.859242
C19   C     C_R   0.500000 1.000000 0.639787 0.859241
C20   C     C_R   0.000000 0.500000 0.639787 0.859241
C21   C     C_R   0.000000 0.500000 0.860213 0.859252
C22   C     C_R   0.500000 0.000000 0.860213 0.859242
C23   C     C_R   0.000000 0.500000 0.139787 0.859251
C24   C     C_R   0.500000 0.000000 0.139787 0.859242
Cu1   Cu    Cu3+1 0.500000 0.044060 0.500000 1.197005
Cu2   Cu    Cu3+1 0.955940 0.500000 0.500000 1.197008
Cu3   Cu    Cu3+1 0.500000 0.955940 0.500000 1.197008
Cu4   Cu    Cu3+1 0.044060 0.500000 0.500000 1.197008
Cu5   Cu    Cu3+1 0.000000 0.544060 0.000000 1.197004
Cu6   Cu    Cu3+1 0.455940 0.000000 0.000000 1.197007
Cu7   Cu    Cu3+1 0.000000 0.455940 0.000000 1.197003
Cu8   Cu    Cu3+1 0.544060 0.000000 0.000000 1.197005
O33   O     O_R   0.999990 0.935750 0.438770 -0.546012
O34   O     O_R   0.064250 0.999990 0.438770 -0.546013
O35   O     O_R   0.000010 0.064250 0.438770 -0.546013
O36   O     O_R   0.935750 0.000010 0.438770 -0.546012
O37   O     O_R   0.000010 0.935750 0.561230 -0.546013
O38   O     O_R   0.935750 0.999990 0.561230 -0.546013
O39   O     O_R   0.999990 0.064250 0.561230 -0.546013
O40   O     O_R   0.064250 0.000010 0.561230 -0.546013
O41   O     O_R   0.499990 0.435750 0.938770 -0.546012
O42   O     O_R   0.564250 0.499990 0.938770 -0.546013
O43   O     O_R   0.500010 0.564250 0.938770 -0.546013
O44   O     O_R   0.435750 0.500010 0.938770 -0.546013
O45   O     O_R   0.500010 0.435750 0.061230 -0.546013
O46   O     O_R   0.435750 0.499990 0.061230 -0.546013
O47   O     O_R   0.499990 0.564250 0.061230 -0.546013
O48   O     O_R   0.564250 0.500010 0.061230 -0.546013
C25   C     C_R   0.000000 0.914878 0.500000 0.933628
C26   C     C_R   0.085122 1.000000 0.500000 0.933627
C27   C     C_R   0.000000 0.085122 0.500000 0.933626
C28   C     C_R   0.914878 1.000000 0.500000 0.933627
C29   C     C_R   0.500000 0.414878 0.000000 0.933628
C30   C     C_R   0.585122 0.500000 0.000000 0.933627
C31   C     C_R   0.500000 0.585122 0.000000 0.933628
C32   C     C_R   0.414878 0.500000 0.000000 0.933628
C33   C     C_1   0.500000 1.000000 0.282660 -0.028137
C34   C     C_1   0.000000 0.500000 0.282660 -0.028134
C35   C     C_1   0.500000 1.000000 0.717340 -0.028137
C36   C     C_1   0.000000 0.500000 0.717340 -0.028135
C37   C     C_1   0.000000 0.500000 0.782660 -0.028129
C38   C     C_1   0.500000 0.000000 0.782660 -0.028136
C39   C     C_1   0.000000 0.500000 0.217340 -0.028129
C40   C     C_1   0.500000 0.000000 0.217340 -0.028137
C41   C     C_R   0.297240 0.028646 0.546544 0.353804
C42   C     C_R   0.971353 0.297240 0.546543 0.353803
C43   C     C_R   0.702759 0.971353 0.546543 0.353804
C44   C     C_R   0.028645 0.702759 0.546545 0.353804
C45   C     C_R   0.702759 0.028647 0.453457 0.353803
C46   C     C_R   0.028647 0.297240 0.453457 0.353804
C47   C     C_R   0.297241 0.971354 0.453456 0.353804
C48   C     C_R   0.971355 0.702759 0.453454 0.353804
C49   C     C_R   0.797241 0.528644 0.046547 0.353804
C50   C     C_R   0.471354 0.797240 0.046545 0.353805
C51   C     C_R   0.202759 0.471356 0.046547 0.353805
C52   C     C_R   0.528647 0.202760 0.046542 0.353803
C53   C     C_R   0.202759 0.528644 0.953452 0.353805
C54   C     C_R   0.528645 0.797240 0.953455 0.353805
C55   C     C_R   0.797241 0.471356 0.953453 0.353803
C56   C     C_R   0.471353 0.202760 0.953458 0.353803
C57   C     C_R   0.343399 0.028640 0.546992 0.215036
C58   C     C_R   0.971358 0.343399 0.546991 0.215036
C59   C     C_R   0.656601 0.971358 0.546991 0.215035
C60   C     C_R   0.028640 0.656601 0.546993 0.215035
C61   C     C_R   0.656601 0.028642 0.453009 0.215036
C62   C     C_R   0.028642 0.343399 0.453009 0.215035
C63   C     C_R   0.343399 0.971359 0.453008 0.215036
C64   C     C_R   0.971360 0.656601 0.453007 0.215035
C65   C     C_R   0.843399 0.528639 0.046995 0.215035
C66   C     C_R   0.471360 0.843399 0.046993 0.215035
C67   C     C_R   0.156601 0.471361 0.046996 0.215034
C68   C     C_R   0.528642 0.156601 0.046990 0.215037
C69   C     C_R   0.156601 0.528639 0.953004 0.215034
C70   C     C_R   0.528640 0.843399 0.953007 0.215034
C71   C     C_R   0.843399 0.471361 0.953005 0.215036
C72   C     C_R   0.471358 0.156601 0.953010 0.215036
C73   C     C_R   0.366595 0.000000 0.500000 -0.351549
C74   C     C_R   0.000000 0.366594 0.500000 -0.351549
C75   C     C_R   0.633405 1.000000 0.500000 -0.351550
C76   C     C_R   0.000000 0.633405 0.500000 -0.351548
C77   C     C_R   0.866595 0.500000 1.000000 -0.351547
C78   C     C_R   0.500000 0.866595 0.000000 -0.351548
C79   C     C_R   0.133405 0.500000 1.000000 -0.351546
C80   C     C_R   0.500000 0.133405 0.000000 -0.351550
Cu9   Cu    Cu3+1 0.000000 0.000000 0.427490 1.250728
Cu10  Cu    Cu3+1 0.000000 0.000000 0.572510 1.250728
Cu11  Cu    Cu3+1 0.500000 0.500000 0.927490 1.250728
Cu12  Cu    Cu3+1 0.500000 0.500000 0.072510 1.250728
C81   C     C_R   0.274321 0.000000 0.500000 -0.091458
C82   C     C_R   0.000000 0.274321 0.500000 -0.091458
C83   C     C_R   0.725679 1.000000 0.500000 -0.091458
C84   C     C_R   1.000000 0.725679 0.500000 -0.091458
C85   C     C_R   0.774321 0.500000 0.000000 -0.091458
C86   C     C_R   0.500000 0.774321 0.000000 -0.091459
C87   C     C_R   0.225679 0.500000 1.000000 -0.091459
C88   C     C_R   0.500000 0.225679 0.000000 -0.091458
C89   C     C_R   0.202983 0.026215 0.449726 0.357110
C90   C     C_R   0.973785 0.202983 0.449726 0.357110
C91   C     C_R   0.797017 0.973785 0.449726 0.357110
C92   C     C_R   0.026215 0.797017 0.449727 0.357110
C93   C     C_R   0.797017 0.026215 0.550274 0.357111
C94   C     C_R   0.026215 0.202983 0.550274 0.357110
C95   C     C_R   0.202983 0.973785 0.550273 0.357110
C96   C     C_R   0.973784 0.797017 0.550273 0.357110
C97   C     C_R   0.702983 0.526216 0.949727 0.357110
C98   C     C_R   0.473785 0.702983 0.949726 0.357110
C99   C     C_R   0.297016 0.473784 0.949727 0.357110
C100  C     C_R   0.526215 0.297016 0.949726 0.357110
C101  C     C_R   0.297016 0.526216 0.050273 0.357110
C102  C     C_R   0.526215 0.702983 0.050274 0.357110
C103  C     C_R   0.702983 0.473784 0.050273 0.357110
C104  C     C_R   0.473785 0.297016 0.050274 0.357110
C105  C     C_R   0.156832 0.026265 0.449324 0.229064
C106  C     C_R   0.973735 0.156832 0.449324 0.229065
C107  C     C_R   0.843167 0.973735 0.449324 0.229065
C108  C     C_R   0.026265 0.843167 0.449324 0.229064
C109  C     C_R   0.843167 0.026264 0.550676 0.229064
C110  C     C_R   0.026264 0.156832 0.550676 0.229065
C111  C     C_R   0.156832 0.973735 0.550676 0.229065
C112  C     C_R   0.973735 0.843167 0.550675 0.229064
C113  C     C_R   0.656832 0.526265 0.949325 0.229065
C114  C     C_R   0.473735 0.656833 0.949324 0.229065
C115  C     C_R   0.343167 0.473735 0.949325 0.229064
C116  C     C_R   0.526264 0.343167 0.949323 0.229065
C117  C     C_R   0.343168 0.526265 0.050675 0.229064
C118  C     C_R   0.526265 0.656833 0.050676 0.229065
C119  C     C_R   0.656832 0.473735 0.050675 0.229064
C120  C     C_R   0.473736 0.343167 0.050677 0.229065
C121  C     C_R   0.133563 1.000000 0.500000 -0.328309
C122  C     C_R   0.000000 0.133563 0.500000 -0.328309
C123  C     C_R   0.866437 0.000000 0.500000 -0.328309
C124  C     C_R   0.000000 0.866437 0.500000 -0.328309
C125  C     C_R   0.633563 0.500000 1.000000 -0.328309
C126  C     C_R   0.500000 0.633563 0.000000 -0.328308
C127  C     C_R   0.366437 0.500000 0.000000 -0.328309
C128  C     C_R   0.500000 0.366437 0.000000 -0.328308
Cl1   Cl    Cl    0.267911 0.063345 0.606778 -0.341704
Cl2   Cl    Cl    0.936652 0.267911 0.606774 -0.341704
Cl3   Cl    Cl    0.732089 0.936652 0.606774 -0.341704
Cl4   Cl    Cl    0.063344 0.732089 0.606780 -0.341704
Cl5   Cl    Cl    0.732089 0.063348 0.393226 -0.341703
Cl6   Cl    Cl    0.063348 0.267911 0.393226 -0.341705
Cl7   Cl    Cl    0.267911 0.936655 0.393222 -0.341704
Cl8   Cl    Cl    0.936656 0.732089 0.393220 -0.341704
Cl9   Cl    Cl    0.767911 0.563342 0.106784 -0.341704
Cl10  Cl    Cl    0.436656 0.767911 0.106780 -0.341703
Cl11  Cl    Cl    0.232089 0.436659 0.106785 -0.341704
Cl12  Cl    Cl    0.563348 0.232089 0.106773 -0.341703
Cl13  Cl    Cl    0.232089 0.563341 0.893215 -0.341704
Cl14  Cl    Cl    0.563344 0.767911 0.893220 -0.341703
Cl15  Cl    Cl    0.767911 0.436658 0.893216 -0.341703
Cl16  Cl    Cl    0.436652 0.232089 0.893227 -0.341703
N1    N     N_R   0.366595 0.056427 0.597275 0.185144
O49   O     O_R   0.360266 0.098755 0.596837 -0.192244
O50   O     O_R   0.393815 0.039406 0.644162 -0.321267
N2    N     N_R   0.943571 0.366595 0.597271 0.185146
O51   O     O_R   0.901243 0.360267 0.596829 -0.192245
O52   O     O_R   0.960591 0.393814 0.644160 -0.321262
N3    N     N_R   0.633405 0.943571 0.597272 0.185145
O53   O     O_R   0.639733 0.901243 0.596830 -0.192244
O54   O     O_R   0.606186 0.960591 0.644160 -0.321262
N4    N     N_R   0.056426 0.633405 0.597277 0.185143
O55   O     O_R   0.098753 0.639734 0.596840 -0.192243
O56   O     O_R   0.039404 0.606185 0.644163 -0.321269
N5    N     N_R   0.633405 0.056429 0.402728 0.185145
O57   O     O_R   0.639733 0.098757 0.403170 -0.192245
O58   O     O_R   0.606186 0.039409 0.355840 -0.321262
N6    N     N_R   0.056429 0.366595 0.402728 0.185145
O59   O     O_R   0.098757 0.360266 0.403170 -0.192244
O60   O     O_R   0.039409 0.393814 0.355840 -0.321262
N7    N     N_R   0.366595 0.943573 0.402725 0.185144
O61   O     O_R   0.360266 0.901245 0.403163 -0.192243
O62   O     O_R   0.393815 0.960594 0.355838 -0.321266
N8    N     N_R   0.943574 0.633405 0.402723 0.185144
O63   O     O_R   0.901247 0.639734 0.403158 -0.192242
O64   O     O_R   0.960596 0.606185 0.355837 -0.321270
N9    N     N_R   0.866595 0.556424 0.097280 0.185142
O65   O     O_R   0.860265 0.598751 0.096848 -0.192242
O66   O     O_R   0.893816 0.539401 0.144164 -0.321275
N10   N     N_R   0.443574 0.866595 0.097277 0.185144
O67   O     O_R   0.401246 0.860266 0.096841 -0.192243
O68   O     O_R   0.460596 0.893815 0.144162 -0.321269
N11   N     N_R   0.133404 0.443577 0.097281 0.185142
O69   O     O_R   0.139735 0.401249 0.096850 -0.192242
O70   O     O_R   0.106184 0.460600 0.144165 -0.321277
N12   N     N_R   0.556430 0.133405 0.097271 0.185145
O71   O     O_R   0.598757 0.139733 0.096828 -0.192245
O72   O     O_R   0.539410 0.106186 0.144160 -0.321261
N13   N     N_R   0.133404 0.556423 0.902718 0.185142
O73   O     O_R   0.139735 0.598751 0.903150 -0.192241
O74   O     O_R   0.106184 0.539400 0.855835 -0.321277
N14   N     N_R   0.556426 0.866595 0.902723 0.185144
O75   O     O_R   0.598754 0.860266 0.903159 -0.192243
O76   O     O_R   0.539404 0.893815 0.855837 -0.321269
N15   N     N_R   0.866595 0.443576 0.902719 0.185142
O77   O     O_R   0.860265 0.401249 0.903151 -0.192242
O78   O     O_R   0.893816 0.460599 0.855836 -0.321276
N16   N     N_R   0.443570 0.133405 0.902729 0.185146
O79   O     O_R   0.401243 0.139733 0.903172 -0.192245
O80   O     O_R   0.460590 0.106186 0.855840 -0.321261
Cl17  Cl    Cl    0.232295 0.060702 0.389134 -0.355124
Cl18  Cl    Cl    0.939299 0.232295 0.389133 -0.355124
Cl19  Cl    Cl    0.767705 0.939299 0.389133 -0.355124
Cl20  Cl    Cl    0.060702 0.767705 0.389135 -0.355124
Cl21  Cl    Cl    0.767705 0.060701 0.610867 -0.355125
Cl22  Cl    Cl    0.060701 0.232295 0.610867 -0.355125
Cl23  Cl    Cl    0.232295 0.939298 0.610866 -0.355124
Cl24  Cl    Cl    0.939298 0.767705 0.610865 -0.355124
Cl25  Cl    Cl    0.732295 0.560703 0.889136 -0.355123
Cl26  Cl    Cl    0.439299 0.732295 0.889134 -0.355124
Cl27  Cl    Cl    0.267705 0.439297 0.889136 -0.355123
Cl28  Cl    Cl    0.560700 0.267705 0.889132 -0.355125
Cl29  Cl    Cl    0.267705 0.560703 0.110863 -0.355123
Cl30  Cl    Cl    0.560701 0.732295 0.110866 -0.355124
Cl31  Cl    Cl    0.732295 0.439297 0.110864 -0.355123
Cl32  Cl    Cl    0.439300 0.267705 0.110868 -0.355124
N17   N     N_R   0.133785 0.054189 0.399063 0.186269
O81   O     O_R   0.106884 0.084194 0.422927 -0.284954
O82   O     O_R   0.140245 0.050229 0.329305 -0.194897
N18   N     N_R   0.945811 0.133785 0.399063 0.186269
O83   O     O_R   0.915806 0.106884 0.422926 -0.284953
O84   O     O_R   0.949772 0.140245 0.329305 -0.194898
N19   N     N_R   0.866215 0.945812 0.399062 0.186269
O85   O     O_R   0.893116 0.915807 0.422926 -0.284953
O86   O     O_R   0.859754 0.949772 0.329305 -0.194897
N20   N     N_R   0.054189 0.866215 0.399063 0.186269
O87   O     O_R   0.084194 0.893116 0.422927 -0.284954
O88   O     O_R   0.050229 0.859754 0.329306 -0.194897
N21   N     N_R   0.866215 0.054188 0.600937 0.186269
O89   O     O_R   0.893116 0.084193 0.577074 -0.284954
O90   O     O_R   0.859754 0.050228 0.670695 -0.194897
N22   N     N_R   0.054188 0.133785 0.600937 0.186269
O91   O     O_R   0.084193 0.106884 0.577074 -0.284954
O92   O     O_R   0.050228 0.140245 0.670695 -0.194898
N23   N     N_R   0.133785 0.945811 0.600937 0.186269
O93   O     O_R   0.106884 0.915806 0.577074 -0.284954
O94   O     O_R   0.140246 0.949772 0.670695 -0.194897
N24   N     N_R   0.945811 0.866215 0.600936 0.186268
O95   O     O_R   0.915806 0.893116 0.577073 -0.284954
O96   O     O_R   0.949771 0.859754 0.670694 -0.194897
N25   N     N_R   0.633785 0.554190 0.899064 0.186269
O97   O     O_R   0.606884 0.584194 0.922928 -0.284956
O98   O     O_R   0.640246 0.550230 0.829306 -0.194896
N26   N     N_R   0.445812 0.633785 0.899062 0.186269
O99   O     O_R   0.415807 0.606884 0.922925 -0.284952
O100  O     O_R   0.449772 0.640246 0.829305 -0.194897
N27   N     N_R   0.366215 0.445810 0.899065 0.186268
O101  O     O_R   0.393116 0.415806 0.922929 -0.284956
O102  O     O_R   0.359754 0.449769 0.829307 -0.194896
N28   N     N_R   0.554188 0.366215 0.899061 0.186269
O103  O     O_R   0.584193 0.393116 0.922924 -0.284951
O104  O     O_R   0.550226 0.359754 0.829304 -0.194897
N29   N     N_R   0.366215 0.554190 0.100935 0.186268
O105  O     O_R   0.393116 0.584194 0.077071 -0.284956
O106  O     O_R   0.359754 0.550230 0.170693 -0.194896
N30   N     N_R   0.554188 0.633785 0.100938 0.186268
O107  O     O_R   0.584193 0.606884 0.077075 -0.284953
O108  O     O_R   0.550228 0.640246 0.170695 -0.194896
N31   N     N_R   0.633785 0.445810 0.100935 0.186269
O109  O     O_R   0.606884 0.415806 0.077071 -0.284956
O110  O     O_R   0.640246 0.449770 0.170693 -0.194896
N32   N     N_R   0.445812 0.366215 0.100939 0.186269
O111  O     O_R   0.415807 0.393116 0.077076 -0.284951
O112  O     O_R   0.449773 0.359754 0.170696 -0.194897

loop_
_geom_bond_atom_site_label_1
_geom_bond_atom_site_label_2
_geom_bond_distance
_ccdc_geom_bond_type
C13   C77   1.470657 S    
C5    C103  1.404214 A    
N11   O70   1.301144 A    
C4    C84   1.471876 S    
C97   Cl25  1.769116 S    
N7    O61   1.300987 A    
O25   Cu5   1.953129 S    
C42   Cl2   1.769116 S    
C93   Cl21  1.769114 S    
O47   C31   1.290617 A    
C108  N20   1.436113 S    
C34   C39   1.198977 T    
C53   C87   1.404826 A    
O28   Cu8   1.953129 S    
C26   C121  1.472481 S    
C43   C83   1.404822 A    
N22   O91   1.300936 A    
C90   Cl18  1.769116 S    
N16   O80   1.301142 A    
N14   O75   1.300988 A    
C94   C110  1.402897 A    
Cu5   Cu7   2.678627 S    
O48   C30   1.290617 A    
C18   C34   1.423518 S    
N18   O83   1.300934 A    
C115  N27   1.436113 S    
N23   O94   1.300981 A    
C61   N5    1.436115 S    
O38   C28   1.290617 A    
C10   C74   1.470660 S    
O33   Cu9   1.963986 S    
C69   C79   1.413893 A    
C29   C128  1.472481 S    
C49   Cl9   1.769119 S    
C58   C74   1.413894 A    
O13   Cu5   1.964711 S    
C8    C104  1.404212 A    
C52   C68   1.403138 A    
C46   Cl6   1.769114 S    
O7    Cu3   1.964714 S    
C116  C128  1.415259 A    
C31   C126  1.472481 S    
N18   O84   1.300983 A    
N12   O72   1.301142 A    
O24   Cu2   1.953127 S    
O27   Cu7   1.953129 S    
C44   C84   1.404822 A    
C55   Cl15  1.769119 S    
C92   Cl20  1.769116 S    
C36   C37   1.198977 T    
N32   O111  1.300938 A    
C118  N30   1.436113 S    
N9    O65   1.300990 A    
O34   C26   1.290618 A    
O10   C14   1.295143 A    
O14   Cu8   1.964714 S    
C63   N7    1.436115 S    
O2    C10   1.295143 A    
C105  N17   1.436116 S    
C60   N4    1.436115 S    
N26   O99   1.300938 A    
O38   Cu10  1.963985 S    
N17   O82   1.300980 A    
C70   N14   1.436120 S    
C3    C93   1.404213 A    
Cu1   Cu3   2.678627 S    
C56   Cl16  1.769117 S    
C101  C117  1.402900 A    
C1    C95   1.404213 A    
O20   C18   1.291719 A    
C111  C121  1.415261 A    
C117  C127  1.415260 A    
Cu11  Cu12  2.661892 S    
C54   Cl14  1.769117 S    
C33   C40   1.198977 T    
C35   C38   1.198977 T    
O31   Cu7   1.953127 S    
C112  N24   1.436112 S    
C91   C107  1.402896 A    
C116  N28   1.436113 S    
C42   C58   1.403138 A    
C118  C126  1.415261 A    
C70   C78   1.413895 A    
C30   C125  1.472481 S    
O18   Cu2   1.953129 S    
C2    C90   1.404213 A    
Cu2   Cu4   2.678627 S    
O21   Cu1   1.953127 S    
C52   C88   1.404821 A    
O23   C19   1.291722 A    
O35   C27   1.290618 A    
C106  C122  1.415262 A    
O45   Cu12  1.963986 S    
C113  C125  1.415259 A    
O9    Cu5   1.964714 S    
O19   Cu3   1.953129 S    
C119  N31   1.436114 S    
O12   Cu8   1.964711 S    
N4    O56   1.301143 A    
C89   Cl17  1.769118 S    
C90   C106  1.402897 A    
C95   Cl23  1.769116 S    
N13   O73   1.300988 A    
C66   C78   1.413897 A    
O5    C11   1.295141 A    
C6    C86   1.471876 S    
C101  Cl29  1.769116 S    
C98   Cl26  1.769116 S    
C7    C99   1.404213 A    
O19   C17   1.291722 A    
C3    C91   1.404213 A    
O26   Cu6   1.953129 S    
C109  N21   1.436113 S    
C94   Cl22  1.769116 S    
O8    Cu2   1.964711 S    
O40   Cu10  1.963982 S    
O45   C29   1.290617 A    
C42   C82   1.404822 A    
C50   C66   1.403138 A    
C44   Cl4   1.769117 S    
C47   C81   1.404823 A    
N6    O59   1.300985 A    
N30   O108  1.300982 A    
O39   C27   1.290617 A    
N1    O50   1.301141 A    
N28   O104  1.300982 A    
C65   N9    1.436117 S    
C89   C105  1.402896 A    
O41   Cu11  1.963986 S    
N5    O57   1.300984 A    
C113  N25   1.436114 S    
C96   C112  1.402897 A    
C67   C79   1.413895 A    
C12   C76   1.470657 S    
C57   N1    1.436115 S    
C110  N22   1.436114 S    
N25   O97   1.300935 A    
O1    Cu1   1.964714 S    
C68   N12   1.436114 S    
O32   Cu6   1.953127 S    
C60   C76   1.413894 A    
O41   C29   1.290618 A    
O4    Cu4   1.964711 S    
O25   C21   1.291719 A    
C54   C70   1.403138 A    
O22   Cu4   1.953127 S    
O43   C31   1.290618 A    
N22   O92   1.300982 A    
N31   O110  1.300981 A    
C62   N6    1.436117 S    
C64   N8    1.436119 S    
O44   Cu11  1.963985 S    
O37   Cu10  1.963986 S    
C98   C114  1.402897 A    
N7    O62   1.301141 A    
O16   C16   1.295143 A    
C59   N3    1.436117 S    
O3    C11   1.295143 A    
O43   Cu11  1.963983 S    
C51   Cl11  1.769118 S    
O6    C10   1.295141 A    
C63   C73   1.413895 A    
N14   O76   1.301144 A    
O35   Cu9   1.963983 S    
N29   O106  1.300982 A    
C102  C118  1.402897 A    
C115  C127  1.415260 A    
O28   C22   1.291719 A    
O29   C23   1.291719 A    
C99   Cl27  1.769117 S    
N8    O63   1.300986 A    
O17   C17   1.291719 A    
O30   C24   1.291719 A    
C100  Cl28  1.769117 S    
N20   O87   1.300937 A    
C46   C82   1.404822 A    
C25   C124  1.472481 S    
C54   C86   1.404824 A    
N19   O85   1.300935 A    
C44   C60   1.403138 A    
C51   C67   1.403137 A    
C104  Cl32  1.769117 S    
C114  N26   1.436114 S    
C91   Cl19  1.769117 S    
C111  N23   1.436113 S    
C72   C80   1.413896 A    
C43   C59   1.403137 A    
C6    C102  1.404210 A    
N32   O112  1.300981 A    
C1    C81   1.471879 S    
N24   O95   1.300940 A    
C120  C128  1.415260 A    
C19   C35   1.423518 S    
O27   C21   1.291722 A    
C32   C127  1.472481 S    
N2    O51   1.300984 A    
C3    C83   1.471876 S    
N11   O69   1.300987 A    
Cu6   Cu8   2.678627 S    
C104  C120  1.402897 A    
C50   Cl10  1.769117 S    
N26   O100  1.300981 A    
O47   Cu12  1.963983 S    
N17   O81   1.300935 A    
O36   Cu9   1.963985 S    
O10   Cu6   1.964714 S    
C47   Cl7   1.769115 S    
C92   C108  1.402897 A    
C45   Cl5   1.769117 S    
O15   C13   1.295143 A    
O39   Cu10  1.963983 S    
N15   O78   1.301144 A    
C47   C63   1.403137 A    
C68   C80   1.413893 A    
O36   C28   1.290618 A    
C15   C79   1.470657 S    
C16   C80   1.470660 S    
C6    C98   1.404213 A    
N16   O79   1.300984 A    
O48   Cu12  1.963982 S    
C7    C87   1.471879 S    
C102  Cl30  1.769116 S    
C72   N16   1.436115 S    
C4    C92   1.404214 A    
C5    C85   1.471876 S    
N27   O101  1.300937 A    
C62   C74   1.413893 A    
C51   C87   1.404824 A    
O33   C25   1.290618 A    
N3    O53   1.300988 A    
O23   Cu3   1.953127 S    
C48   Cl8   1.769118 S    
C41   C81   1.404822 A    
C67   N11   1.436118 S    
C20   C36   1.423518 S    
N21   O90   1.300983 A    
C110  C122  1.415259 A    
Cu9   Cu10  2.661892 S    
O46   C32   1.290617 A    
C24   C40   1.423518 S    
N12   O71   1.300987 A    
C103  Cl31  1.769118 S    
C106  N18   1.436114 S    
O13   C15   1.295141 A    
C71   C77   1.413896 A    
O46   Cu12  1.963985 S    
O2    Cu2   1.964714 S    
C119  C125  1.415261 A    
C66   N10   1.436119 S    
O11   Cu7   1.964711 S    
O7    C9    1.295143 A    
O5    Cu1   1.964711 S    
C45   C61   1.403137 A    
C53   Cl13  1.769117 S    
N9    O66   1.301144 A    
O26   C22   1.291722 A    
C43   Cl3   1.769116 S    
O29   Cu5   1.953127 S    
N10   O67   1.300988 A    
C58   N2    1.436116 S    
C56   C72   1.403138 A    
O37   C25   1.290617 A    
N29   O105  1.300937 A    
C93   C109  1.402896 A    
C103  C119  1.402897 A    
C97   C113  1.402897 A    
C48   C64   1.403138 A    
N31   O109  1.300937 A    
C11   C75   1.470660 S    
C9    C73   1.470657 S    
N6    O60   1.301142 A    
C59   C75   1.413894 A    
N1    O49   1.300987 A    
C57   C73   1.413894 A    
N19   O86   1.300981 A    
C55   C85   1.404824 A    
O21   C19   1.291719 A    
O22   C20   1.291719 A    
C109  C123  1.415260 A    
C107  C123  1.415259 A    
N23   O93   1.300936 A    
C108  C124  1.415259 A    
C48   C84   1.404823 A    
C69   N13   1.436119 S    
O44   C32   1.290618 A    
C117  N29   1.436113 S    
C46   C62   1.403138 A    
O9    C13   1.295141 A    
C49   C85   1.404825 A    
C99   C115  1.402897 A    
O12   C16   1.295141 A    
O1    C9    1.295141 A    
C100  C116  1.402897 A    
O16   Cu6   1.964711 S    
O14   C14   1.295141 A    
C61   C75   1.413894 A    
N10   O68   1.301142 A    
O4    C12   1.295141 A    
O18   C18   1.291722 A    
C21   C37   1.423518 S    
O6    Cu4   1.964714 S    
C2    C82   1.471876 S    
C23   C39   1.423518 S    
C8    C88   1.471876 S    
C107  N19   1.436114 S    
N4    O55   1.300987 A    
C14   C78   1.470657 S    
N21   O89   1.300936 A    
O24   C20   1.291722 A    
C56   C88   1.404823 A    
C27   C122  1.472481 S    
O30   Cu8   1.953127 S    
N13   O74   1.301143 A    
C52   Cl12  1.769116 S    
C96   Cl24  1.769116 S    
C112  C124  1.415260 A    
C49   C65   1.403137 A    
O42   C30   1.290618 A    
N27   O102  1.300983 A    
C53   C69   1.403137 A    
N3    O54   1.301142 A    
N8    O64   1.301143 A    
C55   C71   1.403137 A    
N20   O88   1.300982 A    
C41   C57   1.403137 A    
N30   O107  1.300938 A    
O31   C23   1.291722 A    
O32   C24   1.291722 A    
N28   O103  1.300936 A    
O17   Cu1   1.953129 S    
C4    C96   1.404214 A    
C64   C76   1.413896 A    
C5    C97   1.404214 A    
C28   C123  1.472481 S    
C1    C89   1.404210 A    
C17   C33   1.423518 S    
O20   Cu4   1.953129 S    
C2    C94   1.404213 A    
N15   O77   1.300988 A    
C8    C100  1.404212 A    
N5    O58   1.301143 A    
O42   Cu11  1.963982 S    
C50   C86   1.404825 A    
C105  C121  1.415259 A    
N25   O98   1.300982 A    
C114  C126  1.415263 A    
C45   C83   1.404821 A    
O34   Cu9   1.963982 S    
C120  N32   1.436113 S    
O8    C12   1.295143 A    
C41   Cl1   1.769115 S    
N24   O96   1.300982 A    
C22   C38   1.423518 S    
O11   C15   1.295143 A    
C95   C111  1.402897 A    
C71   N15   1.436116 S    
N2    O52   1.301141 A    
O15   Cu7   1.964714 S    
C65   C77   1.413894 A    
O40   C26   1.290617 A    
C7    C101  1.404213 A    
O3    Cu3   1.964711 S    
