data_mof_unit_24093.cif
_audit_creation_date              2013-03-05T15:42:46-0500
_audit_creation_method            fapswitch 2.2
_symmetry_space_group_name_H-M    P1
_symmetry_Int_Tables_number       1
_space_group_crystal_system       triclinic
_cell_length_a                    9.699667
_cell_length_b                    10.934921
_cell_length_c                    13.349619
_cell_angle_alpha                 90.049933
_cell_angle_beta                  72.325176
_cell_angle_gamma                 90.03162
_cell_volume                      1349.0890659

loop_
_atom_site_label
_atom_site_type_symbol
_atom_site_description
_atom_site_fract_x
_atom_site_fract_y
_atom_site_fract_z
_atom_type_partial_charge
O1    O     O_R   0.382960 0.678040 0.499980 -0.575044
O2    O     O_R   0.617100 0.678080 0.500020 -0.572528
C1    C     C_R   0.499425 0.734628 0.501312 0.847595
O3    O     O_R   0.325800 0.499940 0.650950 -0.581679
O4    O     O_R   0.559930 0.499980 0.650990 -0.590140
C2    C     C_R   0.422128 0.496866 0.700562 0.779890
Cu1   Cu    Cu3+1 0.361370 0.499980 0.499980 0.991058
Cu2   Cu    Cu3+1 0.638630 0.500020 0.500020 1.003503
O5    O     O_R   0.382900 0.321920 0.499980 -0.576512
O6    O     O_R   0.617040 0.321960 0.500020 -0.576248
O7    O     O_R   0.440070 0.500020 0.349010 -0.545265
O8    O     O_R   0.674200 0.500060 0.349050 -0.516795
C3    C     C_R   0.500465 0.265369 0.498628 0.842637
C4    C     C_R   0.578047 0.494221 0.299652 0.835285
C5    C     C_R   0.750588 0.341273 0.037424 -0.244157
H1    H     H_    0.755862 0.268004 0.846596 0.145504
H2    H     H_    0.839411 0.280239 0.999980 0.174233
C6    C     C_R   0.622505 0.467254 0.186328 -0.183926
C7    C     C_R   0.244823 0.558508 0.868381 -0.267345
C8    C     C_R   0.200135 0.569867 0.977034 -0.166316
C9    C     C_R   0.286999 0.527649 0.036368 0.332203
C10   C     C_R   0.425778 0.476450 0.984051 -0.023622
C11   C     C_R   0.459374 0.447976 0.875405 0.045731
C12   C     C_R   0.532430 0.451175 0.034792 0.101273
C13   C     C_R   0.650478 0.373641 0.985434 0.096747
C14   C     C_R   0.667785 0.329491 0.884455 -0.200213
C15   C     C_R   0.575550 0.368056 0.829243 -0.168904
C16   C     C_R   0.529218 0.505335 0.130751 -0.215248
C17   C     C_R   0.736096 0.385070 0.138536 0.325628
C18   C     C_R   0.373774 0.497762 0.816395 -0.094151
H3    H     H_    0.452591 0.576759 0.165054 0.192339
H4    H     H_    0.177096 0.596420 0.824832 0.169328
H5    H     H_    0.095285 0.609910 0.015586 0.189895
H6    H     H_    0.594069 0.331242 0.751102 0.160368
C19   C     C_2   0.612179 0.067061 0.502315 -0.129661
C20   C     C_2   0.500480 0.133390 0.493210 -0.291479
H7    H     H_    0.707376 0.111822 0.511959 0.174230
H8    H     H_    0.406426 0.092330 0.479359 0.154524
C21   C     C_2   0.614157 0.933096 0.497711 -0.138893
C22   C     C_2   0.494932 0.866619 0.506642 -0.312372
H9    H     H_    0.717376 0.888462 0.488293 0.178197
C23   C     C_2   0.051465 0.566967 0.563450 -0.056382
N1    N     N_2   0.152660 0.501340 0.501130 -0.265891
H10   H     H_    0.078926 0.624739 0.620695 0.143308
H11   H     H_    0.129138 0.448974 0.444675 0.239233
C24   C     C_2   0.896751 0.569728 0.561237 -0.051372
N2    N     N_2   0.846520 0.501370 0.501160 -0.262062
H12   H     H_    0.823347 0.632656 0.614367 0.149775
N3    N     N_R   0.834114 0.341580 0.192039 0.123498
O9    O     O_R   0.917748 0.418536 0.220057 -0.283386
O10   O     O_R   0.862187 0.225231 0.192014 -0.348099
H13   H     H_    0.389328 0.907568 0.520299 0.150032
H14   H     H_    0.913712 0.439041 0.452710 0.235707
N4    N     N_R   0.223907 0.522661 0.148536 0.120830
O11   O     O_R   0.231174 0.422360 0.199151 -0.320193
O12   O     O_R   0.143032 0.611986 0.198296 -0.344668

loop_
_geom_bond_atom_site_label_1
_geom_bond_atom_site_label_2
_geom_bond_distance
_ccdc_geom_bond_type
O4    Cu2   1.926218 S    
C19   C21   1.466026 S    
C11   C18   1.415897 A    
Cu1   N1    2.019872 S    
C4    C6    1.471325 S    
C19   C20   1.340026 D    
N2    H14   1.025372 S    
Cu2   O8    1.938713 S    
C7    C8    1.387498 A    
C20   H8    1.081617 S    
O2    C1    1.293930 A    
Cu2   N2    2.021182 S    
Cu1   Cu2   2.689492 S    
C21   H9    1.086460 S    
C6    C17   1.414869 A    
C22   H13   1.081645 S    
C9    C10   1.429163 A    
C8    C9    1.398831 A    
Cu1   O7    1.926220 S    
N1    H11   1.025403 S    
C14   C15   1.386669 A    
O4    C2    1.299448 A    
C23   H10   1.084729 S    
O3    Cu1   1.938714 S    
C8    H5    1.083131 S    
Cu2   O6    1.958187 S    
C2    C18   1.473346 S    
O8    C4    1.296962 A    
C1    C22   1.445033 S    
C5    C17   1.398146 A    
N4    O12   1.301531 A    
C11   C15   1.411310 A    
C10   C11   1.420937 A    
C15   H6    1.080775 S    
H1    C14   1.084072 S    
C9    N4    1.436439 S    
O7    C4    1.301479 A    
C10   C12   1.425321 A    
C5    C13   1.399974 A    
C24   N2    1.294288 D    
C23   N1    1.294004 D    
C7    H4    1.083533 S    
C24   H12   1.084677 S    
Cu1   O5    1.958355 S    
C6    C16   1.396868 A    
C12   C13   1.416347 A    
C3    C20   1.444934 S    
O3    C2    1.299473 A    
N3    O9    1.299633 A    
C23   C24   1.510223 S    
N3    O10   1.301206 A    
C21   C22   1.339958 D    
C5    H2    1.084488 S    
O5    C3    1.292810 A    
N4    O11   1.301831 A    
C17   N3    1.433059 S    
C19   H7    1.086431 S    
C13   C14   1.392832 A    
O1    Cu1   1.958187 S    
C7    C18   1.400119 A    
C16   H3    1.079557 S    
O2    Cu2   1.958353 S    
C12   C16   1.402562 A    
O1    C1    1.292588 A    
O6    C3    1.293757 A    
