data_mof_unit_60905.cif
_audit_creation_date              2012-12-10T17:11:45-0500
_audit_creation_method            fapswitch 2.2
_symmetry_space_group_name_H-M    P1
_symmetry_Int_Tables_number       1
_space_group_crystal_system       triclinic
_cell_length_a                    19.118661
_cell_length_b                    10.722677
_cell_length_c                    10.030407
_cell_angle_alpha                 90.229057
_cell_angle_beta                  89.865235
_cell_angle_gamma                 90.087521
_cell_volume                      2056.24130936

loop_
_atom_site_label
_atom_site_type_symbol
_atom_type_description
_atom_site_fract_x
_atom_site_fract_y
_atom_site_fract_z
_atom_type_partial_charge
Br1   Br    Br    0.577405 0.927877 0.646222 -0.487156
Br2   Br    Br    0.429104 0.390126 0.906817 -0.399853
Br3   Br    Br    0.286762 0.640055 0.253712 -0.468971
C1    C     C_R   0.497966 0.262657 0.499518 0.919090
C2    C     C_R   0.853650 0.433401 0.493479 0.083938
C3    C     C_2   0.504370 0.933376 0.391529 -0.222230
C4    C     C_R   0.365419 0.501017 0.499961 0.894583
C5    C     C_2   0.520647 0.866952 0.499842 0.113981
C6    C     C_2   0.510869 0.066652 0.390294 -0.117249
C7    C     C_2   0.490989 0.130941 0.497559 -0.254976
C8    C     C_2   0.555188 0.516163 0.927114 -0.007954
C9    C     C_2   0.555879 0.490654 0.074094 -0.103997
C10   C     C_R   0.504010 0.737248 0.500215 0.888128
C11   C     C_R   0.634612 0.497651 0.499754 0.862413
C12   C     C_R   0.289583 0.490109 0.499352 -0.112264
C13   C     C_R   0.257213 0.423722 0.602800 -0.200955
C14   C     C_R   0.185824 0.400977 0.599425 -0.141288
C15   C     C_R   0.146039 0.443949 0.492187 0.022080
C16   C     C_R   0.177977 0.512356 0.389964 -0.170322
C17   C     C_R   0.249251 0.536825 0.393203 0.274180
C18   C     C_R   0.929565 0.419388 0.490803 0.291988
C19   C     C_R   0.070612 0.424950 0.490106 0.317023
C20   C     C_R   0.817720 0.437628 0.615521 -0.147522
C21   C     C_R   0.746411 0.461761 0.618050 -0.169065
C22   C     C_R   0.710234 0.481351 0.498537 -0.024636
C23   C     C_R   0.746090 0.476391 0.376607 -0.181866
C24   C     C_R   0.817241 0.452385 0.374078 -0.149337
H1    H     H_    0.287413 0.386581 0.684803 0.201119
H2    H     H_    0.719647 0.464003 0.713330 0.155162
H3    H     H_    0.719228 0.490293 0.282897 0.152204
H4    H     H_    0.843695 0.449892 0.278520 0.155461
H5    H     H_    0.481135 0.890383 0.303821 0.183856
H6    H     H_    0.528330 0.111655 0.299174 0.189396
H7    H     H_    0.469213 0.086065 0.585328 0.195145
H8    H     H_    0.603592 0.547273 0.881459 0.120295
H9    H     H_    0.605479 0.469209 0.120781 0.145447
H10   H     H_    0.458200 0.543982 0.105159 0.239474
H11   H     H_    0.161961 0.348739 0.679818 0.170267
H12   H     H_    0.147344 0.549558 0.308625 0.184026
H13   H     H_    0.844713 0.424173 0.709144 0.155565
N1    N     N_R   0.034549 0.441297 0.375473 -0.163302
N2    N     N_R   0.965248 0.438447 0.375814 -0.169193
N3    N     N_R   0.965689 0.399210 0.604868 -0.168273
N4    N     N_R   0.035120 0.401736 0.604501 -0.161918
N5    N     N_2   0.500750 0.501330 0.852150 0.013700
N6    N     N_2   0.500770 0.501360 0.147810 -0.162476
O1    O     O_R   0.499990 0.319060 0.613040 -0.573126
O2    O     O_R   0.500010 0.319100 0.386900 -0.609981
O3    O     O_R   0.398130 0.499970 0.613110 -0.585998
O4    O     O_R   0.398150 0.500010 0.386970 -0.570909
O5    O     O_R   0.499990 0.680900 0.613100 -0.576310
O6    O     O_R   0.500010 0.680940 0.386960 -0.625798
O7    O     O_R   0.601850 0.499990 0.613030 -0.627279
O8    O     O_R   0.601870 0.500030 0.386890 -0.632166
Zn1   Zn    Zn3+2 0.499990 0.499970 0.650990 1.054677
Zn2   Zn    Zn3+2 0.500010 0.500030 0.349010 1.003172

loop_
_geom_bond_atom_site_label_1
_geom_bond_atom_site_label_2
_ccdc_geom_bond_type
C13   H1    S    
C3    H5    S    
C8    C9    S    
N1    N2    A    
C5    C10   S    
C18   N3    A    
C9    H9    S    
Br1   C5    S    
C6    C7    D    
C16   C17   A    
C2    C20   A    
C20   C21   A    
O3    Zn1   S    
C3    C6    S    
C8    H8    S    
C14   C15   A    
H10   N6    S    
Br3   C17   S    
C7    H7    S    
C15   C19   S    
C6    H6    S    
C4    O3    A    
C23   C24   A    
C16   H12   S    
N3    N4    A    
C12   C13   A    
C4    C12   S    
C11   O8    A    
C19   N4    A    
C23   H3    S    
O5    Zn1   S    
C14   H11   S    
O7    Zn1   S    
C11   C22   S    
C10   O5    A    
C12   C17   A    
O8    Zn2   S    
C8    N5    D    
C19   N1    A    
Br2   N5    S    
C1    C7    S    
C20   H13   S    
C10   O6    A    
C11   O7    A    
C2    C18   S    
C21   C22   A    
N5    Zn1   S    
O1    Zn1   S    
C15   C16   A    
C1    O2    A    
N6    Zn2   S    
O2    Zn2   S    
C21   H2    S    
C3    C5    D    
C18   N2    A    
C22   C23   A    
C2    C24   A    
C24   H4    S    
C1    O1    A    
O4    Zn2   S    
O6    Zn2   S    
C4    O4    A    
C13   C14   A    
C9    N6    D    
