data_mof_unit_48719.cif
_audit_creation_date              2012-12-10T17:59:18-0500
_audit_creation_method            fapswitch 2.2
_symmetry_space_group_name_H-M    P1
_symmetry_Int_Tables_number       1
_space_group_crystal_system       triclinic
_cell_length_a                    10.8688
_cell_length_b                    9.50687
_cell_length_c                    10.774484
_cell_angle_alpha                 89.737424
_cell_angle_beta                  90.525461
_cell_angle_gamma                 89.535855
_cell_volume                      1113.21335673

loop_
_atom_site_label
_atom_site_type_symbol
_atom_type_description
_atom_site_fract_x
_atom_site_fract_y
_atom_site_fract_z
_atom_type_partial_charge
C1    C     C_R   0.261778 0.500555 0.501193 0.791460
C2    C     C_R   0.438910 0.926740 0.409954 0.003109
C3    C     C_R   0.562086 0.924514 0.589938 -0.019611
C4    C     C_R   0.562292 0.073441 0.589795 -0.015690
C5    C     C_R   0.497954 0.500676 0.259560 0.803644
C6    C     C_R   0.737417 0.499466 0.500531 0.801335
C7    C     C_R   0.500035 0.499984 0.740115 0.796624
C8    C     C_3   0.491187 0.660511 0.068327 0.418613
C9    C     C_3   0.383426 0.411127 0.068780 0.413357
C10   C     C_3   0.500563 0.654506 0.925122 -0.455698
C11   C     C_3   0.379300 0.430238 0.924596 -0.458751
C12   C     C_3   0.612348 0.422027 0.930654 -0.388758
C13   C     C_3   0.616025 0.433947 0.073366 -0.337819
C14   C     C_3   0.494354 0.502953 0.120704 -0.045636
C15   C     C_3   0.498096 0.501054 0.877662 0.034825
C16   C     C_3   0.593997 0.880644 0.094332 -0.274979
C17   C     C_3   0.307953 0.174906 0.079332 -0.307774
C18   C     C_1   0.374023 0.733116 0.101862 0.142865
C19   C     C_1   0.264651 0.456956 0.124766 0.147261
C20   C     C_1   0.123796 0.263559 0.608263 0.256883
C21   C     C_1   0.114146 0.746118 0.410618 0.310255
C22   C     C_R   0.062723 0.383398 0.550913 -0.022194
C23   C     C_R   0.059028 0.619392 0.458168 -0.018026
C24   C     C_R   0.935073 0.382809 0.547796 -0.220799
C25   C     C_R   0.931836 0.616545 0.457685 -0.209217
C26   C     C_R   0.870176 0.498872 0.501311 -0.049801
C27   C     C_R   0.126885 0.501416 0.503580 -0.112922
C28   C     C_R   0.438135 0.075454 0.410331 0.003043
Cu1   Cu    Cu3+1 0.500020 0.640660 0.500000 0.973061
Cu2   Cu    Cu3+1 0.500020 0.359340 0.500000 0.966925
H1    H     H_    0.612129 0.867624 0.661711 0.115788
H2    H     H_    0.608875 0.309130 0.903980 0.190264
H3    H     H_    0.886054 0.292893 0.584344 0.147665
H4    H     H_    0.880403 0.706499 0.421766 0.162306
H5    H     H_    0.388102 0.132310 0.338905 0.154325
H6    H     H_    0.390973 0.871564 0.337398 0.161446
H7    H     H_    0.539915 0.935792 0.166296 0.175181
H8    H     H_    0.557121 0.909444 0.001039 0.137297
H9    H     H_    0.689708 0.919667 0.100340 0.184796
H10   H     H_    0.246800 0.206167 0.000605 0.162122
H11   H     H_    0.252099 0.168266 0.164842 0.184154
H12   H     H_    0.612526 0.128723 0.661402 0.112463
H13   H     H_    0.344682 0.068382 0.059498 0.190289
H14   H     H_    0.425119 0.717210 0.880127 0.158950
H15   H     H_    0.298235 0.494983 0.894873 0.135138
H16   H     H_    0.588371 0.702603 0.894369 0.196001
H17   H     H_    0.369603 0.326954 0.877834 0.203560
H18   H     H_    0.696998 0.497166 0.102208 0.196495
H19   H     H_    0.630842 0.327533 0.114555 0.202408
H20   H     H_    0.698131 0.466544 0.891419 0.156402
N1    N     N_R   0.500030 0.852070 0.500030 -0.162730
N2    N     N_R   0.500030 0.147930 0.500030 -0.162311
N3    N     N_1   0.283014 0.790261 0.126085 -0.293265
N4    N     N_1   0.172245 0.491253 0.168321 -0.279912
N5    N     N_1   0.172473 0.167691 0.654285 -0.284591
N6    N     N_1   0.155714 0.849194 0.372804 -0.288556
O1    O     O_R   0.319660 0.618740 0.499990 -0.577470
O2    O     O_3   0.408626 0.266708 0.098955 -0.583050
O3    O     O_R   0.319660 0.381260 0.499990 -0.569824
O4    O     O_R   0.499990 0.618790 0.317690 -0.554347
O5    O     O_R   0.499990 0.381210 0.317690 -0.562083
O6    O     O_R   0.680370 0.618830 0.500010 -0.582745
O7    O     O_R   0.680370 0.381170 0.500010 -0.590462
O8    O     O_R   0.500030 0.618780 0.682310 -0.597668
O9    O     O_R   0.500030 0.381220 0.682310 -0.592590
O10   O     O_3   0.595386 0.733595 0.117952 -0.571033

loop_
_geom_bond_atom_site_label_1
_geom_bond_atom_site_label_2
_ccdc_geom_bond_type
C6    O7    A    
C10   H16   S    
C13   H18   S    
C12   H20   S    
C9    C14   S    
C17   H13   S    
C8    O10   S    
Cu1   Cu2   S    
C23   C27   A    
C7    O9    A    
C9    C11   S    
C25   H4    S    
C11   H17   S    
C24   H3    S    
C5    O4    A    
Cu1   O4    S    
C17   O2    S    
C22   C27   A    
Cu2   O3    S    
C6    O6    A    
C7    C15   S    
Cu1   O8    S    
C5    O5    A    
C13   C14   S    
C12   H2    S    
C2    C28   A    
C3    H1    S    
C28   N2    A    
C21   N6    T    
C5    C14   S    
C6    C26   S    
C4    H12   S    
C4    N2    A    
C20   N5    T    
C13   H19   S    
C19   N4    T    
C1    O3    A    
C20   C22   S    
C12   C15   S    
C22   C24   A    
C10   C15   S    
C21   C23   S    
C17   H11   S    
C7    O8    A    
C11   H15   S    
Cu2   O9    S    
C16   O10   S    
C2    N1    A    
C16   H9    S    
C10   H14   S    
C3    C4    A    
C23   C25   A    
C12   C13   S    
C28   H5    S    
C8    C10   S    
C9    O2    S    
Cu1   N1    S    
Cu2   O5    S    
C2    H6    S    
C1    C27   S    
C3    N1    A    
Cu1   O6    S    
Cu2   N2    S    
C8    C14   S    
C18   N3    T    
C16   H8    S    
C25   C26   A    
Cu2   O7    S    
C11   C15   S    
C9    C19   S    
C8    C18   S    
C24   C26   A    
C16   H7    S    
Cu1   O1    S    
C17   H10   S    
C1    O1    A    
