data_mof_unit_18800.cif
_audit_creation_date              2013-03-05T15:44:18-0500
_audit_creation_method            fapswitch 2.2
_symmetry_space_group_name_H-M    P1
_symmetry_Int_Tables_number       1
_space_group_crystal_system       triclinic
_cell_length_a                    20.866363
_cell_length_b                    7.096008
_cell_length_c                    16.352009
_cell_angle_alpha                 89.993397
_cell_angle_beta                  92.565164
_cell_angle_gamma                 89.997274
_cell_volume                      2418.78113489

loop_
_atom_site_label
_atom_site_type_symbol
_atom_site_description
_atom_site_fract_x
_atom_site_fract_y
_atom_site_fract_z
_atom_type_partial_charge
O1    O     O_R   0.564840 0.505290 0.579830 -0.561150
O2    O     O_R   0.435160 0.005290 0.420170 -0.561220
O3    O     O_R   0.556720 0.179930 0.409350 -0.560794
O4    O     O_R   0.443280 0.679930 0.590650 -0.560808
C1    C     C_R   0.570343 0.344868 0.380921 0.824429
C2    C     C_R   0.429656 0.844855 0.619078 0.824412
O5    O     O_R   0.572280 0.175810 0.578530 -0.551214
O6    O     O_R   0.427720 0.675810 0.421470 -0.551200
O7    O     O_R   0.450830 0.001920 0.590540 -0.552716
O8    O     O_R   0.549170 0.501920 0.409460 -0.552718
C3    C     C_R   0.589711 0.345670 0.605466 0.826407
C4    C     C_R   0.410293 0.845697 0.394528 0.826444
O9    O     O_3   0.460130 0.338030 0.503750 -0.278090
O10   O     O_3   0.539870 0.838030 0.496250 -0.278066
V1    V     V_3+5 0.507400 0.064560 0.499310 1.140733
V2    V     V_3+5 0.492600 0.564560 0.500690 1.140744
C5    C     C_R   0.142718 0.898354 0.168688 -0.117864
C6    C     C_R   0.857286 0.398477 0.831302 -0.117588
C7    C     C_R   0.357919 0.868729 0.330260 -0.145840
C8    C     C_R   0.642074 0.368582 0.669752 -0.145633
C9    C     C_R   0.309818 0.070555 0.221653 0.342372
C10   C     C_R   0.690016 0.569827 0.778649 0.342520
C11   C     C_R   0.361763 0.019424 0.274628 -0.120651
C12   C     C_R   0.638110 0.518786 0.725598 -0.120474
C13   C     C_R   0.301219 0.762967 0.330243 -0.100240
C14   C     C_R   0.698864 0.263230 0.669604 -0.100681
C15   C     C_R   0.248459 0.810763 0.277085 0.063914
C16   C     C_R   0.751594 0.310965 0.722818 0.063839
C17   C     C_R   0.252215 0.965410 0.222112 -0.004915
C18   C     C_R   0.747717 0.465144 0.778008 -0.004746
C19   C     C_R   0.199052 0.006446 0.167692 -0.093641
C20   C     C_R   0.800861 0.506166 0.832455 -0.093590
C21   C     C_R   0.139565 0.749735 0.225390 -0.070374
C22   C     C_R   0.860547 0.250288 0.774417 -0.070489
C23   C     C_R   0.191583 0.706488 0.278727 -0.016757
C24   C     C_R   0.808555 0.207091 0.721030 -0.017697
H1    H     H_    0.201989 0.115177 0.121681 0.136961
H2    H     H_    0.797845 0.614557 0.878599 0.136730
H3    H     H_    0.096816 0.663439 0.227325 0.074233
H4    H     H_    0.903367 0.164305 0.772370 0.074057
H5    H     H_    0.187566 0.589171 0.320628 0.061067
H6    H     H_    0.812665 0.090132 0.678967 0.060816
H7    H     H_    0.405045 0.103924 0.274664 0.121053
H8    H     H_    0.594752 0.602951 0.725697 0.120733
H9    H     H_    0.297263 0.648469 0.373632 0.079703
H10   H     H_    0.702911 0.149123 0.626046 0.079476
C25   C     C_R   0.380594 0.862032 0.837554 -0.050103
C26   C     C_R   0.619397 0.362510 0.162447 -0.050023
H11   H     H_    0.469743 0.843662 0.777710 0.095413
H12   H     H_    0.530247 0.344153 0.222291 0.095457
H13   H     H_    0.300844 0.882003 0.958910 0.102926
H14   H     H_    0.699144 0.382690 0.041091 0.103159
H15   H     H_    0.404288 0.860507 0.897907 0.098813
H16   H     H_    0.595699 0.361206 0.102095 0.098910
C27   C     C_R   0.389153 0.854027 0.690570 -0.085187
C28   C     C_R   0.610845 0.354092 0.309428 -0.085166
C29   C     C_R   0.078225 0.911345 0.731820 -0.093946
C30   C     C_R   0.921779 0.411015 0.268178 -0.093952
C31   C     C_R   0.112676 0.902567 0.661135 -0.063315
C32   C     C_R   0.887330 0.402115 0.338861 -0.063310
C33   C     C_R   0.179408 0.890884 0.665851 -0.073844
C34   C     C_R   0.820596 0.390558 0.334146 -0.073828
C35   C     C_R   0.213877 0.887807 0.742375 0.048555
C36   C     C_R   0.786123 0.387740 0.257623 0.048549
C37   C     C_R   0.178039 0.897245 0.815001 0.009083
C38   C     C_R   0.821959 0.397321 0.184998 0.009082
C39   C     C_R   0.282568 0.875670 0.749196 0.046299
C40   C     C_R   0.717430 0.375722 0.250802 0.046286
C41   C     C_R   0.313465 0.873674 0.828481 0.051116
C42   C     C_R   0.686528 0.374006 0.171519 0.051114
C43   C     C_R   0.277369 0.883355 0.898405 -0.072456
C44   C     C_R   0.722622 0.383828 0.101596 -0.072284
C45   C     C_R   0.210850 0.894841 0.891925 -0.076150
C46   C     C_R   0.789144 0.395183 0.108075 -0.076118
C47   C     C_R   0.321991 0.865473 0.680437 -0.109152
C48   C     C_R   0.678009 0.365384 0.319560 -0.109134
C49   C     C_R   0.418023 0.852382 0.769228 -0.093193
C50   C     C_R   0.581970 0.352736 0.230772 -0.093252
C51   C     C_R   0.109898 0.908818 0.808930 -0.087731
C52   C     C_R   0.890102 0.408755 0.191069 -0.087712
H17   H     H_    0.302284 0.866328 0.618397 0.039330
H18   H     H_    0.697720 0.366030 0.381599 0.039329
H19   H     H_    0.026350 0.920156 0.726369 0.050892
H20   H     H_    0.973656 0.419707 0.273628 0.050877
H21   H     H_    0.202505 0.884515 0.608343 0.056458
H22   H     H_    0.797500 0.384077 0.391653 0.056468
H23   H     H_    0.087366 0.904704 0.601876 0.064639
H24   H     H_    0.912642 0.404050 0.398120 0.064643
H25   H     H_    0.185242 0.901936 0.948005 0.056188
H26   H     H_    0.814750 0.402392 0.051996 0.056133
O11   O     O_R   0.950790 0.256670 0.090520 -0.552123
O12   O     O_R   0.049210 0.756670 0.909480 -0.552113
O13   O     O_R   0.927720 0.590370 0.921470 -0.556401
O14   O     O_R   0.072280 0.090370 0.078530 -0.556417
C53   C     C_R   0.910254 0.420141 0.894725 0.805871
C54   C     C_R   0.089742 0.920115 0.105279 0.805914
O15   O     O_R   0.943270 0.586180 0.090640 -0.559196
O16   O     O_R   0.056730 0.086180 0.909360 -0.559199
O17   O     O_R   0.064850 0.759970 0.079840 -0.551940
O18   O     O_R   0.935150 0.259970 0.920160 -0.551898
C55   C     C_R   0.930070 0.417615 0.118776 0.805767
C56   C     C_R   0.069930 0.917628 0.881223 0.805783
O19   O     O_3   0.039850 0.428050 0.996240 -0.271646
O20   O     O_3   0.960150 0.928050 0.003760 -0.271632
V3    V     V_3+5 0.992610 0.701540 0.000700 1.146791
V4    V     V_3+5 0.007390 0.201540 0.999300 1.146774
N1    N     N_R   0.315997 0.233782 0.170573 0.075357
O21   O     O_R   0.369725 0.265652 0.135552 -0.366802
O22   O     O_R   0.273351 0.367469 0.171672 -0.386617
N2    N     N_R   0.683679 0.732426 0.830048 0.075303
O23   O     O_R   0.629992 0.763067 0.865362 -0.366782
O24   O     O_R   0.726100 0.866741 0.829058 -0.386141

loop_
_geom_bond_atom_site_label_1
_geom_bond_atom_site_label_2
_geom_bond_distance
_ccdc_geom_bond_type
C5    C54   1.489364 S    
C35   C37   1.433023 A    
C28   C48   1.406133 A    
C15   C17   1.422852 A    
C29   C51   1.397278 A    
C1    C28   1.474332 S    
C24   H6    1.083814 S    
O1    C3    1.307043 A    
C2    C27   1.474331 S    
O2    C4    1.306993 A    
C2    O7    1.293654 A    
O20   V4    2.179410 S    
C32   H24   1.082730 S    
C37   C45   1.405053 A    
O5    C3    1.328510 A    
C34   H22   1.076659 S    
C21   H3    1.083627 S    
H13   C43   1.084222 S    
C37   C51   1.423239 A    
C36   C40   1.435263 A    
C27   C49   1.395708 A    
C29   C31   1.389607 A    
C30   C32   1.389604 A    
C38   C46   1.405056 A    
C54   O17   1.309595 A    
C28   C50   1.395712 A    
C32   C34   1.393601 A    
C26   C50   1.393222 A    
C41   C43   1.398740 A    
N2    O23   1.301381 A    
C25   C41   1.404388 A    
C34   C36   1.415289 A    
O13   V3    1.994362 S    
C8    C12   1.408465 A    
C10   N2    1.437119 S    
N1    O21   1.301304 A    
C29   H19   1.083918 S    
C51   C56   1.478239 S    
C20   H2    1.081324 S    
C22   C24   1.395829 A    
C30   C52   1.397279 A    
C25   H15   1.083905 S    
C27   C47   1.406137 A    
O5    V1    1.994351 S    
O6    V2    1.994181 S    
C6    C53   1.489368 S    
N1    O22   1.301336 A    
O11   V4    1.982581 S    
C5    C21   1.407643 A    
O11   C55   1.312512 A    
C7    C13   1.401092 A    
H12   C50   1.083680 S    
O20   V3    1.745763 S    
N2    O24   1.301367 A    
O17   V3    1.986049 S    
C35   C39   1.435265 A    
C3    C8    1.490815 S    
C31   C33   1.393601 A    
C44   C46   1.389710 A    
C48   H18   1.077479 S    
C43   C45   1.389707 A    
C53   O18   1.309640 A    
C47   H17   1.077476 S    
C15   C23   1.399868 A    
O16   C56   1.315109 A    
C9    C17   1.415057 A    
C19   H1    1.081257 S    
C39   C41   1.421911 A    
C36   C38   1.433022 A    
O4    V2    2.007225 S    
C26   H16   1.083906 S    
H14   C44   1.084224 S    
C30   H20   1.083920 S    
O6    C4    1.328569 A    
C33   C35   1.415286 A    
O19   V3    2.179342 S    
O1    V2    1.987209 S    
O14   C54   1.330123 A    
O2    V1    1.987300 S    
C6    C22   1.407655 A    
C9    N1    1.437111 S    
C33   H21   1.076659 S    
O4    C2    1.295552 A    
C9    C11   1.404528 A    
C13   C15   1.413090 A    
C12   H8    1.084110 S    
C22   H4    1.083673 S    
C6    C20   1.404434 A    
C25   C49   1.393220 A    
C13   H9    1.084179 S    
O3    V1    2.007124 S    
C7    C11   1.408463 A    
O14   V4    1.994193 S    
C10   C18   1.415129 A    
C11   H7    1.084065 S    
C14   C16   1.413124 A    
C26   C42   1.404388 A    
O3    C1    1.295565 A    
O12   C56   1.312533 A    
C40   C48   1.424391 A    
C38   C52   1.423240 A    
O18   V4    1.985957 S    
O16   V4    2.007174 S    
C52   C55   1.478233 S    
C46   H26   1.082972 S    
C16   C18   1.422917 A    
O7    V1    1.993469 S    
O15   V3    2.007076 S    
C1    O8    1.293631 A    
C17   C19   1.420842 A    
O8    V2    1.993516 S    
C18   C20   1.420862 A    
C8    C14   1.401176 A    
C5    C19   1.404342 A    
C4    C7    1.490835 S    
C21   C23   1.395769 A    
H11   C49   1.083679 S    
O19   V4    1.745811 S    
C10   C12   1.404575 A    
C23   H5    1.083755 S    
C31   H23   1.082728 S    
C14   H10   1.084241 S    
C45   H25   1.082971 S    
O12   V3    1.982535 S    
C39   C47   1.424391 A    
C16   C24   1.399962 A    
O13   C53   1.330082 A    
O9    V2    1.746024 S    
C40   C42   1.421914 A    
O10   V1    1.745974 S    
C42   C44   1.398741 A    
O15   C55   1.315118 A    
