data_mof_unit_41012.cif
_audit_creation_date              2012-12-10T17:25:32-0500
_audit_creation_method            fapswitch 2.2
_symmetry_space_group_name_H-M    P1
_symmetry_Int_Tables_number       1
_space_group_crystal_system       triclinic
_cell_length_a                    10.090313
_cell_length_b                    10.62083
_cell_length_c                    23.392805
_cell_angle_alpha                 90.207568
_cell_angle_beta                  81.525971
_cell_angle_gamma                 95.778709
_cell_volume                      2466.81850182

loop_
_atom_site_label
_atom_site_type_symbol
_atom_type_description
_atom_site_fract_x
_atom_site_fract_y
_atom_site_fract_z
_atom_type_partial_charge
C1    C     C_R   0.556792 0.734228 0.494317 0.837932
C2    C     C_R   0.443080 0.265549 0.502021 0.805763
C3    C     C_R   0.594913 0.419055 0.752709 -0.091134
C4    C     C_R   0.630983 0.550270 0.233192 -0.109388
C5    C     C_R   0.589321 0.424515 0.694210 -0.263241
C6    C     C_R   0.621576 0.544172 0.292532 -0.252426
C7    C     C_R   0.504117 0.503044 0.672868 -0.204917
C8    C     C_R   0.499824 0.499653 0.326579 -0.207900
C9    C     C_R   0.422257 0.576970 0.711167 0.379997
C10   C     C_R   0.384287 0.462289 0.300112 0.347403
C11   C     C_R   0.410521 0.553136 0.771273 0.034095
C12   C     C_R   0.389119 0.489711 0.240545 0.050689
C13   C     C_R   0.506731 0.482536 0.791349 0.234631
C14   C     C_R   0.516478 0.522875 0.206944 0.239024
C15   C     C_2   0.589786 0.869280 0.484529 0.198940
C16   C     C_2   0.409697 0.130538 0.494679 0.209495
C17   C     C_2   0.497065 0.931680 0.463948 -0.207962
C18   C     C_2   0.505198 0.067953 0.463985 -0.211999
C19   C     C_2   0.926534 0.508268 0.506116 -0.067880
C20   C     C_2   0.070416 0.482932 0.498553 -0.026097
C21   C     C_R   0.501515 0.502974 0.610622 0.968776
C22   C     C_R   0.498598 0.496998 0.389247 0.908106
C23   C     C_R   0.513250 0.399311 0.120716 0.506184
C24   C     C_R   0.569945 0.596881 0.873815 0.506000
C25   C     C_R   0.571181 0.623142 0.112618 0.483718
C26   C     C_R   0.500191 0.374971 0.882751 0.483981
C27   C     C_R   0.580149 0.617744 0.052478 -0.014436
C28   C     C_R   0.511378 0.377184 0.941582 -0.015857
C29   C     C_R   0.549191 0.500276 0.026797 -0.019965
C30   C     C_R   0.547333 0.493854 0.966924 -0.020124
C31   C     C_R   0.517604 0.389568 0.060994 -0.024176
C32   C     C_R   0.578970 0.604527 0.932706 -0.026775
C33   C     C_R   0.615234 0.726936 0.017746 -0.159565
C34   C     C_R   0.483842 0.266768 0.975820 -0.156725
C35   C     C_R   0.615390 0.720246 0.958275 -0.157856
C36   C     C_R   0.487673 0.272805 0.035021 -0.157201
H1    H     H_    0.640521 0.818043 0.036463 0.195728
H2    H     H_    0.457247 0.175865 0.957191 0.196694
H3    H     H_    0.122843 0.624135 0.548841 0.227246
H4    H     H_    0.879495 0.382812 0.447544 0.225195
H5    H     H_    0.640804 0.806421 0.932686 0.199234
H6    H     H_    0.463855 0.186362 0.060503 0.198278
H7    H     H_    0.667660 0.364532 0.768303 0.177696
H8    H     H_    0.727934 0.576521 0.207282 0.165645
H9    H     H_    0.654360 0.369274 0.665362 0.206400
H10   H     H_    0.711367 0.571599 0.311770 0.200803
H11   H     H_    0.600356 0.117427 0.444188 0.209526
H12   H     H_    0.405008 0.881623 0.452894 0.206049
H13   H     H_    0.103596 0.406051 0.471282 0.244974
H14   H     H_    0.890932 0.578166 0.537075 0.186041
N1    N     N_R   0.533160 0.515529 0.145342 -0.345444
N2    N     N_R   0.524718 0.484716 0.850815 -0.345873
N3    N     N_2   0.842710 0.448880 0.476480 -0.174094
N4    N     N_2   0.157290 0.551120 0.523520 -0.182150
O1    O     O_R   0.431060 0.692470 0.504730 -0.577757
O2    O     O_R   0.568940 0.307530 0.495270 -0.609245
O3    O     O_R   0.651120 0.659650 0.489640 -0.578241
O4    O     O_R   0.348880 0.340350 0.510360 -0.552325
O5    O     O_R   0.389950 0.516450 0.591390 -0.550288
O6    O     O_R   0.610050 0.483550 0.408610 -0.620550
O7    O     O_R   0.610020 0.483630 0.576300 -0.621767
O8    O     O_R   0.389980 0.516370 0.423700 -0.556362
O9    O     O_2   0.487280 0.293907 0.154232 -0.534296
O10   O     O_2   0.604418 0.700849 0.839736 -0.527061
O11   O     O_2   0.596864 0.735029 0.138389 -0.554174
O12   O     O_2   0.461930 0.265036 0.857864 -0.544442
Zn1   Zn    Zn3+2 0.353060 0.521920 0.510080 1.090630
Zn2   Zn    Zn3+2 0.646940 0.478080 0.489920 1.019559
S1    S     S_3+6 0.357662 0.712402 0.684849 0.052682
O13   O     O_2   0.216954 0.676689 0.672363 -0.265294
O14   O     O_2   0.355934 0.815935 0.728944 -0.285223
O15   O     O_3   0.455905 0.768345 0.624066 -0.564675
H15   H     H_    0.448889 0.860661 0.623778 0.407427
S2    S     S_3+6 0.244238 0.365023 0.337817 0.030671
O16   O     O_2   0.135317 0.447213 0.359708 -0.309838
O17   O     O_2   0.190243 0.267963 0.297884 -0.270406
O18   O     O_3   0.286462 0.286593 0.393628 -0.521941
H16   H     H_    0.353567 0.230586 0.375866 0.343931
C37   C     C_3   0.294663 0.596601 0.813721 -0.354613
C38   C     C_3   0.199422 0.483657 0.840861 -0.390291
C39   C     C_3   0.079448 0.527576 0.880762 -0.820171
H17   H     H_    0.114674 0.585457 0.916287 0.263056
H18   H     H_    0.019954 0.584499 0.856169 0.278160
H19   H     H_    0.013100 0.443952 0.899956 0.258819
H20   H     H_    0.161523 0.424913 0.806100 0.250945
H21   H     H_    0.252917 0.423592 0.866486 0.252840
H22   H     H_    0.333799 0.655641 0.847948 0.229766
H23   H     H_    0.231641 0.655180 0.792216 0.271290
C40   C     C_3   0.261504 0.488848 0.212564 -0.360160
C41   C     C_3   0.237704 0.623015 0.195098 -0.376767
C42   C     C_3   0.107336 0.622679 0.169191 -0.822564
H24   H     H_    0.111718 0.562899 0.130020 0.260294
H25   H     H_    0.019606 0.585958 0.201230 0.267077
H26   H     H_    0.093319 0.720717 0.156746 0.267717
H27   H     H_    0.231464 0.684521 0.233778 0.257010
H28   H     H_    0.321876 0.664319 0.162703 0.253337
H29   H     H_    0.266984 0.426282 0.174416 0.222650
H30   H     H_    0.170352 0.452336 0.242166 0.273916
S3    S     S_3+6 0.249885 0.055783 0.525727 0.098668
O19   O     O_2   0.171397 0.014007 0.477987 -0.170463
O20   O     O_2   0.266932 0.941502 0.560603 -0.271887
O21   O     O_3   0.162750 0.155813 0.568627 -0.474396
H31   H     H_    0.212901 0.170546 0.601796 0.349878
S4    S     S_3+6 0.741435 0.945545 0.504005 0.092338
O22   O     O_2   0.829625 0.999003 0.450469 -0.206655
O23   O     O_2   0.710378 0.052011 0.544746 -0.278301
O24   O     O_3   0.824910 0.843072 0.535978 -0.476154
H32   H     H_    0.767656 0.820815 0.573419 0.362592

loop_
_geom_bond_atom_site_label_1
_geom_bond_atom_site_label_2
_ccdc_geom_bond_type
C24   N2    A    
C27   C29   A    
C11   C13   A    
C36   H6    S    
C19   C20   S    
C19   H14   S    
C17   H12   S    
C18   H11   S    
C37   H22   S    
C39   H17   S    
C41   H27   S    
O18   H16   S    
C27   C33   A    
C3    H7    S    
C29   C30   A    
S2    O17   D    
O8    Zn1   S    
C9    S1    S    
C21   O5    A    
C1    O3    A    
C22   O6    A    
H3    N4    S    
C42   H25   S    
C13   N2    S    
C7    C9    A    
S1    O14   D    
N3    Zn2   S    
S4    O22   D    
C38   H21   S    
O5    Zn1   S    
C14   N1    S    
S2    O18   S    
C8    C22   S    
O24   H32   S    
C1    C15   S    
C15   S4    S    
C2    C16   S    
C21   O7    A    
C3    C13   A    
C19   N3    D    
C23   O9    S    
C28   C34   A    
C24   O10   S    
O21   H31   S    
C10   C12   A    
S4    O23   D    
C37   H23   S    
C39   H18   S    
S2    O16   D    
C26   O12   S    
C32   C35   A    
C12   C40   S    
C25   O11   S    
C20   N4    D    
C42   H24   S    
C5    C7    A    
C38   C39   S    
C6    C8    A    
N4    Zn1   S    
C4    H8    S    
O2    Zn2   S    
C5    H9    S    
C33   H1    S    
C40   H29   S    
C23   C31   A    
S1    O15   S    
C24   C32   A    
C38   H20   S    
C26   N2    A    
C22   O8    A    
C20   H13   S    
C23   N1    A    
S3    O19   D    
C17   C18   S    
C9    C11   A    
C11   C37   S    
C4    C6    A    
S3    O20   D    
C12   C14   A    
O3    Zn2   S    
C39   H19   S    
C7    C21   S    
C15   C17   D    
C6    H10   S    
C34   H2    S    
C8    C10   A    
O15   H15   S    
C3    C5    A    
O1    Zn1   S    
C2    O4    A    
C16   S3    S    
C41   H28   S    
C25   C27   A    
C26   C28   A    
C25   N1    A    
C40   H30   S    
C28   C30   A    
C1    O1    A    
C29   C31   A    
C2    O2    A    
C42   H26   S    
C30   C32   A    
C10   S2    S    
O7    Zn2   S    
C41   C42   S    
C33   C35   A    
C34   C36   A    
C4    C14   A    
S1    O13   D    
C35   H5    S    
C37   C38   S    
O4    Zn1   S    
S3    O21   S    
O6    Zn2   S    
C16   C18   D    
H4    N3    S    
C31   C36   A    
C40   C41   S    
S4    O24   S    
