data_mof_unit_62718.cif
_audit_creation_date              2012-12-10T19:17:26-0500
_audit_creation_method            fapswitch 2.2
_symmetry_space_group_name_H-M    P1
_symmetry_Int_Tables_number       1
_space_group_crystal_system       triclinic
_cell_length_a                    15.996815
_cell_length_b                    14.781428
_cell_length_c                    15.918575
_cell_angle_alpha                 89.999815
_cell_angle_beta                  89.961905
_cell_angle_gamma                 90.000124
_cell_volume                      3764.03806341

loop_
_atom_site_label
_atom_site_type_symbol
_atom_type_description
_atom_site_fract_x
_atom_site_fract_y
_atom_site_fract_z
_atom_type_partial_charge
C1    C     C_R   0.340848 0.500000 0.500045 0.820762
C2    C     C_3   0.597632 0.507046 0.952054 0.348045
C3    C     C_3   0.594179 0.506804 0.050440 -0.336458
C4    C     C_1   0.502641 0.500104 0.824948 -0.094808
C5    C     C_1   0.501269 0.500038 0.175098 -0.097750
C6    C     C_1   0.500560 0.500007 0.250454 -0.173695
C7    C     C_R   0.956365 0.582113 0.500460 -0.157491
C8    C     C_R   0.956364 0.417887 0.499938 -0.157774
C9    C     C_R   0.912772 0.500000 0.500198 0.139958
C10   C     C_R   0.043611 0.417887 0.499918 -0.165892
C11   C     C_R   0.043611 0.582113 0.500440 -0.165728
C12   C     C_R   0.087205 0.500000 0.500161 0.146169
C13   C     C_1   0.823314 0.500000 0.500151 -0.042242
C14   C     C_R   0.500011 0.500000 0.339881 0.825039
C15   C     C_1   0.176666 0.500000 0.500115 -0.059261
C16   C     C_1   0.251718 0.500000 0.500078 -0.166149
C17   C     C_1   0.748265 0.500000 0.500093 -0.139055
C18   C     C_R   0.568445 0.951875 0.533691 0.237448
C19   C     C_R   0.568445 0.048124 0.533690 0.237476
C20   C     C_R   0.500288 0.902861 0.500140 -0.178810
C21   C     C_R   0.500289 0.097139 0.500141 -0.178768
C22   C     C_R   0.432047 0.952041 0.466518 0.149305
C23   C     C_R   0.432046 0.047958 0.466520 0.149315
C24   C     C_1   0.500106 0.802577 0.500075 0.232364
C25   C     C_1   0.500106 0.197423 0.500075 0.232395
C26   C     C_R   0.659139 0.500000 0.500025 0.827099
C27   C     C_R   0.500040 0.500001 0.660179 0.829411
C28   C     C_3   0.449781 0.581432 0.047936 -0.026038
C29   C     C_3   0.460352 0.411860 0.047945 -0.026422
C30   C     C_3   0.462468 0.412437 0.950294 -0.395394
C31   C     C_3   0.451948 0.581143 0.950287 -0.396369
C32   C     C_1   0.501163 0.500021 0.749603 -0.158423
C33   C     C_3   0.502459 0.500111 0.082974 0.150859
C34   C     C_3   0.504867 0.500267 0.917074 0.149185
Cu1   Cu    Cu3+1 0.500000 0.589220 0.500020 1.001418
Cu2   Cu    Cu3+1 0.500000 0.410780 0.500020 1.001431
H1    H     H_    0.386756 0.575236 0.926343 0.164735
H2    H     H_    0.397135 0.408805 0.926348 0.164996
H3    H     H_    0.383470 0.571161 0.067315 0.153855
H4    H     H_    0.393365 0.412406 0.067320 0.154018
H5    H     H_    0.493840 0.351103 0.925147 0.194901
H6    H     H_    0.475419 0.646478 0.925131 0.194301
H7    H     H_    0.624902 0.568014 0.076574 0.163875
H8    H     H_    0.632221 0.450622 0.076581 0.163472
H9    H     H_    0.077006 0.645890 0.500631 0.147575
H10   H     H_    0.077006 0.354110 0.499704 0.147502
H11   H     H_    0.922969 0.645890 0.500664 0.157981
H12   H     H_    0.922968 0.354110 0.499736 0.157850
N1    N     N_1   0.499980 0.276710 0.500030 -0.147050
N2    N     N_1   0.499980 0.723290 0.500030 -0.147045
O1    O     O_R   0.380310 0.575320 0.500040 -0.576826
O2    O     O_R   0.380310 0.424680 0.500040 -0.576836
O3    O     O_R   0.500000 0.575380 0.379460 -0.575253
O4    O     O_R   0.500000 0.424620 0.379460 -0.575462
O5    O     O_R   0.619690 0.575360 0.500000 -0.556945
O6    O     O_R   0.619690 0.424640 0.500000 -0.557057
O7    O     O_R   0.500000 0.575310 0.620580 -0.565018
O8    O     O_R   0.500000 0.424690 0.620580 -0.564613
N3    N     N_3   0.361432 0.905506 0.431719 -0.531825
H13   H     H_    0.382453 0.864164 0.382771 0.219089
H14   H     H_    0.335760 0.864149 0.478363 0.219581
N4    N     N_3   0.361431 0.094491 0.431729 -0.531907
H15   H     H_    0.382451 0.135841 0.382788 0.219080
H16   H     H_    0.335762 0.135839 0.478379 0.219556
N5    N     N_3   0.496375 0.327558 0.080884 -0.576195
H17   H     H_    0.487539 0.324542 0.145884 0.236689
H18   H     H_    0.560350 0.324009 0.068965 0.229019
N6    N     N_3   0.475018 0.670216 0.080862 -0.576720
H19   H     H_    0.465894 0.671937 0.145864 0.236236
H20   H     H_    0.537971 0.683031 0.068935 0.229151
N7    N     N_3   0.639636 0.590373 0.923595 -0.552226
H21   H     H_    0.638188 0.594785 0.858075 0.231480
H22   H     H_    0.611162 0.648221 0.947813 0.208245
N8    N     N_3   0.649598 0.430574 0.923603 -0.553260
H23   H     H_    0.628568 0.369118 0.947837 0.208213
H24   H     H_    0.648703 0.425970 0.858085 0.230298
Br1   Br    Br    0.662141 0.113328 0.579796 -0.424413
Br2   Br    Br    0.662138 0.886672 0.579802 -0.424206

loop_
_geom_bond_atom_site_label_1
_geom_bond_atom_site_label_2
_ccdc_geom_bond_type
C31   H6    S    
Cu1   O3    S    
Cu1   Cu2   S    
C26   O5    A    
C7    C11   A    
C3    H7    S    
N4    H15   S    
N8    H24   S    
C17   C26   S    
C28   N6    S    
Cu2   O8    S    
C5    C6    T    
C3    C33   S    
C15   C16   T    
C29   C33   S    
C30   H2    S    
C18   C19   A    
C19   Br1   S    
C9    C13   S    
N4    H16   S    
C23   N4    S    
C20   C24   S    
N6    H19   S    
N5    H18   S    
C5    C33   S    
C10   H10   S    
C30   H5    S    
C2    N8    S    
C2    C34   S    
N3    H13   S    
C24   N2    T    
C4    C34   S    
C3    H8    S    
N3    H14   S    
N8    H23   S    
C30   C34   S    
Cu1   O5    S    
C27   O7    A    
C22   N3    S    
N7    H22   S    
C8    C9    A    
C28   H3    S    
C31   H1    S    
C26   O6    A    
C7    H11   S    
C8    H12   S    
C29   C30   S    
Cu2   O6    S    
C6    C14   S    
C12   C15   S    
C18   Br2   S    
Cu1   N2    S    
C31   C34   S    
C1    C16   S    
C1    O1    A    
C4    C32   T    
C10   C12   A    
C29   N5    S    
N6    H20   S    
C14   O4    A    
C20   C22   A    
C28   C33   S    
C21   C23   A    
Cu1   O1    S    
C11   H9    S    
C2    N7    S    
C7    C9    A    
C21   C25   S    
C19   C21   A    
C27   C32   S    
C28   C31   S    
C27   O8    A    
Cu2   O2    S    
C11   C12   A    
C13   C17   T    
Cu1   O7    S    
C2    C3    S    
N7    H21   S    
C29   H4    S    
C18   C20   A    
C1    O2    A    
C25   N1    T    
Cu2   O4    S    
C14   O3    A    
C8    C10   A    
N5    H17   S    
C22   C23   A    
Cu2   N1    S    
