data_mof_unit_11554.cif
_audit_creation_date              2012-12-11T17:43:39-0500
_audit_creation_method            fapswitch 2.2
_symmetry_space_group_name_H-M    P1
_symmetry_Int_Tables_number       1
_space_group_crystal_system       triclinic
_cell_length_a                    15.124321
_cell_length_b                    15.27843
_cell_length_c                    16.817655
_cell_angle_alpha                 108.774306
_cell_angle_beta                  105.70764
_cell_angle_gamma                 109.207824
_cell_volume                      3151.27159948

loop_
_atom_site_label
_atom_site_type_symbol
_atom_type_description
_atom_site_fract_x
_atom_site_fract_y
_atom_site_fract_z
_atom_type_partial_charge
C1    C     C_R   0.092131 0.280475 0.044166 -0.070007
C2    C     C_R   0.026856 0.075537 0.068835 0.457906
C3    C     C_R   0.996096 0.902824 0.975777 -0.160197
C4    C     C_R   0.007747 0.089730 0.988723 -0.150837
C5    C     C_R   0.020506 0.980737 0.062451 -0.176023
C6    C     C_R   0.979291 0.010595 0.901342 -0.181203
C7    C     C_R   0.028670 0.099451 0.806829 -0.121353
C8    C     C_R   0.951480 0.888932 0.148091 -0.117889
C9    C     C_R   0.900324 0.065218 0.662970 -0.090435
C10   C     C_R   0.060904 0.927113 0.302115 -0.092255
C11   C     C_R   0.524991 0.758029 0.347812 -0.073379
C12   C     C_R   0.910994 0.715423 0.934481 -0.083250
C13   C     C_R   0.470302 0.286285 0.727147 -0.090529
C14   C     C_R   0.519084 0.718062 0.258151 -0.137124
C15   C     C_R   0.495462 0.344753 0.820371 -0.130985
C16   C     C_R   0.939043 0.454644 0.734288 -0.085615
C17   C     C_R   0.064064 0.473419 0.249533 -0.022917
C18   C     C_R   0.541762 0.634581 0.226207 0.101797
C19   C     C_R   0.504622 0.445705 0.851990 0.101602
C20   C     C_R   0.571371 0.592834 0.286105 -0.156165
C21   C     C_R   0.489393 0.487610 0.789319 -0.179173
C22   C     C_R   0.577324 0.633312 0.375809 -0.082236
C23   C     C_R   0.030701 0.467383 0.725464 0.032643
C24   C     C_R   0.465764 0.429342 0.696412 -0.032970
C25   C     C_R   0.554075 0.715814 0.406618 -0.022044
C26   C     C_R   0.455204 0.328376 0.665153 0.005068
C27   C     C_R   0.615639 0.574277 0.116677 -0.188736
C28   C     C_R   0.444444 0.524589 0.963058 -0.189475
C29   C     C_R   0.607981 0.530794 0.026667 0.130509
C30   C     C_R   0.450145 0.565722 0.052408 0.119858
C31   C     C_R   0.521719 0.504059 0.948797 0.010948
C32   C     C_R   0.535369 0.591280 0.130841 0.017800
C33   C     C_R   0.002319 0.118559 0.729960 -0.116478
C34   C     C_R   0.975283 0.411902 0.251603 0.039505
C35   C     C_R   0.964685 0.871500 0.226169 -0.103764
C36   C     C_R   0.969566 0.367773 0.317257 0.061563
C37   C     C_R   0.041235 0.421863 0.639046 0.044559
C38   C     C_R   0.146521 0.437549 0.553615 0.489174
C39   C     C_R   0.867711 0.292618 0.389064 0.482920
C40   C     C_R   0.746852 0.203549 0.811915 -0.191527
C41   C     C_R   0.223620 0.795712 0.187758 -0.173636
C42   C     C_R   0.138504 0.455402 0.637198 -0.250773
C43   C     C_R   0.873812 0.308221 0.313170 -0.212901
C44   C     C_R   0.952765 0.354336 0.555768 -0.187994
C45   C     C_R   0.710488 0.200217 0.725911 -0.061234
C46   C     C_R   0.060240 0.397795 0.392374 -0.099523
C47   C     C_R   0.958232 0.341100 0.471429 -0.022167
C48   C     C_R   0.055946 0.388768 0.471298 -0.037244
C49   C     C_R   0.637370 0.112545 0.639454 0.139978
C50   C     C_R   0.304892 0.892775 0.360329 0.139604
C51   C     C_R   0.354554 0.964972 0.524910 -0.190852
C52   C     C_R   0.585401 0.046363 0.475150 -0.161936
C53   C     C_R   0.278083 0.903710 0.435154 -0.110001
C54   C     C_R   0.662783 0.100711 0.563869 -0.128703
C55   C     C_R   0.405304 0.948847 0.373765 -0.256893
C56   C     C_R   0.241175 0.800353 0.274207 -0.084571
C57   C     C_R   0.536004 0.064442 0.627527 -0.245886
C58   C     C_R   0.482776 0.003800 0.462393 0.159527
C59   C     C_R   0.457581 0.011099 0.538830 0.182386
C60   C     C_R   0.824429 0.992769 0.672777 -0.116262
C61   C     C_R   0.144362 0.999447 0.299720 -0.108451
C62   C     C_R   0.850433 0.973554 0.749629 -0.091011
C63   C     C_R   0.131797 0.016223 0.221331 -0.083003
C64   C     C_R   0.300832 0.597165 0.006345 0.402977
C65   C     C_R   0.726280 0.450891 0.037415 0.447084
C66   C     C_R   0.952850 0.026665 0.817105 0.222171
C67   C     C_R   0.357159 0.563751 0.055954 -0.058058
C68   C     C_R   0.034973 0.961625 0.145243 0.210635
C69   C     C_R   0.746484 0.300193 0.736424 0.419109
C70   C     C_R   0.221563 0.702131 0.266089 0.454292
C71   C     C_R   0.294066 0.498350 0.078951 -0.190626
C72   C     C_R   0.737280 0.549523 0.962735 -0.175287
C73   C     C_R   0.110177 0.535793 0.812406 -0.068482
C74   C     C_R   0.894279 0.391837 0.174958 -0.053721
C75   C     C_R   0.918129 0.194943 0.968777 -0.091140
C76   C     C_R   0.083710 0.800070 0.010814 -0.094858
C77   C     C_R   0.006987 0.184398 0.995206 0.134657
C78   C     C_R   0.692280 0.516679 0.015191 -0.094072
C79   C     C_R   0.996809 0.808608 0.971343 0.154310
C80   C     C_R   0.974548 0.916094 0.895223 0.457885
Cl1   Cl    Cl    0.271334 0.489514 0.557464 -0.662975
Cl2   Cl    Cl    0.743996 0.223008 0.381149 -0.649569
Cl3   Cl    Cl    0.353384 0.708816 0.991591 -0.675858
Cl4   Cl    Cl    0.664587 0.363118 0.074251 -0.708967
Cl5   Cl    Cl    0.680732 0.341450 0.664368 -0.676216
Cl6   Cl    Cl    0.274462 0.676490 0.357615 -0.692703
Cl7   Cl    Cl    0.946394 0.816280 0.788102 -0.632373
Cl8   Cl    Cl    0.049552 0.173248 0.175277 -0.674399
H1    H     H_    0.171659 0.298909 0.080663 0.121916
H2    H     H_    0.505291 0.310557 0.867363 0.154889
H3    H     H_    0.588793 0.528261 0.263082 0.157502
H4    H     H_    0.495419 0.565053 0.812414 0.154403
H5    H     H_    0.599784 0.600545 0.421386 0.148128
H6    H     H_    0.454838 0.462121 0.648485 0.180580
H7    H     H_    0.684238 0.595019 0.175282 0.143026
H8    H     H_    0.375462 0.500822 0.903181 0.133317
H9    H     H_    0.134319 0.439401 0.394223 0.192021
H10   H     H_    0.878444 0.321624 0.557003 0.180275
H11   H     H_    0.802722 0.279512 0.253996 0.178833
H12   H     H_    0.832904 0.694600 0.890902 0.127546
H13   H     H_    0.208643 0.501779 0.700434 0.163170
H14   H     H_    0.863724 0.409881 0.678975 0.170065
H15   H     H_    0.139781 0.482789 0.285214 0.172205
H16   H     H_    0.060905 0.174983 0.722478 0.120307
H17   H     H_    0.900139 0.815407 0.228035 0.120156
H18   H     H_    0.518178 0.075576 0.687238 0.130653
H19   H     H_    0.425003 0.937881 0.314991 0.148419
H20   H     H_    0.741954 0.140767 0.574226 0.129582
H21   H     H_    0.199915 0.857918 0.423953 0.134935
H22   H     H_    0.334149 0.970615 0.582734 0.138813
H23   H     H_    0.107776 0.141843 0.858698 0.118737
H24   H     H_    0.605465 0.039747 0.417028 0.176153
H25   H     H_    0.880148 0.080130 0.603542 0.113773
H26   H     H_    0.070624 0.914362 0.362896 0.111120
H27   H     H_    0.745368 0.951902 0.621076 0.118986
H28   H     H_    0.218808 0.042615 0.358631 0.129800
H29   H     H_    0.790750 0.918355 0.757218 0.129971
H30   H     H_    0.197097 0.072039 0.220013 0.138925
H31   H     H_    0.722741 0.140020 0.829117 0.134707
H32   H     H_    0.240004 0.860507 0.171691 0.138230
H33   H     H_    0.316090 0.463840 0.122948 0.148079
H34   H     H_    0.876250 0.846234 0.090057 0.116012
H35   H     H_    0.720737 0.594829 0.928547 0.133910
H36   H     H_    0.191378 0.561657 0.831160 0.144646
H37   H     H_    0.817863 0.328943 0.145123 0.171030
H38   H     H_    0.839644 0.135041 0.938736 0.106674
H39   H     H_    0.162938 0.856410 0.035993 0.125037
H40   H     H_    0.558616 0.747074 0.476034 0.131573
H41   H     H_    0.435767 0.282874 0.592991 0.140732
H42   H     H_    0.507044 0.821755 0.371757 0.133682
H43   H     H_    0.461530 0.208022 0.702765 0.118862
H44   H     H_    0.497514 0.752698 0.214012 0.152131
N1    N     N_R   0.055660 0.348550 0.045620 -0.053221
N2    N     N_R   0.185200 0.638170 0.176300 -0.085949
N3    N     N_R   0.201680 0.494570 0.045620 -0.070830
N4    N     N_R   0.798320 0.505430 0.954380 -0.058967
N5    N     N_R   0.068420 0.560530 0.871650 -0.038129
N6    N     N_R   0.931580 0.439470 0.128350 -0.062180
N7    N     N_R   0.948070 0.295860 0.997670 -0.051857
N8    N     N_R   0.051930 0.704140 0.002330 -0.050988
N9    N     N_R   0.944340 0.651450 0.954380 -0.053866
N10   N     N_R   0.960830 0.507850 0.823700 -0.041402
N11   N     N_R   0.039170 0.492150 0.176300 -0.066375
N12   N     N_R   0.811290 0.303410 0.871650 -0.062552
N13   N     N_R   0.188710 0.696590 0.128350 -0.055456
N14   N     N_R   0.205200 0.552990 0.997670 -0.091644
N15   N     N_R   0.794800 0.447010 0.002330 -0.085529
N16   N     N_R   0.814800 0.361830 0.823700 -0.085827
Ni1   Ni    Ni4+2 0.119340 0.493420 0.109960 0.239787
Ni2   Ni    Ni4+2 0.880660 0.506580 0.890040 0.275037
Ni3   Ni    Ni4+2 0.872590 0.372590 0.000000 0.239166
Ni4   Ni    Ni4+2 0.127410 0.627410 0.000000 0.275718

loop_
_geom_bond_atom_site_label_1
_geom_bond_atom_site_label_2
_ccdc_geom_bond_type
N5    N10   A    
C42   H13   S    
C27   C29   A    
C33   H16   S    
C1    C77   A    
C14   C18   A    
C27   H7    S    
C76   C79   A    
N12   N16   A    
C19   C31   S    
C41   C56   A    
C14   H44   S    
C15   C19   A    
C74   N6    A    
C18   C32   S    
C19   C21   A    
C25   H40   S    
N16   Ni2   S    
C38   C42   A    
N12   Ni3   S    
N6    N11   A    
C71   N3    A    
C11   C14   A    
C57   C59   A    
C74   H37   S    
C52   H24   S    
C49   C54   A    
C12   C79   A    
C49   C57   A    
C12   N9    A    
C60   C62   A    
C37   C42   A    
C61   C63   A    
C62   H29   S    
C72   C78   A    
C44   H10   S    
C29   C78   S    
C22   C25   A    
N11   Ni1   S    
N5    Ni4   S    
C2    Cl8   S    
C10   C35   A    
C65   N15   A    
N8    Ni4   S    
C18   C20   A    
C30   C67   S    
C10   H26   S    
C44   C47   A    
N3    N14   A    
C57   H18   S    
C3    C79   S    
C41   H32   S    
C9    C33   A    
C7    C33   A    
C23   C73   A    
C5    C68   S    
C1    N1    A    
C3    C80   A    
C52   C54   A    
N9    Ni2   S    
C76   N8    A    
C40   C45   A    
C20   H3    S    
C46   C48   A    
C50   C53   A    
C62   C66   A    
C45   C69   A    
N4    N15   A    
C64   C67   A    
N1    Ni1   S    
N8    N9    A    
C4    C6    A    
C17   N11   A    
C63   H30   S    
C65   Cl4   S    
C39   C43   A    
C58   C59   A    
N3    Ni1   S    
N2    Ni1   S    
C50   C56   S    
C55   H19   S    
C51   C53   A    
C8    C35   A    
C16   N10   A    
C64   Cl3   S    
C35   H17   S    
C24   H6    S    
C6    C80   A    
C47   C48   A    
C45   C49   S    
C73   H36   S    
C61   H28   S    
C13   H43   S    
C36   C46   A    
C75   C77   A    
C26   H41   S    
C52   C58   A    
C80   Cl7   S    
C34   C74   A    
N14   Ni4   S    
C16   H14   S    
C46   H9    S    
C20   C22   A    
C8    C68   A    
C51   H22   S    
C56   C70   A    
C13   C15   A    
C72   H35   S    
C22   H5    S    
C13   C26   A    
C21   C24   A    
C10   C61   A    
C51   C59   A    
C17   C34   A    
C70   Cl6   S    
C11   H42   S    
C69   Cl5   S    
C39   C47   A    
C53   H21   S    
C69   N16   A    
N2    N13   A    
C63   C68   A    
C1    H1    S    
C65   C78   A    
C64   N14   A    
C27   C32   A    
C38   C48   A    
C71   H33   S    
C28   C31   A    
C39   Cl2   S    
C24   C26   A    
C3    C5    A    
N4    Ni2   S    
N1    N7    A    
N6    Ni3   S    
C16   C23   A    
C36   C43   A    
C50   C55   A    
C40   N12   A    
C54   H20   S    
C28   H8    S    
C9    C60   A    
C9    H25   S    
C75   H38   S    
C37   C44   A    
C28   C30   A    
C17   H15   S    
C4    C77   S    
C38   Cl1   S    
C75   N7    A    
C43   H11   S    
C7    C66   A    
C30   C32   A    
N10   Ni2   S    
C73   N5    A    
C2    C4    A    
N7    Ni3   S    
C23   C37   S    
C7    H23   S    
C67   C71   A    
C8    H34   S    
C12   H12   S    
N13   Ni4   S    
C72   N4    A    
C2    C5    A    
C6    C66   S    
C40   H31   S    
C41   N13   A    
C34   C36   S    
C29   C31   A    
C55   C58   A    
N15   Ni3   S    
C70   N2    A    
C76   H39   S    
C11   C25   A    
C60   H27   S    
C15   H2    S    
C21   H4    S    
