data_mof_unit_61564.cif
_audit_creation_date              2012-12-10T17:34:19-0500
_audit_creation_method            fapswitch 2.2
_symmetry_space_group_name_H-M    P1
_symmetry_Int_Tables_number       1
_space_group_crystal_system       monoclinic
_cell_length_a                    30.265037
_cell_length_b                    30.265037
_cell_length_c                    29.106171
_cell_angle_alpha                 90.0
_cell_angle_beta                  90.0
_cell_angle_gamma                 90.000054
_cell_volume                      26660.4511863

loop_
_atom_site_label
_atom_site_type_symbol
_atom_type_description
_atom_site_fract_x
_atom_site_fract_y
_atom_site_fract_z
_atom_type_partial_charge
C1    C     C_R   0.500000 0.913584 1.000000 0.902310
C2    C     C_R   0.272337 0.555392 0.060591 -0.162631
C3    C     C_R   1.000000 0.500000 0.914340 0.853413
C4    C     C_R   0.000000 0.500000 0.585660 0.853414
C5    C     C_R   0.500000 0.000000 0.585660 0.853413
C6    C     C_R   1.000000 0.500000 0.414340 0.853412
C7    C     C_R   0.500000 1.000000 0.414340 0.853413
C8    C     C_1   0.500000 0.000000 0.136499 -0.192080
C9    C     C_1   1.000000 0.500000 0.136499 -0.192080
C10   C     C_1   0.500000 0.000000 0.863500 -0.192081
C11   C     C_1   1.000000 0.500000 0.863500 -0.192080
C12   C     C_1   0.000000 0.500000 0.636499 -0.192080
C13   C     C_R   0.444611 0.272337 0.060593 -0.162632
C14   C     C_1   0.500000 0.000000 0.636499 -0.192080
C15   C     C_1   1.000000 0.500000 0.363500 -0.192081
C16   C     C_1   0.500000 1.000000 0.363500 -0.192080
C17   C     C_1   0.500000 0.000000 0.178835 0.008746
C18   C     C_1   1.000000 0.500000 0.178835 0.008745
C19   C     C_1   0.500000 0.000000 0.821164 0.008746
C20   C     C_1   0.000000 0.500000 0.821164 0.008746
C21   C     C_1   0.000000 0.500000 0.678835 0.008746
C22   C     C_1   0.500000 0.000000 0.678835 0.008746
C23   C     C_1   1.000000 0.500000 0.321164 0.008746
C24   C     C_R   0.727663 0.444610 0.060593 -0.162632
C25   C     C_1   0.500000 0.000000 0.321164 0.008746
C26   C     C_1   0.500000 0.000000 0.228831 0.011806
C27   C     C_1   1.000000 0.500000 0.228831 0.011806
C28   C     C_1   0.500000 0.000000 0.771169 0.011806
C29   C     C_1   0.000000 0.500000 0.771169 0.011806
C30   C     C_1   0.000000 0.500000 0.728831 0.011806
C31   C     C_1   0.500000 0.000000 0.728831 0.011806
C32   C     C_1   1.000000 0.500000 0.271169 0.011806
C33   C     C_1   0.500000 0.000000 0.271169 0.011806
C34   C     C_R   0.469846 0.657847 0.971693 0.074311
C35   C     C_R   0.555389 0.272337 0.939407 -0.162632
C36   C     C_R   0.342152 0.469847 0.971693 0.074311
C37   C     C_R   0.530153 0.342152 0.971692 0.074311
C38   C     C_R   0.657848 0.530153 0.971692 0.074311
C39   C     C_R   0.469847 0.342152 0.028307 0.074312
C40   C     C_R   0.342153 0.530154 0.028307 0.074311
C41   C     C_R   0.530153 0.657848 0.028307 0.074311
C42   C     C_R   0.657848 0.469847 0.028307 0.074311
C43   C     C_R   0.969846 0.157847 0.471693 0.074311
C44   C     C_R   0.842152 0.969846 0.471693 0.074311
C45   C     C_R   0.030153 0.842152 0.471692 0.074311
C46   C     C_R   0.272337 0.444609 0.939409 -0.162632
C47   C     C_R   0.157848 0.030153 0.471692 0.074311
C48   C     C_R   0.969847 0.842152 0.528308 0.074312
C49   C     C_R   0.842152 0.030153 0.528307 0.074311
C50   C     C_R   0.030153 0.157848 0.528307 0.074311
C51   C     C_R   0.157848 0.969847 0.528308 0.074311
C52   C     C_R   0.500000 0.635265 1.000000 -0.167767
C53   C     C_R   0.364735 0.500000 0.000000 -0.167767
C54   C     C_R   0.500000 0.364735 1.000000 -0.167768
C55   C     C_R   0.635265 0.500000 0.000000 -0.167768
C56   C     C_R   1.000000 0.135265 0.500000 -0.167767
C57   C     C_R   0.444608 0.727663 0.939409 -0.162631
C58   C     C_R   0.864735 0.000000 0.500000 -0.167767
C59   C     C_R   1.000000 0.864735 0.500000 -0.167768
C60   C     C_R   0.135265 1.000000 0.500000 -0.167768
C61   C     C_R   0.528669 0.704037 0.029914 0.076454
C62   C     C_R   0.295963 0.528670 0.029914 0.076454
C63   C     C_R   0.471331 0.295963 0.029915 0.076454
C64   C     C_R   0.704037 0.471331 0.029915 0.076454
C65   C     C_R   0.528669 0.295963 0.970085 0.076454
C66   C     C_R   0.295963 0.471330 0.970086 0.076454
C67   C     C_R   0.471330 0.704037 0.970086 0.076454
C68   C     C_R   0.727663 0.555389 0.939407 -0.162632
C69   C     C_R   0.704037 0.528669 0.970085 0.076454
C70   C     C_R   0.028669 0.204037 0.529914 0.076454
C71   C     C_R   0.795963 0.028670 0.529914 0.076454
C72   C     C_R   0.971331 0.795963 0.529915 0.076454
C73   C     C_R   0.204037 0.971331 0.529915 0.076454
C74   C     C_R   0.028669 0.795963 0.470085 0.076454
C75   C     C_R   0.795963 0.971330 0.470086 0.076454
C76   C     C_R   0.971330 0.204037 0.470086 0.076454
C77   C     C_R   0.204037 0.028669 0.470085 0.076454
C78   C     C_R   0.500000 0.727235 0.000000 0.024700
C79   C     C_R   0.055391 0.227663 0.560591 -0.162632
C80   C     C_R   0.272765 0.500000 1.000000 0.024700
C81   C     C_R   0.500000 0.272765 0.000000 0.024700
C82   C     C_R   0.727235 0.500000 1.000000 0.024701
C83   C     C_R   1.000000 0.227235 0.500000 0.024700
C84   C     C_R   0.772765 0.000000 0.500000 0.024700
C85   C     C_R   0.000000 0.772765 0.500000 0.024700
C86   C     C_R   0.227235 1.000000 0.500000 0.024700
C87   C     C_3   0.543740 0.867686 0.075330 -0.865440
C88   C     C_3   0.132314 0.543740 0.075330 -0.865426
C89   C     C_3   0.456262 0.132314 0.075331 -0.865437
C90   C     C_R   0.772337 0.055391 0.560591 -0.162631
C91   C     C_3   0.867686 0.456261 0.075331 -0.865429
C92   C     C_3   0.543739 0.132314 0.924669 -0.865429
C93   C     C_3   0.132314 0.456260 0.924670 -0.865440
C94   C     C_3   0.456260 0.867686 0.924670 -0.865426
C95   C     C_3   0.867686 0.543738 0.924669 -0.865437
C96   C     C_3   0.043740 0.367686 0.575330 -0.865440
C97   C     C_3   0.632314 0.043740 0.575330 -0.865426
C98   C     C_3   0.956262 0.632314 0.575331 -0.865437
C99   C     C_3   0.367686 0.956261 0.575331 -0.865429
C100  C     C_3   0.043739 0.632314 0.424669 -0.865429
C101  C     C_R   0.944611 0.772337 0.560593 -0.162632
C102  C     C_3   0.632314 0.956260 0.424670 -0.865440
C103  C     C_3   0.956260 0.367686 0.424670 -0.865426
C104  C     C_3   0.367686 0.043738 0.424669 -0.865437
C105  C     C_R   0.086416 0.500000 0.000000 0.902309
C106  C     C_R   0.227663 0.944610 0.560593 -0.162632
C107  C     C_R   0.055390 0.772337 0.439407 -0.162632
C108  C     C_R   0.772337 0.944609 0.439409 -0.162632
C109  C     C_R   0.944608 0.227663 0.439409 -0.162631
C110  C     C_R   0.227663 0.055389 0.439407 -0.162632
C111  C     C_R   0.553671 0.773258 0.062268 -0.200149
C112  C     C_R   0.226742 0.553671 0.062268 -0.200148
C113  C     C_R   0.446331 0.226742 0.062270 -0.200148
C114  C     C_R   0.773258 0.446331 0.062270 -0.200148
C115  C     C_R   0.553669 0.226742 0.937730 -0.200148
C116  C     C_R   0.500000 0.086416 1.000000 0.902308
C117  C     C_R   0.226742 0.446329 0.937732 -0.200149
C118  C     C_R   0.446329 0.773258 0.937732 -0.200148
C119  C     C_R   0.773258 0.553669 0.937730 -0.200148
C120  C     C_R   0.053671 0.273258 0.562268 -0.200149
C121  C     C_R   0.726742 0.053671 0.562268 -0.200148
C122  C     C_R   0.946331 0.726742 0.562270 -0.200148
C123  C     C_R   0.273258 0.946331 0.562270 -0.200148
C124  C     C_R   0.053669 0.726742 0.437730 -0.200148
C125  C     C_R   0.726742 0.946329 0.437732 -0.200149
C126  C     C_R   0.946329 0.273258 0.437732 -0.200148
C127  C     C_R   0.913584 0.500000 0.000000 0.902309
C128  C     C_R   0.273258 0.053669 0.437730 -0.200148
C129  C     C_R   0.525999 0.796997 0.032430 0.105859
C130  C     C_R   0.203003 0.526000 0.032430 0.105858
C131  C     C_R   0.474001 0.203003 0.032431 0.105858
C132  C     C_R   0.796997 0.474001 0.032431 0.105858
C133  C     C_R   0.525999 0.203003 0.967569 0.105858
C134  C     C_R   0.203003 0.474000 0.967570 0.105859
C135  C     C_R   0.474000 0.796997 0.967570 0.105858
C136  C     C_R   0.796997 0.525998 0.967569 0.105858
C137  C     C_R   0.025999 0.296997 0.532430 0.105859
C138  C     C_R   1.000000 0.413584 0.500000 0.902310
C139  C     C_R   0.703003 0.026000 0.532430 0.105858
C140  C     C_R   0.974001 0.703003 0.532431 0.105858
C141  C     C_R   0.296997 0.974001 0.532431 0.105858
C142  C     C_R   0.025999 0.703003 0.467569 0.105858
C143  C     C_R   0.703003 0.974000 0.467570 0.105859
C144  C     C_R   0.974000 0.296997 0.467570 0.105858
C145  C     C_R   0.296997 0.025999 0.467569 0.105858
C146  C     C_R   0.500000 0.773830 0.000000 0.000787
C147  C     C_R   0.226170 0.500000 1.000000 0.000787
C148  C     C_R   0.500000 0.226169 0.000000 0.000787
C149  C     C_R   0.586416 0.000000 0.500000 0.902309
C150  C     C_R   0.773830 0.500000 1.000000 0.000787
C151  C     C_R   1.000000 0.273830 0.500000 0.000787
C152  C     C_R   0.726170 0.000000 0.500000 0.000787
C153  C     C_R   0.000000 0.726170 0.500000 0.000787
C154  C     C_R   0.273830 1.000000 0.500000 0.000787
C155  C     C_R   0.523258 0.843248 0.034826 0.084749
C156  C     C_R   0.156752 0.523259 0.034826 0.084746
C157  C     C_R   0.476743 0.156752 0.034826 0.084748
C158  C     C_R   0.843248 0.476742 0.034826 0.084746
C159  C     C_R   0.523258 0.156752 0.965174 0.084746
C160  C     C_R   1.000000 0.586416 0.500000 0.902308
C161  C     C_R   0.156752 0.476742 0.965174 0.084748
C162  C     C_R   0.476741 0.843248 0.965174 0.084746
C163  C     C_R   0.843248 0.523257 0.965174 0.084748
C164  C     C_R   0.023258 0.343248 0.534826 0.084748
C165  C     C_R   0.656752 0.023259 0.534826 0.084746
C166  C     C_R   0.976742 0.656752 0.534826 0.084748
C167  C     C_R   0.343248 0.976742 0.534826 0.084746
C168  C     C_R   0.023258 0.656752 0.465174 0.084746
C169  C     C_R   0.656752 0.976742 0.465174 0.084748
C170  C     C_R   0.976741 0.343248 0.465174 0.084746
C171  C     C_R   0.413584 1.000000 0.500000 0.902309
C172  C     C_R   0.343248 0.023257 0.465174 0.084748
C173  C     C_R   0.500000 0.865936 1.000000 -0.080177
C174  C     C_R   0.134064 0.500000 0.000000 -0.080177
C175  C     C_R   0.500000 0.134064 1.000000 -0.080175
C176  C     C_R   0.865936 0.500000 0.000000 -0.080175
C177  C     C_R   1.000000 0.365936 0.500000 -0.080177
C178  C     C_R   0.634064 0.000000 0.500000 -0.080177
C179  C     C_R   1.000000 0.634064 0.500000 -0.080175
C180  C     C_R   0.365936 1.000000 0.500000 -0.080175
C181  C     C_R   0.412316 0.500000 0.000000 1.006111
C182  C     C_R   0.555391 0.727663 0.060591 -0.162632
C183  C     C_R   0.500000 0.412316 0.000000 1.006111
C184  C     C_R   0.587684 0.500000 1.000000 1.006110
C185  C     C_R   0.500000 0.587684 1.000000 1.006110
C186  C     C_R   0.912316 0.000000 0.500000 1.006111
C187  C     C_R   1.000000 0.912316 0.500000 1.006111
C188  C     C_R   0.087684 0.000000 0.500000 1.006110
C189  C     C_R   1.000000 0.087683 0.500000 1.006110
C190  C     C_R   0.500000 0.000000 0.085660 0.853414
C191  C     C_R   1.000000 0.500000 0.085660 0.853413
C192  C     C_R   0.500000 0.000000 0.914340 0.853412
H1    H     H_    0.577349 0.711509 0.084488 0.184039
H2    H     H_    0.788491 0.077349 0.584488 0.184038
H3    H     H_    0.922654 0.788491 0.584491 0.184038
H4    H     H_    0.211509 0.922654 0.584491 0.184038
H5    H     H_    0.077346 0.788491 0.415509 0.184038
H6    H     H_    0.788491 0.922651 0.415512 0.184039
H7    H     H_    0.922651 0.211509 0.415512 0.184038
H8    H     H_    0.211509 0.077346 0.415509 0.184038
H9    H     H_    0.574976 0.789539 0.086829 0.164811
H10   H     H_    0.210461 0.574977 0.086829 0.164810
H11   H     H_    0.425027 0.210461 0.086832 0.164811
H12   H     H_    0.288491 0.577349 0.084488 0.184038
H13   H     H_    0.789539 0.425026 0.086832 0.164810
H14   H     H_    0.574974 0.210461 0.913168 0.164810
H15   H     H_    0.210461 0.425024 0.913171 0.164811
H16   H     H_    0.425023 0.789539 0.913171 0.164810
H17   H     H_    0.789539 0.574973 0.913168 0.164811
H18   H     H_    0.074976 0.289539 0.586829 0.164811
H19   H     H_    0.710461 0.074977 0.586829 0.164810
H20   H     H_    0.925027 0.710461 0.586832 0.164811
H21   H     H_    0.289538 0.925026 0.586832 0.164810
H22   H     H_    0.074974 0.710461 0.413168 0.164810
H23   H     H_    0.422654 0.288491 0.084491 0.184038
H24   H     H_    0.710461 0.925024 0.413171 0.164811
H25   H     H_    0.925023 0.289539 0.413171 0.164810
H26   H     H_    0.289539 0.074973 0.413168 0.164811
H27   H     H_    0.532382 0.902284 0.078886 0.238453
H28   H     H_    0.534041 0.851391 0.107997 0.234198
H29   H     H_    0.580291 0.867633 0.072109 0.247115
H30   H     H_    0.097716 0.532383 0.078886 0.238452
H31   H     H_    0.148609 0.534041 0.107997 0.234196
H32   H     H_    0.132368 0.580292 0.072109 0.247112
H33   H     H_    0.467619 0.097715 0.078886 0.238453
H34   H     H_    0.711509 0.422654 0.084491 0.184038
H35   H     H_    0.465962 0.148608 0.107998 0.234198
H36   H     H_    0.419711 0.132368 0.072112 0.247113
H37   H     H_    0.902285 0.467618 0.078886 0.238453
H38   H     H_    0.851391 0.465962 0.107998 0.234196
H39   H     H_    0.867631 0.419710 0.072111 0.247111
H40   H     H_    0.532382 0.097715 0.921114 0.238453
H41   H     H_    0.534038 0.148608 0.892002 0.234196
H42   H     H_    0.580290 0.132369 0.927888 0.247111
H43   H     H_    0.097716 0.467618 0.921113 0.238453
H44   H     H_    0.148609 0.465959 0.892003 0.234198
H45   H     H_    0.577346 0.288491 0.915509 0.184038
H46   H     H_    0.132367 0.419709 0.927891 0.247115
H47   H     H_    0.467617 0.902284 0.921114 0.238452
H48   H     H_    0.465958 0.851391 0.892002 0.234196
H49   H     H_    0.419708 0.867632 0.927891 0.247112
H50   H     H_    0.902285 0.532381 0.921113 0.238453
H51   H     H_    0.851392 0.534038 0.892002 0.234198
H52   H     H_    0.867632 0.580289 0.927888 0.247113
H53   H     H_    0.032382 0.402284 0.578886 0.238453
H54   H     H_    0.034041 0.351391 0.607997 0.234198
H55   H     H_    0.080291 0.367633 0.572109 0.247115
H56   H     H_    0.288491 0.422651 0.915512 0.184039
H57   H     H_    0.597716 0.032383 0.578886 0.238452
H58   H     H_    0.648609 0.034041 0.607997 0.234196
H59   H     H_    0.632368 0.080292 0.572109 0.247112
H60   H     H_    0.967619 0.597715 0.578886 0.238453
H61   H     H_    0.965962 0.648608 0.607998 0.234198
H62   H     H_    0.919711 0.632368 0.572112 0.247113
H63   H     H_    0.402285 0.967618 0.578886 0.238453
H64   H     H_    0.351392 0.965962 0.607998 0.234196
H65   H     H_    0.367631 0.919710 0.572111 0.247111
H66   H     H_    0.032382 0.597715 0.421114 0.238453
H67   H     H_    0.422651 0.711509 0.915512 0.184038
H68   H     H_    0.034038 0.648608 0.392002 0.234196
H69   H     H_    0.080290 0.632369 0.427888 0.247111
H70   H     H_    0.597716 0.967618 0.421113 0.238453
H71   H     H_    0.648609 0.965959 0.392003 0.234198
H72   H     H_    0.632367 0.919709 0.427891 0.247115
H73   H     H_    0.967617 0.402284 0.421114 0.238452
H74   H     H_    0.965959 0.351391 0.392002 0.234196
H75   H     H_    0.919708 0.367632 0.427891 0.247112
H76   H     H_    0.402285 0.032381 0.421113 0.238453
H77   H     H_    0.351392 0.034037 0.392002 0.234198
H78   H     H_    0.711509 0.577346 0.915509 0.184038
H79   H     H_    0.367632 0.080289 0.427888 0.247113
H80   H     H_    0.077349 0.211509 0.584488 0.184039
I1    I     I_    0.419805 0.621889 0.934292 -0.321835
I2    I     I_    0.878110 0.919804 0.434293 -0.321834
I3    I     I_    0.080195 0.878110 0.434291 -0.321834
I4    I     I_    0.121890 0.080195 0.434291 -0.321834
I5    I     I_    0.919805 0.878110 0.565709 -0.321833
I6    I     I_    0.878110 0.080195 0.565708 -0.321835
I7    I     I_    0.080196 0.121890 0.565707 -0.321835
I8    I     I_    0.121890 0.919805 0.565708 -0.321834
I9    I     I_    0.378110 0.419804 0.934293 -0.321834
I10   I     I_    0.580195 0.378110 0.934291 -0.321834
I11   I     I_    0.621890 0.580194 0.934291 -0.321834
I12   I     I_    0.419805 0.378110 0.065709 -0.321833
I13   I     I_    0.378110 0.580195 0.065708 -0.321835
I14   I     I_    0.580195 0.621890 0.065707 -0.321835
I15   I     I_    0.621890 0.419805 0.065709 -0.321834
I16   I     I_    0.919805 0.121889 0.434292 -0.321835
O1    O     O_R   0.537310 0.933950 0.000030 -0.607741
O2    O     O_R   0.566050 0.037310 0.500030 -0.607742
O3    O     O_R   0.962690 0.566050 0.500030 -0.607741
O4    O     O_R   0.433950 0.962690 0.500030 -0.607742
O5    O     O_R   0.037310 0.566050 0.499970 -0.607742
O6    O     O_R   0.566050 0.962690 0.499970 -0.607741
O7    O     O_R   0.962690 0.433950 0.499970 -0.607742
O8    O     O_R   0.433950 0.037310 0.499970 -0.607741
O9    O     O_R   0.537300 0.000020 0.063150 -0.598267
O10   O     O_R   0.999980 0.537300 0.063150 -0.598267
O11   O     O_R   0.462700 0.999980 0.063150 -0.598267
O12   O     O_R   0.066050 0.537310 0.000030 -0.607742
O13   O     O_R   0.000020 0.462700 0.063150 -0.598267
O14   O     O_R   0.537300 0.999980 0.936850 -0.598267
O15   O     O_R   0.999980 0.462700 0.936850 -0.598266
O16   O     O_R   0.462700 0.000020 0.936850 -0.598266
O17   O     O_R   0.000020 0.537300 0.936850 -0.598267
O18   O     O_R   0.037300 0.500020 0.563150 -0.598267
O19   O     O_R   0.499980 0.037300 0.563150 -0.598267
O20   O     O_R   0.962700 0.499980 0.563150 -0.598267
O21   O     O_R   0.500020 0.962700 0.563150 -0.598267
O22   O     O_R   0.037300 0.499980 0.436850 -0.598267
O23   O     O_R   0.462690 0.066050 0.000030 -0.607741
O24   O     O_R   0.499980 0.962700 0.436850 -0.598266
O25   O     O_R   0.962700 0.500020 0.436850 -0.598266
O26   O     O_R   0.500020 0.037300 0.436850 -0.598267
O27   O     O_R   0.433890 0.500020 0.035650 -0.598975
O28   O     O_R   0.499980 0.433890 0.035650 -0.598976
O29   O     O_R   0.566110 0.499980 0.035650 -0.598976
O30   O     O_R   0.500020 0.566110 0.035650 -0.598975
O31   O     O_R   0.433890 0.499980 0.964350 -0.598976
O32   O     O_R   0.499980 0.566110 0.964350 -0.598976
O33   O     O_R   0.566110 0.500020 0.964350 -0.598976
O34   O     O_R   0.933950 0.462690 0.000030 -0.607742
O35   O     O_R   0.500020 0.433890 0.964350 -0.598976
O36   O     O_R   0.933890 0.000020 0.535650 -0.598975
O37   O     O_R   0.999980 0.933890 0.535650 -0.598976
O38   O     O_R   0.066110 0.999980 0.535650 -0.598976
O39   O     O_R   0.000020 0.066110 0.535650 -0.598975
O40   O     O_R   0.933890 0.999980 0.464350 -0.598976
O41   O     O_R   0.999980 0.066110 0.464350 -0.598976
O42   O     O_R   0.066110 0.000020 0.464350 -0.598976
O43   O     O_R   0.000020 0.933890 0.464350 -0.598976
O44   O     O_R   0.537310 0.066050 0.999970 -0.607742
O45   O     O_R   0.066050 0.462690 0.999970 -0.607741
O46   O     O_R   0.462690 0.933950 0.999970 -0.607742
O47   O     O_R   0.933950 0.537310 0.999970 -0.607741
O48   O     O_R   0.037310 0.433950 0.500030 -0.607741
Zn1   Zn    Zn3+2 0.549820 0.000000 0.000000 0.978441
Zn2   Zn    Zn3+2 0.500000 0.500000 0.952400 1.087620
Zn3   Zn    Zn3+2 0.000000 0.000000 0.547600 1.087620
Zn4   Zn    Zn3+2 0.000000 1.000000 0.452400 1.087620
Zn5   Zn    Zn3+2 1.000000 0.549820 0.000000 0.978440
Zn6   Zn    Zn3+2 0.450180 0.000000 0.000000 0.978441
Zn7   Zn    Zn3+2 1.000000 0.450180 0.000000 0.978441
Zn8   Zn    Zn3+2 0.049820 0.500000 0.500000 0.978441
Zn9   Zn    Zn3+2 0.500000 0.049820 0.500000 0.978440
Zn10  Zn    Zn3+2 0.950180 0.500000 0.500000 0.978441
Zn11  Zn    Zn3+2 0.500000 0.950180 0.500000 0.978441
Zn12  Zn    Zn3+2 0.500000 0.500000 0.047600 1.087620

loop_
_geom_bond_atom_site_label_1
_geom_bond_atom_site_label_2
_ccdc_geom_bond_type
C44   I2    S    
C42   C64   A    
C58   C186  S    
C132  C150  A    
O20   Zn10  S    
C112  H10   S    
C186  O40   A    
C57   C67   A    
C144  C151  A    
C68   C119  A    
C36   C66   A    
C128  C145  A    
C72   C101  A    
C92   H40   S    
C192  O14   A    
C139  C152  A    
C16   C25   T    
C127  O34   A    
C104  H77   S    
C36   C53   A    
C38   C55   A    
C8    C190  S    
O30   Zn12  S    
C103  C170  S    
C102  H70   S    
C35   C115  A    
C41   C61   A    
C4    C12   S    
O41   Zn4   S    
O29   Zn12  S    
C167  C180  A    
C38   C69   A    
C60   C188  S    
C107  C124  A    
C76   C83   A    
C191  O13   A    
C99   C167  S    
C120  H18   S    
C11   C20   T    
C91   H38   S    
O17   Zn5   S    
C89   H33   S    
O34   Zn7   S    
C35   C65   A    
C106  H4    S    
C111  C182  A    
C149  O6    A    
C46   C117  A    
C190  O11   A    
C95   C163  S    
C42   C55   A    
O14   Zn1   S    
C13   C63   A    
C93   C161  S    
C135  C146  A    
C156  C174  A    
C79   C120  A    
C123  C141  A    
C3    O17   A    
C1    O1    A    
O10   Zn5   S    
O38   Zn3   S    
O32   Zn2   S    
C38   I11   S    
C122  H20   S    
C109  H7    S    
C128  H26   S    
C96   H53   S    
C127  C176  S    
C45   C59   A    
O13   Zn7   S    
C70   C79   A    
O11   Zn6   S    
C8    C17   T    
C89   C157  S    
C192  O16   A    
C101  C122  A    
C13   H23   S    
C86   C154  A    
C104  H79   S    
C46   H56   S    
O19   Zn9   S    
C161  C174  A    
C6    O25   A    
C7    O24   A    
C187  O37   A    
C50   I7    S    
O27   Zn12  S    
C113  H11   S    
C50   C70   A    
C141  C154  A    
C3    C11   S    
C78   C146  A    
C142  C168  A    
C12   C21   T    
O3    Zn10  S    
C94   H47   S    
C49   C71   A    
C127  O47   A    
C54   C183  S    
C130  C156  A    
C9    C191  S    
C110  C128  A    
C57   C118  A    
C24   C114  A    
C40   I13   S    
C35   H45   S    
C111  H9    S    
C72   C85   A    
C97   H59   S    
C171  O8    A    
C181  O31   A    
C1    C173  S    
C61   C182  A    
C29   C30   T    
C87   H29   S    
C62   C80   A    
C36   I9    S    
C75   C84   A    
C39   C54   A    
C139  C165  A    
C91   C158  S    
C69   C82   A    
C74   C107  A    
C76   C109  A    
C37   C65   A    
C55   C184  S    
C88   H32   S    
C59   C187  S    
C93   H46   S    
C96   H55   S    
O18   Zn8   S    
O46   Zn6   S    
C103  H73   S    
C145  C172  A    
C48   C72   A    
C93   H44   S    
C34   I1    S    
O25   Zn10  S    
C110  H8    S    
C47   I4    S    
C191  O10   A    
C183  O28   A    
C57   H67   S    
C50   C56   A    
C96   C164  S    
C91   H39   S    
C45   C74   A    
C99   H64   S    
O37   Zn3   S    
C26   C33   T    
C39   I12   S    
C98   C166  S    
C87   H28   S    
C19   C28   S    
O40   Zn4   S    
C4    O20   A    
C145  C154  A    
C5    O21   A    
C103  H75   S    
C90   C121  A    
C89   H36   S    
O47   Zn5   S    
C48   C59   A    
C43   I16   S    
C149  O2    A    
O7    Zn10  S    
C116  C175  S    
C189  O41   A    
C130  C147  A    
C138  O7    A    
O44   Zn1   S    
C66   C80   A    
C140  C153  A    
C7    O26   A    
C134  C161  A    
C121  C139  A    
O23   Zn6   S    
C122  C140  A    
O48   Zn8   S    
C160  O5    A    
O22   Zn8   S    
O33   Zn2   S    
C71   C90   A    
C125  C143  A    
C126  C144  A    
C149  C178  S    
C102  H72   S    
C74   C85   A    
C116  O23   A    
C9    C18   T    
C100  H69   S    
O35   Zn2   S    
C115  H14   S    
C4    O18   A    
C102  H71   S    
C51   C60   A    
C112  C130  A    
C138  C177  S    
O1    Zn1   S    
C98   H61   S    
C25   C33   S    
C105  O45   A    
C162  C173  A    
C48   I5    S    
C134  C147  A    
C2    C112  A    
C91   H37   S    
C88   C156  S    
C116  O44   A    
C94   H49   S    
C46   C66   A    
C99   H65   S    
C144  C170  A    
C92   H41   S    
C131  C157  A    
C111  C129  A    
C44   C58   A    
C68   C69   A    
C105  O12   A    
O8    Zn9   S    
C83   C151  A    
C42   I15   S    
C95   H52   S    
C104  C172  S    
C171  O4    A    
C172  C180  A    
C181  O27   A    
C75   C108  A    
C24   C64   A    
C98   H60   S    
C117  C134  A    
C96   H54   S    
O39   Zn3   S    
C140  C166  A    
C100  H66   S    
C141  C167  A    
C119  H17   S    
C170  C177  A    
C51   C73   A    
C129  C155  A    
C115  C133  A    
C45   I3    S    
C132  C158  A    
C133  C159  A    
O15   Zn7   S    
C65   C81   A    
C90   H2    S    
C10   C19   T    
C81   C148  A    
C182  H1    S    
C70   C83   A    
C5    C14   S    
O4    Zn11  S    
C94   H48   S    
C143  C152  A    
C123  H21   S    
O16   Zn6   S    
C41   I14   S    
C107  H5    S    
C43   C76   A    
C190  O9    A    
C27   C32   T    
O36   Zn3   S    
C28   C31   T    
O42   Zn4   S    
C117  H15   S    
C34   C67   A    
C97   H57   S    
C114  H13   S    
C97   H58   S    
C168  C179  A    
C21   C30   S    
C34   C52   A    
C79   H80   S    
C188  O38   A    
C23   C32   S    
C14   C22   T    
C6    O22   A    
C97   C165  S    
C186  O36   A    
C51   I8    S    
C108  H6    S    
O31   Zn2   S    
O26   Zn9   S    
C10   C192  S    
C95   H50   S    
C120  C137  A    
C118  C135  A    
C101  H3    S    
C136  C163  A    
C183  O35   A    
C100  H68   S    
O5    Zn8   S    
C124  H22   S    
C93   H43   S    
C63   C81   A    
C92   C159  S    
C17   C26   S    
C188  O42   A    
C125  H24   S    
O43   Zn4   S    
O24   Zn11  S    
C40   C62   A    
C103  H74   S    
C184  O29   A    
C99   H63   S    
C47   C60   A    
C80   C147  A    
C106  C123  A    
O21   Zn11  S    
C87   H27   S    
C108  C125  A    
C94   C162  S    
C41   C52   A    
C126  H25   S    
C155  C173  A    
C102  C169  S    
C15   C23   T    
C6    C15   S    
C185  O30   A    
C159  C175  A    
C165  C178  A    
C124  C142  A    
C67   C78   A    
C89   H35   S    
C24   H34   S    
C163  C176  A    
C3    O15   A    
C20   C29   S    
O28   Zn12  S    
C22   C31   S    
C184  O33   A    
C2    H12   S    
C143  C169  A    
C5    O19   A    
O6    Zn11  S    
C49   C58   A    
C44   C75   A    
C118  H16   S    
C160  C179  S    
C68   H78   S    
C53   C181  S    
C109  C126  A    
C61   C78   A    
O9    Zn1   S    
C189  O39   A    
C129  C146  A    
C88   H31   S    
C131  C148  A    
C133  C148  A    
C85   C153  A    
C64   C82   A    
C82   C150  A    
C157  C175  A    
C37   C54   A    
C84   C152  A    
C158  C176  A    
C77   C86   A    
C105  C174  S    
C135  C162  A    
C87   C155  S    
C171  C180  S    
C52   C185  S    
C47   C77   A    
O12   Zn5   S    
C160  O3    A    
C169  C178  A    
C98   H62   S    
C71   C84   A    
C138  O48   A    
C56   C189  S    
C7    C16   S    
C113  C131  A    
C114  C132  A    
C18   C27   S    
C104  H76   S    
C137  C164  A    
C136  C150  A    
C39   C63   A    
C100  C168  S    
O2    Zn9   S    
C119  C136  A    
C1    O46   A    
C73   C106  A    
C49   I6    S    
C92   H42   S    
C88   H30   S    
C121  H19   S    
C142  C153  A    
C77   C110  A    
C73   C86   A    
C187  O43   A    
C43   C56   A    
O45   Zn7   S    
C185  O32   A    
C40   C53   A    
C137  C151  A    
C166  C179  A    
C37   I10   S    
C13   C113  A    
C164  C177  A    
C2    C62   A    
C95   H51   S    
