data_mof_unit_22139.cif
_audit_creation_date              2012-12-11T17:36:11-0500
_audit_creation_method            fapswitch 2.2
_symmetry_space_group_name_H-M    P1
_symmetry_Int_Tables_number       1
_space_group_crystal_system       triclinic
_cell_length_a                    25.86592
_cell_length_b                    6.904396
_cell_length_c                    21.697447
_cell_angle_alpha                 90.039741
_cell_angle_beta                  96.027837
_cell_angle_gamma                 90.037712
_cell_volume                      3853.48929424

loop_
_atom_site_label
_atom_site_type_symbol
_atom_type_description
_atom_site_fract_x
_atom_site_fract_y
_atom_site_fract_z
_atom_type_partial_charge
O1    O     O_R   0.208650 0.594520 0.175450 -0.534895
O2    O     O_R   0.791350 0.405480 0.824550 -0.534895
O3    O     O_R   0.291350 0.094520 0.324550 -0.534809
O4    O     O_R   0.708650 0.905480 0.675450 -0.534809
O5    O     O_R   0.192980 0.260780 0.300160 -0.540899
O6    O     O_R   0.807020 0.739220 0.699840 -0.540899
O7    O     O_R   0.307020 0.760780 0.199840 -0.540899
O8    O     O_R   0.692980 0.239220 0.800160 -0.540899
C1    C     C_R   0.178801 0.432870 0.318434 0.682047
C2    C     C_R   0.821199 0.567130 0.681566 0.682048
C3    C     C_R   0.321196 0.932876 0.181566 0.681737
C4    C     C_R   0.678803 0.067124 0.818434 0.681737
O9    O     O_R   0.202550 0.264660 0.174420 -0.536783
O10   O     O_R   0.797450 0.735340 0.825580 -0.536783
O11   O     O_R   0.297450 0.764660 0.325580 -0.536716
O12   O     O_R   0.702550 0.235340 0.674420 -0.536716
O13   O     O_R   0.300990 0.096480 0.197920 -0.539264
O14   O     O_R   0.699010 0.903520 0.802080 -0.539263
O15   O     O_R   0.199010 0.596480 0.302080 -0.539261
O16   O     O_R   0.800990 0.403520 0.697920 -0.539262
C5    C     C_R   0.191069 0.433225 0.151134 0.698336
C6    C     C_R   0.808931 0.566775 0.848866 0.698335
C7    C     C_R   0.308927 0.933476 0.348843 0.698480
C8    C     C_R   0.691072 0.066524 0.651157 0.698481
O17   O     O_3   0.282290 0.427760 0.257860 -0.364480
O18   O     O_3   0.717710 0.572240 0.742140 -0.364480
O19   O     O_3   0.217710 0.927760 0.242140 -0.364622
O20   O     O_3   0.782290 0.072240 0.757860 -0.364622
V1    V     V_3+5 0.244010 0.152080 0.248540 1.412726
V2    V     V_3+5 0.755990 0.847920 0.751460 1.412726
V3    V     V_3+5 0.255990 0.652080 0.251460 1.412697
V4    V     V_3+5 0.744010 0.347920 0.748540 1.412697
C9    C     C_R   0.657410 0.060119 0.591994 -0.043890
C10   C     C_R   0.342590 0.939881 0.408006 -0.043890
C11   C     C_R   0.842615 0.561700 0.908056 -0.044892
C12   C     C_R   0.157385 0.438300 0.091944 -0.044891
C13   C     C_R   0.647000 0.112610 0.481291 -0.159608
C14   C     C_R   0.353000 0.887389 0.518709 -0.159608
C15   C     C_R   0.853900 0.629430 0.017944 -0.160026
C16   C     C_R   0.146100 0.370570 0.982056 -0.160026
C17   C     C_R   0.678526 0.106674 0.537307 -0.167492
C18   C     C_R   0.321474 0.893326 0.462693 -0.167492
C19   C     C_R   0.822118 0.618726 0.962194 -0.166859
C20   C     C_R   0.177882 0.381273 0.037806 -0.166859
C21   C     C_R   0.603943 0.020030 0.590391 -0.214264
C22   C     C_R   0.396057 0.979969 0.409609 -0.214264
C23   C     C_R   0.895765 0.515864 0.909973 -0.214616
C24   C     C_R   0.104235 0.484136 0.090027 -0.214616
C25   C     C_R   0.570559 0.028036 0.533767 0.087063
C26   C     C_R   0.429441 0.971964 0.466233 0.087063
C27   C     C_R   0.929461 0.529100 0.966280 0.086854
C28   C     C_R   0.070539 0.470899 0.033720 0.086854
C29   C     C_R   0.593490 0.074998 0.479033 0.138777
C30   C     C_R   0.406510 0.925002 0.520967 0.138777
C31   C     C_R   0.907128 0.586743 0.020433 0.138722
C32   C     C_R   0.092872 0.413257 0.979567 0.138722
C33   C     C_R   0.515452 0.993467 0.529472 0.057739
C34   C     C_R   0.484548 0.006533 0.470528 0.057739
C35   C     C_R   0.984355 0.490193 0.970748 0.057746
C36   C     C_R   0.015645 0.509807 0.029252 0.057746
C37   C     C_R   0.509806 0.053183 0.417892 -0.186342
C38   C     C_R   0.490194 0.946817 0.582108 -0.186343
C39   C     C_R   0.990964 0.567039 0.081307 -0.186521
C40   C     C_R   0.009035 0.432961 0.918693 -0.186521
C41   C     C_R   0.562997 0.086225 0.422234 -0.200590
C42   C     C_R   0.437003 0.913775 0.577766 -0.200590
C43   C     C_R   0.937973 0.604075 0.076828 -0.200572
C44   C     C_R   0.062027 0.395925 0.923172 -0.200572
H1    H     H_    0.580488 0.122109 0.380406 0.123825
H2    H     H_    0.419512 0.877891 0.619594 0.123825
H3    H     H_    0.920935 0.648253 0.118195 0.123950
H4    H     H_    0.079065 0.351747 0.881804 0.123950
H5    H     H_    0.410230 0.012750 0.365858 0.093807
H6    H     H_    0.589770 0.987250 0.634142 0.093808
H7    H     H_    0.090462 0.524379 0.133400 0.094586
H8    H     H_    0.909538 0.475621 0.866600 0.094586
H9    H     H_    0.664474 0.149087 0.439526 0.114067
H10   H     H_    0.335526 0.850913 0.560474 0.114067
H11   H     H_    0.836893 0.674240 0.059247 0.114186
H12   H     H_    0.163107 0.325759 0.940753 0.114186
H13   H     H_    0.489527 0.065967 0.372163 0.124161
H14   H     H_    0.510473 0.934032 0.627837 0.124162
H15   H     H_    0.011570 0.585421 0.126656 0.124191
H16   H     H_    0.988429 0.414579 0.873344 0.124191
C45   C     C_R   0.427270 0.793679 0.079287 -0.134451
C46   C     C_R   0.572730 0.206321 0.920713 -0.134451
C47   C     C_R   0.072745 0.293637 0.420741 -0.134413
C48   C     C_R   0.927255 0.706363 0.579259 -0.134413
H17   H     H_    0.445433 0.663148 0.064156 0.104672
H18   H     H_    0.554567 0.336852 0.935844 0.104672
H19   H     H_    0.054595 0.163086 0.435894 0.104648
H20   H     H_    0.945405 0.836914 0.564106 0.104648
C49   C     C_R   0.388018 0.778725 0.119248 -0.170292
C50   C     C_R   0.611982 0.221274 0.880752 -0.170292
C51   C     C_R   0.111997 0.278681 0.380779 -0.170313
C52   C     C_R   0.888003 0.721319 0.619220 -0.170313
H21   H     H_    0.376803 0.636354 0.133961 0.118370
H22   H     H_    0.623197 0.363646 0.866039 0.118370
H23   H     H_    0.123226 0.136290 0.366090 0.118286
H24   H     H_    0.876774 0.863710 0.633910 0.118286
C53   C     C_R   0.363540 0.945830 0.139682 -0.057090
C54   C     C_R   0.636460 0.054170 0.860318 -0.057090
C55   C     C_R   0.136458 0.445812 0.360318 -0.056998
C56   C     C_R   0.863542 0.554187 0.639682 -0.056998
C57   C     C_R   0.379634 0.127805 0.119001 -0.169135
C58   C     C_R   0.620366 0.872195 0.880999 -0.169135
C59   C     C_R   0.120347 0.627815 0.380969 -0.169059
C60   C     C_R   0.879653 0.372185 0.619031 -0.169059
C61   C     C_R   0.418766 0.142257 0.079174 -0.139041
C62   C     C_R   0.581234 0.857743 0.920826 -0.139040
C63   C     C_R   0.081216 0.642269 0.420797 -0.139056
C64   C     C_R   0.918784 0.357731 0.579203 -0.139057
H25   H     H_    0.430183 0.284003 0.064014 0.104885
H26   H     H_    0.569817 0.715997 0.935986 0.104885
H27   H     H_    0.069786 0.784036 0.435934 0.104855
H28   H     H_    0.930214 0.215964 0.564066 0.104855
C65   C     C_R   0.442815 0.975601 0.058968 0.131015
C66   C     C_R   0.557185 0.024398 0.941032 0.131014
C67   C     C_R   0.057184 0.475588 0.441032 0.131053
C68   C     C_R   0.942816 0.524412 0.558968 0.131053
C69   C     C_1   0.483173 0.992338 0.017380 -0.061434
C70   C     C_1   0.516827 0.007662 0.982619 -0.061434
C71   C     C_1   0.016827 0.492332 0.482619 -0.061423
C72   C     C_1   0.983173 0.507668 0.517380 -0.061423
H29   H     H_    0.280439 0.860432 0.461916 0.106483
H30   H     H_    0.719561 0.139568 0.538084 0.106483
H31   H     H_    0.218617 0.343407 0.038853 0.106968
H32   H     H_    0.781383 0.656593 0.961147 0.106968
H33   H     H_    0.361881 0.260014 0.133399 0.122070
H34   H     H_    0.638119 0.739986 0.866600 0.122070
H35   H     H_    0.138086 0.760047 0.366547 0.122002
H36   H     H_    0.861914 0.239953 0.633453 0.122002

loop_
_geom_bond_atom_site_label_1
_geom_bond_atom_site_label_2
_ccdc_geom_bond_type
O17   V3    S    
C48   C52   A    
C20   H31   S    
O1    C5    A    
C47   H19   S    
O19   V1    S    
C9    C21   A    
O3    C7    A    
C10   C18   A    
C56   C60   A    
C11   C23   A    
C62   C66   A    
C61   C65   A    
C71   C72   T    
C5    C12   S    
O7    C3    A    
C6    C11   S    
O5    C1    A    
C26   C30   A    
C36   C39   A    
C40   C44   A    
O9    V1    S    
C23   H8    S    
C14   C18   A    
C58   C62   A    
O4    C8    A    
C51   H23   S    
C44   H4    S    
C50   H22   S    
O1    V3    S    
O13   V1    S    
O2    V4    S    
C66   C70   S    
O3    V1    S    
C65   C69   S    
C40   H16   S    
C46   C50   A    
C18   H29   S    
C45   C49   A    
C1    O15   A    
C15   C31   A    
C48   H20   S    
C2    O16   A    
C16   C32   A    
C47   C51   A    
O2    C6    A    
C16   H12   S    
C54   C58   A    
C10   C22   A    
C21   C25   A    
C48   C68   A    
C11   C19   A    
C62   H26   S    
C16   C20   A    
C43   H3    S    
C1    C55   S    
C13   C29   A    
C34   C37   A    
O11   C7    A    
C38   H14   S    
O15   V3    S    
C35   C36   A    
O12   C8    A    
O17   V1    S    
C24   H7    S    
C47   C67   A    
O10   V2    S    
C51   C55   A    
O5    V1    S    
C53   C57   A    
C39   C43   A    
O7    V3    S    
C38   C42   A    
O19   V3    S    
C26   C34   A    
C33   C38   A    
C59   H35   S    
C46   H18   S    
C49   C53   A    
C64   C68   A    
C45   H17   S    
O18   V4    S    
C57   H33   S    
C14   H10   S    
C32   C44   A    
C13   H9    S    
C60   C64   A    
C39   H15   S    
C21   H6    S    
O8    V4    S    
C4    C54   S    
C23   C27   A    
C31   C43   A    
C14   C30   A    
O20   V4    S    
O8    C4    A    
C7    C10   S    
C35   C40   A    
O9    C5    A    
C3    C53   S    
C45   C65   A    
C69   C70   T    
O14   V2    S    
C63   C67   A    
O6    V2    S    
O18   V2    S    
C67   C71   S    
C46   C66   A    
C12   C20   A    
C27   C35   A    
C49   H21   S    
C64   H28   S    
C29   C41   A    
C55   C59   A    
O16   V4    S    
C58   H34   S    
C57   C61   A    
C3    O13   A    
C59   C63   A    
C17   H30   S    
C19   H32   S    
O6    C2    A    
C25   C33   A    
C15   C19   A    
O11   V3    S    
C30   C42   A    
C61   H25   S    
O12   V4    S    
C22   C26   A    
C8    C9    S    
C9    C17   A    
O10   C6    A    
C52   C56   A    
O20   V2    S    
C37   H13   S    
C33   C34   A    
C42   H2    S    
C41   H1    S    
C52   H24   S    
C2    C56   S    
C12   C24   A    
C27   C31   A    
C13   C17   A    
C60   H36   S    
C25   C29   A    
C68   C72   S    
C37   C41   A    
C24   C28   A    
C50   C54   A    
C28   C36   A    
C4    O14   A    
C63   H27   S    
C22   H5    S    
O4    V2    S    
C28   C32   A    
C15   H11   S    
