data_mof_unit_31515.cif
_audit_creation_date              2012-12-10T16:46:45-0500
_audit_creation_method            fapswitch 2.2
_symmetry_space_group_name_H-M    P1
_symmetry_Int_Tables_number       1
_space_group_crystal_system       triclinic
_cell_length_a                    15.854895
_cell_length_b                    8.744679
_cell_length_c                    7.521146
_cell_angle_alpha                 103.201596
_cell_angle_beta                  94.411699
_cell_angle_gamma                 93.241393
_cell_volume                      1009.25618259

loop_
_atom_site_label
_atom_site_type_symbol
_atom_type_description
_atom_site_fract_x
_atom_site_fract_y
_atom_site_fract_z
_atom_type_partial_charge
C1    C     C_R   0.499286 0.200302 0.454181 0.840875
C2    C     C_3   0.948430 0.397604 0.624625 0.424201
C3    C     C_3   0.917383 0.510960 0.505500 0.087540
C4    C     C_3   0.959901 0.681159 0.595486 -0.115562
C5    C     C_3   0.058372 0.688173 0.570458 0.376053
C6    C     C_1   0.824643 0.506531 0.498042 0.020282
C7    C     C_1   0.176176 0.504298 0.510581 -0.052969
C8    C     C_1   0.251401 0.501459 0.506600 -0.199068
C9    C     C_2   0.496547 0.032604 0.434081 -0.339636
C10   C     C_2   0.523784 0.967479 0.572114 -0.038487
C11   C     C_R   0.340607 0.499559 0.501864 0.795809
C12   C     C_R   0.507891 0.799792 0.546546 0.844794
C13   C     C_R   0.659443 0.500660 0.498269 0.809087
C14   C     C_3   0.048397 0.400295 0.641811 0.269664
C15   C     C_3   0.041769 0.437746 0.316389 -0.487324
C16   C     C_3   0.944855 0.451524 0.309332 -0.359915
C17   C     C_1   0.748943 0.503125 0.495610 -0.122684
C18   C     C_3   0.083984 0.509231 0.514957 0.212818
Cu1   Cu    Cu3+1 0.509300 0.517380 0.684380 1.027276
Cu2   Cu    Cu3+1 0.490700 0.482620 0.315620 1.024425
H1    H     H_    0.924473 0.434217 0.762173 0.079898
H2    H     H_    0.466575 0.960563 0.304880 0.156932
H3    H     H_    0.069417 0.496660 0.217019 0.191247
H4    H     H_    0.055572 0.313923 0.263184 0.186583
H5    H     H_    0.911868 0.334257 0.243164 0.226747
H6    H     H_    0.926227 0.532890 0.221753 0.172180
H7    H     H_    0.952452 0.701043 0.744927 0.137366
N1    N     N_2   0.476670 0.456430 0.038530 -0.024263
N2    N     N_2   0.523330 0.543570 0.961470 0.221494
O1    O     O_R   0.506050 0.286130 0.619770 -0.600732
O2    O     O_R   0.490330 0.256780 0.308370 -0.592591
O3    O     O_R   0.387300 0.514690 0.655770 -0.614778
O4    O     O_R   0.371580 0.485340 0.344370 -0.593621
O5    O     O_R   0.509670 0.743220 0.691630 -0.573232
O6    O     O_R   0.493950 0.713870 0.380230 -0.554047
O7    O     O_R   0.628420 0.514660 0.655630 -0.552946
O8    O     O_R   0.612700 0.485310 0.344230 -0.507726
F1    F     F_    0.910435 0.246879 0.550278 -0.677634
C19   C     C_3   0.083039 0.459149 0.846430 -0.953642
H8    H     H_    0.044304 0.548803 0.922412 0.195849
H9    H     H_    0.079592 0.362387 0.919512 0.242283
H10   H     H_    0.150518 0.505314 0.861539 0.257071
C20   C     C_3   0.912601 0.814664 0.537383 -0.745534
H11   H     H_    0.947034 0.930722 0.600053 0.262870
H12   H     H_    0.904707 0.797552 0.386172 0.243264
H13   H     H_    0.848610 0.819312 0.587992 0.232074
C21   C     C_3   0.574761 0.057417 0.748393 -0.718354
H14   H     H_    0.607000 0.977069 0.821671 0.232758
H15   H     H_    0.625792 0.137259 0.717632 0.242229
H16   H     H_    0.532501 0.124938 0.843248 0.245414
C22   C     C_3   0.395212 0.385813 0.949994 -0.460419
H17   H     H_    0.369118 0.306558 0.031486 0.170637
H18   H     H_    0.349967 0.477893 0.948207 0.180692
H19   H     H_    0.399740 0.308599 0.814134 0.188498
F2    F     F_    0.593543 0.614470 0.062960 -0.525420
C23   C     C_3   0.076111 0.228718 0.583601 -0.725404
H20   H     H_    0.146204 0.226853 0.588350 0.205341
H21   H     H_    0.054018 0.157216 0.677933 0.226789
H22   H     H_    0.048131 0.164945 0.445588 0.235646
C24   C     C_3   0.109073 0.789348 0.748851 -0.877301
H23   H     H_    0.090220 0.762972 0.876693 0.217351
H24   H     H_    0.178424 0.779814 0.744731 0.239864
H25   H     H_    0.097844 0.915851 0.765974 0.227207
C25   C     C_3   0.080437 0.776620 0.418166 -0.802555
H26   H     H_    0.076185 0.905077 0.463916 0.228705
H27   H     H_    0.146383 0.759541 0.381883 0.221407
H28   H     H_    0.036955 0.739494 0.291115 0.214626

loop_
_geom_bond_atom_site_label_1
_geom_bond_atom_site_label_2
_ccdc_geom_bond_type
C15   C18   S    
C14   C23   S    
C20   H11   S    
C4    C20   S    
C21   H16   S    
Cu2   N1    S    
C9    C10   D    
C2    F1    S    
C13   O8    A    
Cu1   Cu2   S    
C23   H22   S    
C13   C17   S    
C7    C18   S    
C25   H26   S    
C22   H19   S    
C2    H1    S    
C15   H3    S    
C2    C3    S    
C7    C8    T    
C19   H9    S    
C1    O1    A    
C12   O6    A    
Cu2   O8    S    
Cu1   O1    S    
C10   C12   S    
C24   H23   S    
C24   H25   S    
Cu2   O4    S    
C24   H24   S    
C15   H4    S    
N1    C22   S    
C23   H21   S    
C11   O3    A    
C19   H10   S    
Cu1   O7    S    
C8    C11   S    
C1    O2    A    
C16   H6    S    
C2    C14   S    
C20   H13   S    
C9    H2    S    
C10   C21   S    
C15   C16   S    
Cu1   O3    S    
C12   O5    A    
C22   H17   S    
C19   H8    S    
C25   H28   S    
C11   O4    A    
C4    H7    S    
C1    C9    S    
C23   H20   S    
C13   O7    A    
C21   H15   S    
C3    C6    S    
C16   H5    S    
C6    C17   T    
C14   C18   S    
N1    N2    D    
C5    C18   S    
N2    F2    S    
C5    C24   S    
C22   H18   S    
C14   C19   S    
Cu2   O6    S    
C20   H12   S    
Cu1   O5    S    
C3    C16   S    
C3    C4    S    
C5    C25   S    
C25   H27   S    
C4    C5    S    
C21   H14   S    
Cu2   O2    S    
Cu1   N2    S    
