data_mof_unit_42944.cif
_audit_creation_date              2012-10-26T20:45:10-0400
_audit_creation_method            fapswitch 2.2
_symmetry_space_group_name_H-M    P1
_symmetry_Int_Tables_number       1
_space_group_crystal_system       triclinic
_cell_length_a                    12.722582
_cell_length_b                    13.849286
_cell_length_c                    23.526865
_cell_angle_alpha                 90.222729
_cell_angle_beta                  93.112976
_cell_angle_gamma                 98.781373
_cell_volume                      4090.45358427

loop_
_atom_site_label
_atom_site_type_symbol
_atom_type_description
_atom_site_fract_x
_atom_site_fract_y
_atom_site_fract_z
_atom_type_partial_charge
Br1   Br    Br    0.408376 0.204112 0.061569 -0.440578
Br2   Br    Br    0.596879 0.812052 0.938377 -0.405429
C1    C     C_R   0.482840 0.315550 0.499418 0.522062
C2    C     C_R   0.422477 0.548755 0.698415 0.204815
C3    C     C_R   0.415678 0.471931 0.234079 0.254625
C4    C     C_R   0.416182 0.543513 0.757446 0.270723
C5    C     C_R   0.511899 0.507974 0.209055 0.134840
C6    C     C_R   0.494882 0.504862 0.790607 0.132793
C7    C     C_1   0.528294 0.788060 0.502748 -0.055519
C8    C     C_1   0.471998 0.211811 0.498315 -0.050655
C9    C     C_2   0.546349 0.980915 0.505596 0.284594
C10   C     C_2   0.456318 0.019148 0.494931 0.284336
C11   C     C_1   0.463503 0.124418 0.496961 -0.021759
C12   C     C_R   0.517182 0.684408 0.500960 0.518625
C13   C     C_1   0.537660 0.875452 0.504316 -0.028266
C14   C     C_2   0.025606 0.464028 0.490510 0.252755
C15   C     C_2   0.974230 0.537902 0.507641 0.255092
C16   C     C_R   0.500669 0.501265 0.390733 0.562115
C17   C     C_R   0.499616 0.500491 0.609161 0.558839
C18   C     C_1   0.855119 0.523354 0.508633 0.184386
C19   C     C_1   0.144821 0.477317 0.490695 0.179340
C20   C     C_R   0.518201 0.594292 0.879954 0.434237
C21   C     C_R   0.494770 0.421132 0.118980 0.453251
C22   C     C_R   0.466385 0.421360 0.879456 0.417690
C23   C     C_R   0.603044 0.543566 0.243616 0.266685
C24   C     C_R   0.532013 0.595236 0.120511 0.424742
C25   C     C_R   0.460966 0.421176 0.938942 -0.013692
C26   C     C_R   0.522807 0.598102 0.060625 -0.009019
C27   C     C_R   0.492402 0.509679 0.969588 -0.132809
C28   C     C_R   0.497762 0.508969 0.029809 -0.134496
C29   C     C_R   0.519680 0.598406 0.940070 -0.014844
C30   C     C_R   0.479438 0.418991 0.059097 -0.018907
C31   C     C_R   0.424975 0.334703 0.968457 0.294947
C32   C     C_R   0.537620 0.687515 0.030854 0.287236
C33   C     C_R   0.442647 0.331453 0.027639 0.185335
C34   C     C_R   0.574882 0.464237 0.764296 0.266807
C35   C     C_R   0.545521 0.687235 0.971658 0.180964
C36   C     C_3   0.268963 0.263278 0.921571 0.044086
C37   C     C_3   0.191134 0.237939 0.968733 -0.273057
C38   C     C_3   0.077317 0.246604 0.947831 -0.485701
C39   C     C_3   0.451303 0.799203 0.074587 0.044513
C40   C     C_3   0.402069 0.858478 0.028200 -0.259078
C41   C     C_3   0.300838 0.892508 0.047287 -0.464371
C42   C     C_3   0.761751 0.501955 0.222029 0.034335
C43   C     C_3   0.874843 0.543962 0.207258 -0.253071
C44   C     C_3   0.948962 0.467483 0.214033 -0.491216
C45   C     C_R   0.596317 0.549975 0.302692 0.184717
C46   C     C_3   0.736000 0.497994 0.812760 0.024110
C47   C     C_3   0.801050 0.462540 0.862789 -0.256930
C48   C     C_3   0.889841 0.542650 0.885057 -0.488313
C49   C     C_3   0.666986 0.688215 0.354109 0.036273
C50   C     C_3   0.715048 0.767801 0.314055 -0.257297
C51   C     C_3   0.698420 0.868908 0.334417 -0.488716
C52   C     C_3   0.598572 0.317608 0.657420 0.040573
C53   C     C_3   0.618261 0.235887 0.698364 -0.251743
C54   C     C_3   0.572578 0.135645 0.672896 -0.493457
C55   C     C_3   0.335750 0.320277 0.332566 0.031036
C56   C     C_R   0.572673 0.456931 0.704896 0.196956
C57   C     C_3   0.301778 0.247776 0.283163 -0.245770
C58   C     C_3   0.297578 0.142414 0.302723 -0.496546
C59   C     C_3   0.396196 0.685521 0.647746 0.041217
C60   C     C_3   0.380277 0.766875 0.689173 -0.250766
C61   C     C_3   0.423062 0.867416 0.666216 -0.487670
C62   C     C_3   0.276047 0.512031 0.178552 0.020212
C63   C     C_3   0.207650 0.475736 0.125014 -0.256919
C64   C     C_3   0.159483 0.558217 0.095700 -0.494113
C65   C     C_3   0.260446 0.503560 0.802872 0.028840
C66   C     C_3   0.149455 0.511724 0.776978 -0.252544
C67   C     C_R   0.503231 0.504985 0.328188 -0.095857
C68   C     C_3   0.066729 0.428401 0.796247 -0.497757
C69   C     C_3   0.281324 0.998430 0.453768 0.008925
C70   C     C_3   0.205133 0.037252 0.493250 -0.256417
C71   C     C_3   0.122150 0.085580 0.459412 -0.498496
C72   C     C_3   0.733009 0.996507 0.524533 0.008631
C73   C     C_3   0.747137 0.965001 0.586569 -0.264497
C74   C     C_3   0.840591 0.908446 0.594831 -0.481851
C75   C     C_3   0.985102 0.708121 0.519794 0.004398
C76   C     C_3   0.978057 0.739522 0.457367 -0.269364
C77   C     C_3   0.924129 0.830184 0.450846 -0.498690
C78   C     C_R   0.498505 0.502268 0.671569 -0.096732
C79   C     C_3   0.009673 0.313803 0.440655 -0.001752
C80   C     C_3   0.009325 0.350580 0.379153 -0.271622
C81   C     C_3   0.026837 0.270608 0.337451 -0.470175
C82   C     C_R   0.413859 0.462874 0.293252 0.202974
Cu1   Cu    Cu3+1 0.395330 0.493960 0.496390 1.003471
Cu2   Cu    Cu3+1 0.604670 0.506040 0.503610 1.001185
H1    H     H_    0.243839 0.212394 0.885040 0.172941
H2    H     H_    0.460395 0.923477 0.018019 0.237373
H3    H     H_    0.381842 0.812710 0.989106 0.181276
H4    H     H_    0.240717 0.828630 0.057048 0.137708
H5    H     H_    0.266885 0.934752 0.012713 0.181582
H6    H     H_    0.318924 0.940308 0.085699 0.180662
H7    H     H_    0.728910 0.442777 0.190873 0.150913
H8    H     H_    0.765827 0.470257 0.265522 0.153082
H9    H     H_    0.874214 0.570144 0.162651 0.177691
H10   H     H_    0.905438 0.607076 0.236024 0.181125
H11   H     H_    0.950109 0.440303 0.258353 0.151091
H12   H     H_    0.263108 0.337988 0.905432 0.100406
H13   H     H_    0.030948 0.500849 0.204911 0.147036
H14   H     H_    0.922666 0.405240 0.184063 0.156421
H15   H     H_    0.708637 0.566977 0.826204 0.155083
H16   H     H_    0.787708 0.513850 0.776210 0.155331
H17   H     H_    0.747754 0.439793 0.897847 0.193068
H18   H     H_    0.836296 0.398161 0.849096 0.173399
H19   H     H_    0.942411 0.569231 0.850427 0.150296
H20   H     H_    0.938423 0.513254 0.919602 0.145652
H21   H     H_    0.855435 0.604915 0.902432 0.175526
H22   H     H_    0.707835 0.701835 0.396957 0.161265
H23   H     H_    0.194219 0.161998 0.983061 0.206525
H24   H     H_    0.581354 0.693682 0.359356 0.108586
H25   H     H_    0.801771 0.765787 0.311982 0.173748
H26   H     H_    0.676836 0.754250 0.270586 0.225040
H27   H     H_    0.611999 0.873443 0.334513 0.158380
H28   H     H_    0.736145 0.925242 0.305336 0.162418
H29   H     H_    0.734935 0.884460 0.378063 0.138133
H30   H     H_    0.636029 0.305780 0.616905 0.178648
H31   H     H_    0.511302 0.312531 0.646636 0.101899
H32   H     H_    0.705340 0.239286 0.707728 0.184643
H33   H     H_    0.580156 0.245851 0.738932 0.221166
H34   H     H_    0.214005 0.288582 0.005599 0.170733
H35   H     H_    0.484835 0.129342 0.665300 0.153436
H36   H     H_    0.590163 0.077664 0.702825 0.161052
H37   H     H_    0.608719 0.124192 0.631958 0.176134
H38   H     H_    0.284374 0.299820 0.368629 0.151008
H39   H     H_    0.418567 0.314188 0.348751 0.108349
H40   H     H_    0.221954 0.258088 0.264851 0.194320
H41   H     H_    0.359594 0.261480 0.249301 0.226060
H42   H     H_    0.376486 0.130653 0.321631 0.151295
H43   H     H_    0.275899 0.091980 0.265707 0.168577
H44   H     H_    0.236633 0.125157 0.334708 0.128717
H45   H     H_    0.071932 0.322746 0.934715 0.137558
H46   H     H_    0.356010 0.698404 0.605956 0.182188
H47   H     H_    0.482642 0.689681 0.640190 0.099477
H48   H     H_    0.293990 0.763082 0.696026 0.190207
H49   H     H_    0.422664 0.756838 0.730773 0.218990
H50   H     H_    0.509819 0.873479 0.660250 0.145606
H51   H     H_    0.410084 0.924903 0.696955 0.162887
H52   H     H_    0.381124 0.879893 0.624850 0.169391
H53   H     H_    0.333729 0.576955 0.167011 0.127335
H54   H     H_    0.224571 0.535491 0.211035 0.143632
H55   H     H_    0.257524 0.444232 0.094609 0.178874
H56   H     H_    0.022801 0.227156 0.982695 0.168593
H57   H     H_    0.142678 0.417241 0.136581 0.172440
H58   H     H_    0.111074 0.593009 0.125342 0.148517
H59   H     H_    0.107389 0.528367 0.058340 0.151490
H60   H     H_    0.223493 0.614336 0.080635 0.139352
H61   H     H_    0.260266 0.511032 0.849925 0.136805
H62   H     H_    0.278157 0.428670 0.793305 0.131232
H63   H     H_    0.126723 0.582669 0.789915 0.171682
H64   H     H_    0.150544 0.509394 0.729779 0.207346
H65   H     H_    0.086643 0.356848 0.782494 0.155056
H66   H     H_    0.987063 0.436558 0.776889 0.160992
H67   H     H_    0.051449 0.196194 0.911171 0.158586
H68   H     H_    0.063583 0.429695 0.843320 0.140012
H69   H     H_    0.234525 0.939684 0.426495 0.153760
H70   H     H_    0.315474 0.055518 0.423860 0.116603
H71   H     H_    0.164067 0.975737 0.517906 0.164471
H72   H     H_    0.250325 0.091551 0.523853 0.169779
H73   H     H_    0.161875 0.149884 0.436594 0.137601
H74   H     H_    0.066096 0.110282 0.488882 0.141666
H75   H     H_    0.076206 0.033225 0.427988 0.142393
H76   H     H_    0.803955 0.050050 0.514942 0.157115
H77   H     H_    0.732116 0.934875 0.493949 0.118413
H78   H     H_    0.465430 0.844341 0.114198 0.185247
H79   H     H_    0.761625 0.030911 0.614669 0.168197
H80   H     H_    0.673808 0.918142 0.599551 0.158873
H81   H     H_    0.824560 0.839506 0.569499 0.146168
H82   H     H_    0.851358 0.889948 0.640439 0.157217
H83   H     H_    0.915159 0.952999 0.581491 0.141195
H84   H     H_    0.033976 0.768835 0.544729 0.160711
H85   H     H_    0.905975 0.697785 0.538647 0.125868
H86   H     H_    0.059691 0.755621 0.441696 0.176637
H87   H     H_    0.931889 0.679646 0.430657 0.164421
H88   H     H_    0.840217 0.813367 0.462892 0.139498
H89   H     H_    0.393411 0.733416 0.084738 0.098921
H90   H     H_    0.924929 0.853905 0.405835 0.146113
H91   H     H_    0.966731 0.890840 0.478206 0.144090
H92   H     H_    0.960441 0.240306 0.441118 0.165507
H93   H     H_    0.090829 0.303246 0.456805 0.122770
H94   H     H_    0.931590 0.374566 0.367404 0.181247
H95   H     H_    0.073316 0.414163 0.375552 0.167840
H96   H     H_    0.099700 0.239855 0.350629 0.143285
H97   H     H_    0.035873 0.301251 0.294166 0.158992
H98   H     H_    0.957662 0.210900 0.335904 0.148266
N1    N     N_R   0.493488 0.506849 0.851595 -0.383364
N2    N     N_R   0.515829 0.508091 0.148026 -0.378578
N3    N     N_1   0.238030 0.484870 0.490960 -0.195311
N4    N     N_1   0.761970 0.515130 0.509040 -0.194439
O1    O     O_R   0.399110 0.356330 0.496510 -0.512540
O2    O     O_2   0.489089 0.337772 0.148706 -0.438343
O3    O     O_2   0.446045 0.336773 0.849359 -0.454155
O4    O     O_2   0.557020 0.678577 0.151444 -0.457102
O5    O     O_3   0.374283 0.251006 0.940004 -0.483574
O6    O     O_3   0.551443 0.776864 0.059307 -0.485451
O7    O     O_3   0.698074 0.577058 0.219345 -0.513919
O8    O     O_3   0.650188 0.423808 0.796986 -0.520210
O9    O     O_3   0.684610 0.595032 0.335106 -0.540535
O10   O     O_3   0.647451 0.409605 0.680141 -0.533140
O11   O     O_3   0.322025 0.416250 0.316335 -0.532692
O12   O     O_R   0.600890 0.643670 0.503490 -0.518931
O13   O     O_3   0.348113 0.593309 0.667195 -0.525794
O14   O     O_3   0.326014 0.434526 0.200444 -0.524850
O15   O     O_3   0.334843 0.580798 0.782625 -0.523571
O16   O     O_3   0.359580 0.956242 0.485920 -0.596085
O17   O     O_3   0.642545 0.044203 0.516676 -0.596990
O18   O     O_3   0.037473 0.625285 0.525891 -0.593738
O19   O     O_3   0.962033 0.374670 0.476612 -0.596931
O20   O     O_R   0.575900 0.366540 0.502610 -0.480100
O21   O     O_R   0.424100 0.633460 0.497390 -0.481986
O22   O     O_R   0.411590 0.494870 0.414830 -0.465253
O23   O     O_R   0.588410 0.505130 0.585170 -0.467506
O24   O     O_R   0.588370 0.505070 0.420930 -0.461629
O25   O     O_R   0.411630 0.494930 0.579070 -0.462350
O26   O     O_2   0.541230 0.676076 0.849410 -0.441658

loop_
_geom_bond_atom_site_label_1
_geom_bond_atom_site_label_2
_ccdc_geom_bond_type
Cu1   N3    S    
C53   C54   S    
Cu2   N4    S    
C14   C19   S    
C38   H56   S    
C25   C27   A    
C32   C35   A    
C39   C40   S    
C5    N2    S    
C22   C25   A    
C36   H12   S    
C14   O19   S    
Cu1   O22   S    
C47   H18   S    
C79   C80   S    
C59   H47   S    
C53   H33   S    
C43   C44   S    
C25   C31   A    
C57   H40   S    
C71   H74   S    
C39   O6    S    
C17   O23   A    
C1    O20   A    
C15   O18   S    
C16   O22   A    
Cu2   O24   S    
C79   H92   S    
C2    C78   A    
C34   C56   A    
C1    O1    A    
C55   H39   S    
C36   C37   S    
C63   H57   S    
C55   C57   S    
C64   H58   S    
C50   H26   S    
Cu1   O1    S    
C37   H34   S    
C42   H8    S    
C15   C18   S    
C70   H72   S    
C74   H81   S    
C6    C34   A    
C45   C67   A    
C64   H59   S    
C71   H75   S    
C66   H63   S    
C49   O9    S    
C59   H46   S    
C59   O13   S    
C9    C13   S    
C14   C15   D    
C52   H30   S    
C76   H87   S    
C77   H91   S    
C42   H7    S    
C51   H28   S    
C73   H80   S    
C23   C45   A    
C59   C60   S    
C23   O7    S    
C75   C76   S    
C79   O19   S    
C32   O6    S    
C16   C67   S    
C39   H89   S    
C26   C32   A    
C57   C58   S    
C46   O8    S    
C12   O21   A    
C61   H51   S    
C77   H88   S    
C17   C78   S    
C51   H27   S    
C19   N3    T    
C82   O11   S    
C69   O16   S    
C41   H4    S    
C20   C29   A    
C65   C66   S    
C54   H37   S    
C67   C82   A    
C58   H42   S    
C68   H66   S    
Cu2   O23   S    
C79   H93   S    
C2    C4    A    
C72   C73   S    
C58   H44   S    
C37   C38   S    
C72   H76   S    
C3    C82   A    
C24   O4    S    
C76   C77   S    
C49   H22   S    
C4    C6    A    
C50   H25   S    
Cu1   Cu2   S    
C12   O12   A    
C41   H5    S    
C70   H71   S    
C49   C50   S    
C81   H96   S    
C22   N1    A    
C17   O25   A    
C54   H36   S    
C60   H49   S    
C16   O24   A    
C73   C74   S    
C34   O8    S    
C27   C28   A    
Cu1   O25   S    
C48   H19   S    
C63   H55   S    
C30   C33   A    
C44   H14   S    
C80   H95   S    
C75   H85   S    
C69   H69   S    
C60   C61   S    
C76   H86   S    
C63   C64   S    
C7    C12   S    
C81   H97   S    
C73   H79   S    
C5    C23   A    
C46   C47   S    
C38   H45   S    
C47   C48   S    
C49   H24   S    
C20   O26   S    
C65   H61   S    
C48   H21   S    
C61   H52   S    
C38   H67   S    
C39   H78   S    
C40   H2    S    
C40   C41   S    
Cu2   O20   S    
C43   H9    S    
C3    O14   S    
C50   C51   S    
Br1   C33   S    
C3    C5    A    
C62   H54   S    
C18   N4    T    
C66   H64   S    
C62   O14   S    
C52   C53   S    
C56   O10   S    
C42   O7    S    
C42   C43   S    
C68   H68   S    
C77   H90   S    
C44   H11   S    
C68   H65   S    
C46   H16   S    
C70   C71   S    
C8    C11   T    
Cu1   O21   S    
C58   H43   S    
C47   H17   S    
C21   N2    A    
C9    C10   D    
C56   C78   A    
C6    N1    S    
C71   H73   S    
C24   C26   A    
C41   H6    S    
C52   O10   S    
C36   O5    S    
C36   H1    S    
C40   H3    S    
C54   H35   S    
C60   H48   S    
C44   H13   S    
C26   C28   A    
C7    C13   T    
C4    O15   S    
C27   C29   A    
C1    C8    S    
C75   O18   S    
C21   C30   A    
C55   H38   S    
C28   C30   A    
C24   N2    A    
Br2   C35   S    
C2    O13   S    
C72   H77   S    
C20   N1    A    
C69   H70   S    
C62   C63   S    
C31   C33   A    
C81   H98   S    
C74   H82   S    
C22   O3    S    
C10   O16   S    
C74   H83   S    
C64   H60   S    
C65   O15   S    
C46   H15   S    
C31   O5    S    
C53   H32   S    
C29   C35   A    
C37   H23   S    
C69   C70   S    
C10   C11   S    
C66   C68   S    
C80   C81   S    
C52   H31   S    
C80   H94   S    
C65   H62   S    
C48   H20   S    
C45   O9    S    
C61   H50   S    
C9    O17   S    
C75   H84   S    
C43   H10   S    
C57   H41   S    
C72   O17   S    
C21   O2    S    
C55   O11   S    
C51   H29   S    
Cu2   O12   S    
C62   H53   S    
