data_mof_unit_18485.cif
_audit_creation_date              2012-12-11T15:21:38-0500
_audit_creation_method            fapswitch 2.2
_symmetry_space_group_name_H-M    P1
_symmetry_Int_Tables_number       1
_space_group_crystal_system       triclinic
_cell_length_a                    19.230898
_cell_length_b                    7.145827
_cell_length_c                    17.886833
_cell_angle_alpha                 89.526582
_cell_angle_beta                  108.183662
_cell_angle_gamma                 89.727199
_cell_volume                      2335.12026577

loop_
_atom_site_label
_atom_site_type_symbol
_atom_type_description
_atom_site_fract_x
_atom_site_fract_y
_atom_site_fract_z
_atom_type_partial_charge
O1    O     O_R   0.562310 0.505770 0.439670 -0.542320
O2    O     O_R   0.437690 0.005770 0.560330 -0.538288
O3    O     O_R   0.411650 0.169150 0.405330 -0.543000
O4    O     O_R   0.588350 0.669150 0.594670 -0.543291
C1    C     C_R   0.383802 0.348420 0.384669 0.650835
C2    C     C_R   0.615778 0.848012 0.616593 0.643248
O5    O     O_R   0.560140 0.175610 0.430010 -0.536439
O6    O     O_R   0.439860 0.675610 0.569990 -0.534312
O7    O     O_R   0.587240 0.012100 0.585200 -0.534309
O8    O     O_R   0.412760 0.512100 0.414800 -0.542766
C3    C     C_R   0.578323 0.346140 0.411802 0.709631
C4    C     C_R   0.417942 0.842656 0.584492 0.698914
O9    O     O_3   0.508720 0.341420 0.550890 -0.378652
O10   O     O_3   0.491280 0.841420 0.449110 -0.385549
V1    V     V_3+5 0.498380 0.063930 0.490560 1.339956
V2    V     V_3+5 0.501620 0.563930 0.509440 1.340932
C5    C     C_R   0.168878 0.755225 0.865097 -0.220082
C6    C     C_R   0.835278 0.572957 0.149961 -0.227910
C7    C     C_R   0.123570 0.912846 0.858670 -0.075903
C8    C     C_R   0.877668 0.416820 0.143332 -0.077863
C9    C     C_R   0.123172 0.052448 0.802484 -0.217162
C10   C     C_R   0.873976 0.253124 0.186367 -0.209936
C11   C     C_R   0.167447 0.033600 0.753075 0.063922
C12   C     C_R   0.827237 0.244664 0.233443 0.061069
C13   C     C_R   0.214272 0.877176 0.761710 0.057750
C14   C     C_R   0.780010 0.396029 0.233341 0.061921
C15   C     C_R   0.214159 0.737494 0.817816 0.107301
C16   C     C_R   0.784177 0.560168 0.190838 0.105326
C17   C     C_R   0.164557 0.166693 0.694361 -0.219122
C18   C     C_R   0.827455 0.088104 0.280946 -0.231898
C19   C     C_R   0.208102 0.148492 0.644335 0.143696
C20   C     C_R   0.780624 0.077873 0.327675 0.149215
C21   C     C_R   0.259629 0.997725 0.656772 0.065336
C22   C     C_R   0.728688 0.224392 0.322955 0.062544
C23   C     C_R   0.261623 0.860572 0.715032 -0.016694
C24   C     C_R   0.728831 0.384049 0.275693 -0.020161
C25   C     C_R   0.310986 0.706632 0.727512 0.084120
C26   C     C_R   0.678285 0.532874 0.270508 0.094839
C27   C     C_R   0.306916 0.565486 0.782095 -0.189905
C28   C     C_R   0.685031 0.696633 0.228468 -0.185688
C29   C     C_R   0.259283 0.580925 0.826133 -0.201542
C30   C     C_R   0.737085 0.709826 0.189507 -0.217401
C31   C     C_R   0.309952 0.982403 0.613931 -0.269659
C32   C     C_R   0.677928 0.217608 0.365307 -0.263347
C33   C     C_R   0.364536 0.842607 0.630703 -0.116741
C34   C     C_R   0.625689 0.360224 0.359383 -0.122732
C35   C     C_R   0.364042 0.699235 0.687032 0.098090
C36   C     C_R   0.622641 0.515629 0.307314 0.087278
H1    H     H_    0.126823 0.283887 0.686389 0.127418
H2    H     H_    0.865609 0.974496 0.282949 0.129952
H3    H     H_    0.340258 0.440522 0.792646 0.138437
H4    H     H_    0.652365 0.820299 0.227549 0.141167
C37   C     C_3   0.747172 0.802499 0.841600 0.286479
C38   C     C_3   0.257352 0.289837 0.161686 0.277965
C39   C     C_3   0.676830 0.777607 0.763944 -0.076202
C40   C     C_3   0.327289 0.270035 0.240460 -0.093740
C41   C     C_3   0.823948 0.800124 0.743760 -0.359792
C42   C     C_3   0.176849 0.308494 0.255366 -0.349423
C43   C     C_3   0.782328 0.102230 0.778291 -0.387160
C44   C     C_3   0.222194 0.599782 0.213820 -0.398755
C45   C     C_3   0.810426 0.907122 0.813998 -0.015508
C46   C     C_3   0.192484 0.404062 0.183602 0.015089
C47   C     C_3   0.685595 0.878668 0.689222 0.018549
C48   C     C_3   0.315256 0.377074 0.311332 0.038525
C49   C     C_3   0.753315 0.791194 0.671856 -0.375547
C50   C     C_3   0.246929 0.291589 0.327688 -0.390482
C51   C     C_3   0.705217 0.090839 0.715269 0.059647
C52   C     C_3   0.296530 0.588070 0.281576 0.055918
O11   O     O_R   0.087220 0.271820 0.085230 -0.534350
O12   O     O_R   0.912780 0.771820 0.914770 -0.534539
O13   O     O_R   0.939860 0.595540 0.069990 -0.540329
O14   O     O_R   0.060140 0.095540 0.930010 -0.546827
C53   C     C_R   0.924136 0.425608 0.090412 0.698158
C54   C     C_R   0.076419 0.925862 0.910196 0.683962
O15   O     O_R   0.088340 0.601930 0.094680 -0.544786
O16   O     O_R   0.911660 0.101930 0.905320 -0.541376
O17   O     O_R   0.062310 0.765410 0.939660 -0.540399
O18   O     O_R   0.937690 0.265410 0.060340 -0.537167
C55   C     C_R   0.118295 0.429766 0.115215 0.656384
C56   C     C_R   0.883923 0.930827 0.882177 0.659298
O19   O     O_3   0.991270 0.429630 0.949130 -0.371421
O20   O     O_3   0.008730 0.929630 0.050870 -0.377855
V3    V     V_3+5 0.001620 0.707150 0.009440 1.363038
V4    V     V_3+5 0.998380 0.207150 0.990560 1.361789
H5    H     H_    0.170078 0.646647 0.908238 0.128267
H6    H     H_    0.839855 0.703915 0.121066 0.127166
C57   C     C_3   0.734502 0.938884 0.908126 -0.255490
C58   C     C_3   0.688049 0.899365 0.963031 -0.775702
H7    H     H_    0.628525 0.906620 0.933173 0.234311
H8    H     H_    0.702433 0.771692 0.999129 0.228880
H9    H     H_    0.698255 0.014365 0.006548 0.199265
H10   H     H_    0.788819 0.974566 0.949652 0.147739
H11   H     H_    0.711283 0.073064 0.879998 0.146559
C59   C     C_3   0.274338 0.403167 0.092585 -0.299467
C60   C     C_3   0.315354 0.300818 0.043087 -0.762403
H12   H     H_    0.347585 0.179515 0.074304 0.244508
H13   H     H_    0.276598 0.251084 0.986960 0.215703
H14   H     H_    0.353227 0.399251 0.027343 0.207493
H15   H     H_    0.222674 0.457500 0.050285 0.138923
H16   H     H_    0.305147 0.531847 0.116144 0.144070
C61   C     C_3   0.602329 0.811267 0.778262 -0.326227
C62   C     C_3   0.584457 0.649856 0.826253 -0.796839
H17   H     H_    0.574908 0.518693 0.791895 0.207629
H18   H     H_    0.629525 0.617011 0.879924 0.262876
H19   H     H_    0.536147 0.688198 0.844292 0.214007
H20   H     H_    0.600273 0.948033 0.805859 0.178812
H21   H     H_    0.557120 0.819904 0.722210 0.150609
C63   C     C_3   0.405233 0.301104 0.231115 -0.364111
C64   C     C_3   0.447815 0.118648 0.232136 -0.775274
H22   H     H_    0.457675 0.043431 0.289061 0.248253
H23   H     H_    0.417538 0.025236 0.184070 0.211280
H24   H     H_    0.501704 0.150490 0.224542 0.225165
H25   H     H_    0.404554 0.381318 0.178551 0.212210
H26   H     H_    0.439806 0.387277 0.279070 0.169355
H27   H     H_    0.672159 0.630768 0.743297 0.128667
H28   H     H_    0.330386 0.123269 0.262689 0.140640
H29   H     H_    0.846203 0.657162 0.759723 0.141187
H30   H     H_    0.151248 0.169475 0.240259 0.147705
H31   H     H_    0.742384 0.645504 0.652713 0.136303
H32   H     H_    0.257140 0.143542 0.345591 0.136414
H33   H     H_    0.822965 0.161907 0.752126 0.169042
H34   H     H_    0.180161 0.673821 0.233831 0.171347
H35   H     H_    0.781545 0.204219 0.824184 0.113762
H36   H     H_    0.228484 0.687331 0.164949 0.119361
H37   H     H_    0.665343 0.135466 0.745266 0.072117
H38   H     H_    0.339158 0.629719 0.254585 0.077351
C65   C     C_3   0.698449 0.250682 0.653883 -0.291420
C66   C     C_3   0.733345 0.216046 0.589459 -0.748911
H39   H     H_    0.791936 0.177057 0.615081 0.212446
H40   H     H_    0.703405 0.106262 0.548875 0.223427
H41   H     H_    0.730070 0.346527 0.554319 0.201191
H42   H     H_    0.641180 0.297830 0.627300 0.219235
H43   H     H_    0.725174 0.373523 0.687454 0.137150
C67   C     C_3   0.299159 0.748268 0.341004 -0.304246
C68   C     C_3   0.261400 0.712978 0.403249 -0.730686
H44   H     H_    0.203817 0.669586 0.375619 0.214969
H45   H     H_    0.291923 0.607151 0.447069 0.220600
H46   H     H_    0.260826 0.844696 0.435541 0.194059
H47   H     H_    0.355718 0.796425 0.369705 0.213852
H48   H     H_    0.272392 0.871193 0.305905 0.136522
H49   H     H_    0.867071 0.873114 0.725346 0.142477
H50   H     H_    0.135409 0.392609 0.272441 0.140186
H51   H     H_    0.087467 0.173361 0.796184 0.126713
H52   H     H_    0.908180 0.133585 0.184154 0.126834
H53   H     H_    0.763348 0.860728 0.620873 0.163427
H54   H     H_    0.236934 0.356683 0.379137 0.161762
C69   C     C_3   0.196733 0.291560 0.578230 -0.350062
C70   C     C_3   0.153810 0.208579 0.498947 -0.770653
H55   H     H_    0.144306 0.317988 0.452324 0.212339
H56   H     H_    0.184295 0.090709 0.483445 0.222912
H57   H     H_    0.099890 0.157537 0.500794 0.234264
H58   H     H_    0.165468 0.414752 0.588506 0.184775
H59   H     H_    0.249361 0.348146 0.575602 0.171169
C71   C     C_3   0.789305 0.910607 0.382769 -0.340416
C72   C     C_3   0.833495 0.961892 0.466709 -0.782402
H60   H     H_    0.808535 0.083457 0.487010 0.231636
H61   H     H_    0.835246 0.841195 0.506779 0.215084
H62   H     H_    0.890383 0.997851 0.469510 0.233446
H63   H     H_    0.735379 0.853303 0.381158 0.169292
H64   H     H_    0.818479 0.794151 0.364043 0.190033
H65   H     H_    0.308658 0.082652 0.567979 0.144618
H66   H     H_    0.678764 0.101333 0.404462 0.144578
C73   C     C_3   0.423245 0.548157 0.709732 -0.379787
C74   C     C_3   0.399185 0.365435 0.666930 -0.686105
H67   H     H_    0.378902 0.387928 0.602274 0.231945
H68   H     H_    0.446162 0.265982 0.681312 0.215883
H69   H     H_    0.355590 0.302545 0.686716 0.208034
H70   H     H_    0.473290 0.593958 0.698519 0.208543
H71   H     H_    0.440952 0.520456 0.773864 0.165343
C75   C     C_3   0.558463 0.655498 0.285790 -0.334803
C76   C     C_3   0.514782 0.651767 0.197762 -0.803768
H72   H     H_    0.537013 0.750436 0.163076 0.231307
H73   H     H_    0.514934 0.509103 0.173679 0.238751
H74   H     H_    0.457197 0.695022 0.188922 0.201577
H75   H     H_    0.518173 0.627181 0.316476 0.195175
H76   H     H_    0.578504 0.799046 0.303475 0.171256
H77   H     H_    0.258557 0.470486 0.867783 0.129938
H78   H     H_    0.740214 0.837925 0.157867 0.136438
C77   C     C_3   0.771474 0.593250 0.870990 -0.326882
C78   C     C_3   0.784154 0.541288 0.955856 -0.713612
H79   H     H_    0.814166 0.654239 0.993412 0.245017
H80   H     H_    0.732581 0.506567 0.967753 0.200297
H81   H     H_    0.815645 0.408465 0.967530 0.202545
H82   H     H_    0.731348 0.487027 0.839969 0.145392
H83   H     H_    0.821038 0.549376 0.857275 0.180926
C79   C     C_3   0.238094 0.079457 0.138804 -0.346563
C80   C     C_3   0.193238 0.035341 0.055558 -0.653699
H84   H     H_    0.174296 0.163679 0.020495 0.242558
H85   H     H_    0.225600 0.951393 0.025879 0.176978
H86   H     H_    0.146388 0.949422 0.058312 0.237047
H87   H     H_    0.289294 0.996562 0.148388 0.161624
H88   H     H_    0.212107 0.014183 0.179478 0.147616

loop_
_geom_bond_atom_site_label_1
_geom_bond_atom_site_label_2
_ccdc_geom_bond_type
C61   H21   S    
C68   H46   S    
C27   H3    S    
C57   C58   S    
C47   C49   S    
C42   C46   S    
C61   C62   S    
C52   H38   S    
C72   H61   S    
C60   H12   S    
O1    C3    A    
C70   H57   S    
C76   H72   S    
O2    C4    A    
C66   H39   S    
O16   V4    S    
C2    O7    A    
C60   H14   S    
C68   H44   S    
C27   C29   A    
C17   H1    S    
O5    C3    A    
C76   H73   S    
C74   H68   S    
C6    H6    S    
C5    H5    S    
C11   C17   A    
C29   H77   S    
C74   H67   S    
C23   C25   A    
C12   C14   A    
C64   H23   S    
C67   H48   S    
C75   C76   S    
O17   V3    S    
C45   C56   S    
C42   H30   S    
C63   C64   S    
C62   H19   S    
C44   C46   S    
C49   H31   S    
C63   H26   S    
C79   H87   S    
C44   H36   S    
C15   C29   A    
C65   H42   S    
C40   C63   S    
C80   H86   S    
C5    C7    A    
C43   C51   S    
C37   C45   S    
C42   C50   S    
C69   C70   S    
C32   C34   A    
C54   O17   A    
C39   C47   S    
C53   O18   A    
C40   C48   S    
C25   C35   A    
C26   C36   A    
C78   H81   S    
C35   C73   S    
C33   C35   A    
C18   H2    S    
O6    V2    S    
C50   H32   S    
C57   H10   S    
C72   H62   S    
C59   C60   S    
C32   H66   S    
C73   H71   S    
C37   C77   S    
C78   H80   S    
O13   V3    S    
C75   H75   S    
C37   C39   S    
C43   H35   S    
C76   H74   S    
C38   C40   S    
C43   C45   S    
C80   H85   S    
O12   C56   A    
C5    C15   A    
O16   C56   A    
C46   C55   S    
C6    C16   A    
C70   H55   S    
C9    H51   S    
O14   C54   A    
C64   H24   S    
C41   C49   S    
C67   H47   S    
O13   C53   A    
C4    C33   S    
C75   H76   S    
O5    V1    S    
C38   C46   S    
C20   C22   A    
C28   H4    S    
C1    C48   S    
C21   C31   A    
C2    C47   S    
O4    V2    S    
C44   H34   S    
C47   C51   S    
C71   H64   S    
O2    V1    S    
C18   C20   A    
C51   C65   S    
C42   H50   S    
C58   H9    S    
C59   H16   S    
O6    C4    A    
C19   C21   A    
C40   H28   S    
C22   C32   A    
C37   C57   S    
O1    V2    S    
C62   H18   S    
O12   V3    S    
C31   C33   A    
C71   C72   S    
O14   V4    S    
C13   C23   A    
C38   C59   S    
C20   C71   S    
C31   H65   S    
O4    C2    A    
C58   H8    S    
C9    C11   A    
C10   C12   A    
O11   C55   A    
C8    C10   A    
C49   H53   S    
C65   C66   S    
C66   H41   S    
C48   C52   S    
O19   V4    S    
O3    V1    S    
C78   H79   S    
C41   H29   S    
C77   H82   S    
C36   C75   S    
C14   C24   A    
C61   H20   S    
C68   H45   S    
C7    C9    A    
C74   H69   S    
C65   H43   S    
C70   H56   S    
C28   C30   A    
O3    C1    A    
C66   H40   S    
C6    C8    A    
C60   H13   S    
C41   C45   S    
C67   C68   S    
C77   H83   S    
C13   C15   A    
C63   H25   S    
C39   C61   S    
C14   C16   A    
C41   H49   S    
C52   C67   S    
C73   H70   S    
O7    V1    S    
C19   C69   S    
C1    O8    A    
C17   C19   A    
O11   V4    S    
O8    V2    S    
C64   H22   S    
C24   C26   A    
C26   C28   A    
O15   V3    S    
C39   H27   S    
C59   H15   S    
C30   H78   S    
C57   H11   S    
C16   C30   A    
C21   C23   A    
C8    C53   S    
C69   H58   S    
C22   C24   A    
C11   C13   A    
C79   H88   S    
C62   H17   S    
C69   H59   S    
C12   C18   A    
C50   H54   S    
C73   C74   S    
C77   C78   S    
C34   C36   A    
O18   V4    S    
C71   H63   S    
C58   H7    S    
C44   C52   S    
C25   C27   A    
O20   V3    S    
C38   C79   S    
O9    V2    S    
C10   H52   S    
C72   H60   S    
O10   V1    S    
C7    C54   S    
C3    C34   S    
C80   H84   S    
C79   C80   S    
C43   H33   S    
O15   C55   A    
C51   H37   S    
C48   C50   S    
