data_mof_unit_54301.cif
_audit_creation_date              2012-12-10T19:11:29-0500
_audit_creation_method            fapswitch 2.2
_symmetry_space_group_name_H-M    P1
_symmetry_Int_Tables_number       1
_space_group_crystal_system       triclinic
_cell_length_a                    10.65068
_cell_length_b                    9.751831
_cell_length_c                    10.521725
_cell_angle_alpha                 89.887049
_cell_angle_beta                  90.862784
_cell_angle_gamma                 90.077088
_cell_volume                      1092.69759775

loop_
_atom_site_label
_atom_site_type_symbol
_atom_type_description
_atom_site_fract_x
_atom_site_fract_y
_atom_site_fract_z
_atom_type_partial_charge
C1    C     C_R   0.257812 0.499884 0.502190 0.848605
C2    C     C_3   0.491002 0.500341 0.121440 -0.105853
C3    C     C_3   0.073771 0.640956 0.552439 -0.426714
C4    C     C_3   0.074761 0.390241 0.599704 -0.402314
C5    C     C_3   0.930782 0.642147 0.558719 0.018265
C6    C     C_3   0.931797 0.377623 0.588906 0.025294
C7    C     C_3   0.065409 0.467236 0.365397 -0.075302
C8    C     C_3   0.120874 0.499499 0.502743 -0.060343
C9    C     C_3   0.877960 0.501443 0.510364 -0.003998
C10   C     C_3   0.920308 0.485894 0.370525 -0.486652
C11   C     C_3   0.387058 0.080759 0.431303 -0.267365
C12   C     C_3   0.388603 0.919411 0.428800 -0.259910
C13   C     C_3   0.614763 0.081870 0.436221 -0.141244
C14   C     C_3   0.616327 0.918632 0.439323 -0.148937
C15   C     C_3   0.498034 0.080828 0.628524 -0.249605
C16   C     C_3   0.495477 0.918619 0.628448 -0.245962
C17   C     C_R   0.492688 0.500116 0.257111 0.948415
C18   C     C_R   0.741928 0.500331 0.508191 0.930436
C19   C     C_R   0.506653 0.499870 0.742199 0.942451
C20   C     C_3   0.441609 0.615062 0.034539 0.199742
C21   C     C_3   0.433221 0.390250 0.034931 0.182117
C22   C     C_3   0.383323 0.504885 0.947112 -0.162910
C23   C     C_3   0.506639 0.499582 0.876545 -0.093157
C24   C     C_3   0.565263 0.610262 0.960907 -0.171193
C25   C     C_3   0.556728 0.384318 0.961355 -0.155368
C26   C     C_3   0.615107 0.494953 0.049294 -0.160261
H1    H     H_    0.288650 0.508856 0.901446 0.183979
H2    H     H_    0.889835 0.578262 0.315816 0.201085
H3    H     H_    0.869169 0.401039 0.322774 0.266583
H4    H     H_    0.378963 0.121620 0.333566 0.169709
H5    H     H_    0.385613 0.882868 0.329709 0.175836
H6    H     H_    0.300669 0.115668 0.479725 0.170234
H7    H     H_    0.301056 0.880408 0.472383 0.173082
H8    H     H_    0.581646 0.117372 0.683439 0.174152
H9    H     H_    0.576067 0.879127 0.686135 0.178089
H10   H     H_    0.414774 0.120125 0.679627 0.182577
H11   H     H_    0.409376 0.881880 0.676643 0.181329
H12   H     H_    0.697948 0.116518 0.493322 0.171032
H13   H     H_    0.697527 0.888663 0.501529 0.169125
H14   H     H_    0.619547 0.700108 0.927130 0.193697
H15   H     H_    0.603311 0.289362 0.928421 0.191699
H16   H     H_    0.709976 0.490793 0.094437 0.199204
H17   H     H_    0.104919 0.726628 0.490580 0.163893
H18   H     H_    0.117015 0.287687 0.582883 0.178556
H19   H     H_    0.115329 0.661337 0.648242 0.219703
H20   H     H_    0.103413 0.420901 0.697775 0.215483
H21   H     H_    0.897193 0.724939 0.493655 0.181450
H22   H     H_    0.909959 0.281820 0.535534 0.190677
N1    N     N_3   0.499750 0.138610 0.497240 -0.084735
N2    N     N_3   0.499750 0.861390 0.497240 -0.085000
O1    O     O_R   0.314910 0.616040 0.499970 -0.630818
O2    O     O_R   0.314910 0.383960 0.499970 -0.653865
O3    O     O_R   0.500080 0.616020 0.313900 -0.619050
O4    O     O_R   0.500080 0.383980 0.313900 -0.623698
O5    O     O_R   0.685320 0.616040 0.499930 -0.604507
O6    O     O_R   0.685320 0.383960 0.499930 -0.611300
O7    O     O_R   0.500150 0.616060 0.686000 -0.628358
O8    O     O_R   0.500150 0.383940 0.686000 -0.627654
Zn1   Zn    Zn3+2 0.500150 0.654960 0.499940 0.946403
Zn2   Zn    Zn3+2 0.500150 0.345040 0.499940 0.939420
C27   C     C_2   0.633081 0.139900 0.304070 0.504305
H23   H     H_    0.562887 0.124169 0.229979 0.058135
O9    O     O_2   0.729333 0.200780 0.277714 -0.545023
C28   C     C_2   0.642545 0.855214 0.311088 0.507472
H24   H     H_    0.575485 0.865071 0.233320 0.066040
O10   O     O_2   0.741464 0.796215 0.292136 -0.590233
I1    I     I_    0.339937 0.798875 0.068448 -0.347870
I2    I     I_    0.321783 0.213092 0.068711 -0.332336
I3    I     I_    0.868313 0.711572 0.742226 -0.345504
I4    I     I_    0.852080 0.336520 0.772405 -0.331739
C29   C     C_2   0.116291 0.566873 0.266688 0.382402
H25   H     H_    0.105551 0.676456 0.279791 0.113336
O11   O     O_2   0.166866 0.526560 0.170285 -0.554271
C30   C     C_2   0.100655 0.320821 0.326520 0.528891
H26   H     H_    0.198200 0.296569 0.310494 0.095548
O12   O     O_2   0.023097 0.229359 0.313399 -0.535397

loop_
_geom_bond_atom_site_label_1
_geom_bond_atom_site_label_2
_ccdc_geom_bond_type
C7    C10   S    
O5    Zn1   S    
C1    C8    S    
C20   I1    S    
C4    C8    S    
C6    C9    S    
O3    Zn1   S    
C7    C8    S    
O4    Zn2   S    
C19   O7    A    
C5    H21   S    
C3    H17   S    
N1    Zn2   S    
C6    H22   S    
N2    Zn1   S    
C16   N2    S    
C16   H9    S    
C7    C29   S    
O7    Zn1   S    
O8    Zn2   S    
C15   C16   S    
C27   O9    D    
C5    I3    S    
O2    Zn2   S    
C14   H13   S    
C20   C24   S    
C11   H4    S    
C23   C24   S    
C9    C10   S    
C15   H8    S    
C18   O6    A    
C16   H11   S    
C23   C25   S    
C21   C22   S    
C2    C17   S    
C7    C30   S    
C19   O8    A    
C30   H26   S    
C2    C20   S    
C4    C6    S    
C3    C8    S    
C25   H15   S    
C29   O11   D    
C4    H20   S    
C4    H18   S    
C25   C26   S    
C3    H19   S    
O6    Zn2   S    
C28   O10   D    
C19   C23   S    
C5    C9    S    
C11   N1    S    
C14   C28   S    
C2    C21   S    
C2    C26   S    
C1    O1    A    
C13   H12   S    
C30   O12   D    
C18   O5    A    
C13   N1    S    
C20   C22   S    
C11   H6    S    
C22   H1    S    
C21   I2    S    
O1    Zn1   S    
C17   O3    A    
C15   H10   S    
C26   H16   S    
C10   H2    S    
C6    I4    S    
C21   C25   S    
C24   C26   S    
C3    C5    S    
C12   N2    S    
C11   C12   S    
C28   H24   S    
C29   H25   S    
C12   H5    S    
C10   H3    S    
C14   N2    S    
C24   H14   S    
C15   N1    S    
C27   H23   S    
C1    O2    A    
C9    C18   S    
C13   C27   S    
C22   C23   S    
C12   H7    S    
C13   C14   S    
C17   O4    A    
