data_mof_unit_9903.cif
_audit_creation_date              2012-10-26T20:31:47-0400
_audit_creation_method            fapswitch 2.2
_symmetry_space_group_name_H-M    P1
_symmetry_Int_Tables_number       1
_space_group_crystal_system       triclinic
_cell_length_a                    15.872454
_cell_length_b                    10.823894
_cell_length_c                    9.561427
_cell_angle_alpha                 89.827995
_cell_angle_beta                  89.512495
_cell_angle_gamma                 90.511144
_cell_volume                      1642.53737583

loop_
_atom_site_label
_atom_site_type_symbol
_atom_type_description
_atom_site_fract_x
_atom_site_fract_y
_atom_site_fract_z
_atom_type_partial_charge
C1    C     C_R   0.501497 0.262307 0.500013 0.549675
C2    C     C_R   0.510245 0.129229 0.499438 -0.001821
C3    C     C_R   0.521690 0.064981 0.373053 -0.167499
C4    C     C_R   0.340259 0.499828 0.500583 0.548194
C5    C     C_R   0.522112 0.936104 0.372910 -0.171792
C6    C     C_R   0.511515 0.870694 0.499262 -0.014935
C7    C     C_R   0.513169 0.935820 0.624952 0.055421
C8    C     C_3   0.455185 0.927882 0.749426 0.020025
C9    C     C_3   0.452804 0.068436 0.747817 -0.249598
C10   C     C_R   0.554564 0.574503 0.072536 0.148810
C11   C     C_R   0.441737 0.434665 0.076459 -0.007442
C12   C     C_3   0.949665 0.399712 0.604489 0.027962
C13   C     C_R   0.440248 0.436026 0.927626 0.229414
C14   C     C_R   0.554883 0.573914 0.925264 0.165717
C15   C     C_3   0.648731 0.569224 0.918817 -0.282408
C16   C     C_R   0.502187 0.737612 0.499756 0.541032
C17   C     C_3   0.648428 0.570735 0.077271 -0.281971
C18   C     C_R   0.659728 0.500163 0.499477 0.543019
C19   C     C_3   0.047869 0.398477 0.602346 -0.204984
C20   C     C_3   0.050094 0.474054 0.353031 -0.229363
C21   C     C_3   0.952621 0.473818 0.351635 -0.215421
C22   C     C_1   0.749337 0.500273 0.498695 -0.029107
C23   C     C_3   0.917176 0.500227 0.500547 0.104718
C24   C     C_3   0.082910 0.499910 0.502363 0.035080
C25   C     C_3   0.910261 0.191636 0.688703 -0.332131
C26   C     C_3   0.916030 0.848558 0.536944 -0.332991
C27   C     C_3   0.581396 0.900534 0.904232 -0.288478
C28   C     C_3   0.292789 0.411569 0.876020 -0.301280
C29   C     C_3   0.951664 0.627943 0.552059 0.026659
C30   C     C_3   0.049869 0.627336 0.550620 -0.204258
C31   C     C_1   0.824861 0.500295 0.499128 -0.013649
C32   C     C_1   0.175058 0.499724 0.502425 -0.085904
C33   C     C_1   0.250610 0.499728 0.501805 -0.049339
C34   C     C_R   0.511411 0.063178 0.624855 -0.002357
Cu1   Cu    Cu3+1 0.500000 0.499980 0.640670 0.977170
Cu2   Cu    Cu3+1 0.500000 0.500020 0.359330 0.926116
H1    H     H_    0.071554 0.414464 0.710111 0.084805
H2    H     H_    0.672538 0.483631 0.123311 0.153153
H3    H     H_    0.675865 0.656823 0.121562 0.121756
H4    H     H_    0.928980 0.383529 0.312482 0.108277
H5    H     H_    0.930134 0.543650 0.275524 0.107851
H6    H     H_    0.075575 0.700865 0.480204 0.127090
H7    H     H_    0.929925 0.639769 0.662459 0.115015
H8    H     H_    0.937300 0.238308 0.482056 0.248607
H9    H     H_    0.877757 0.105691 0.654901 0.137872
H10   H     H_    0.873574 0.231606 0.776797 0.147184
H11   H     H_    0.974587 0.168146 0.724471 0.126870
H12   H     H_    0.928457 0.426857 0.711537 0.115179
H13   H     H_    0.942952 0.735115 0.367646 0.248983
H14   H     H_    0.886872 0.917153 0.466082 0.142775
H15   H     H_    0.980537 0.880962 0.563400 0.129149
H16   H     H_    0.876923 0.842277 0.633639 0.144197
H17   H     H_    0.526455 0.888380 0.273707 0.135621
H18   H     H_    0.454764 0.881878 0.961998 0.241005
H19   H     H_    0.599488 0.850265 0.000639 0.122165
H20   H     H_    0.592758 0.000589 0.921502 0.128772
H21   H     H_    0.622040 0.867380 0.817326 0.159365
H22   H     H_    0.071742 0.306731 0.568751 0.125412
H23   H     H_    0.526027 0.113452 0.273938 0.133762
H24   H     H_    0.380443 0.273474 0.883583 0.210927
H25   H     H_    0.270800 0.397785 0.985624 0.099084
H26   H     H_    0.249595 0.360405 0.805632 0.134193
H27   H     H_    0.289918 0.511428 0.849392 0.167649
H28   H     H_    0.074545 0.545767 0.279124 0.110965
H29   H     H_    0.073366 0.383101 0.315730 0.109908
H30   H     H_    0.073227 0.648068 0.657541 0.087563
H31   H     H_    0.393493 0.883580 0.725209 0.122841
H32   H     H_    0.389951 0.104795 0.719148 0.106067
H33   H     H_    0.482105 0.113828 0.839532 0.138043
H34   H     H_    0.396237 0.379267 0.134298 0.118501
H35   H     H_    0.672528 0.480945 0.875150 0.148163
H36   H     H_    0.676947 0.653944 0.871377 0.121192
N1    N     N_R   0.500530 0.500930 0.147930 -0.251059
N2    N     N_R   0.500530 0.500890 0.852020 -0.209837
N3    N     N_2   0.914858 0.277822 0.572836 -0.519113
N4    N     N_2   0.919352 0.729708 0.468290 -0.520037
N5    N     N_2   0.493228 0.875937 0.874838 -0.496017
N6    N     N_2   0.377668 0.365742 0.857886 -0.458589
O1    O     O_R   0.500000 0.319640 0.618810 -0.479549
O2    O     O_R   0.500010 0.319680 0.381230 -0.514335
O3    O     O_R   0.379430 0.499990 0.618840 -0.466047
O4    O     O_R   0.379440 0.500030 0.381260 -0.504919
O5    O     O_R   0.499990 0.680320 0.618770 -0.479820
O6    O     O_R   0.500000 0.680360 0.381190 -0.503956
O7    O     O_R   0.620560 0.499970 0.618740 -0.507168
O8    O     O_R   0.620570 0.500010 0.381160 -0.501798

loop_
_geom_bond_atom_site_label_1
_geom_bond_atom_site_label_2
_ccdc_geom_bond_type
Cu1   N2    S    
C25   H9    S    
Cu1   O7    S    
Cu1   Cu2   S    
C12   H12   S    
Cu1   O3    S    
C11   H34   S    
C7    C8    S    
C29   N4    S    
C15   H36   S    
C12   C23   S    
H24   N6    S    
C18   O8    A    
C23   C29   S    
C5    H17   S    
C9    H33   S    
C26   H14   S    
C28   H26   S    
C5    C6    A    
C10   N1    A    
C27   H19   S    
C10   C17   S    
C16   O6    A    
C1    C2    S    
C17   H3    S    
C19   H1    S    
C4    C33   S    
C4    O3    A    
C20   C24   S    
Cu2   O4    S    
C8    C9    S    
C26   N4    S    
C28   N6    S    
C25   H11   S    
C3    C5    A    
H18   N5    S    
C28   H25   S    
C2    C34   A    
C29   H7    S    
C19   H22   S    
C18   O7    A    
C22   C31   T    
C20   H29   S    
C27   H21   S    
Cu1   O5    S    
C27   H20   S    
Cu2   O8    S    
C16   O5    A    
C25   N3    S    
C23   C31   S    
C20   H28   S    
H8    N3    S    
C24   C32   S    
C29   C30   S    
C26   H16   S    
H13   N4    S    
C13   N2    A    
C30   H30   S    
C21   H5    S    
C21   C23   S    
Cu2   O2    S    
C8    N5    S    
C1    O1    A    
C7    C34   A    
C14   N2    A    
C15   C17   S    
C13   N6    S    
C18   C22   S    
C27   N5    S    
C6    C7    A    
C15   H35   S    
C32   C33   T    
C2    C3    A    
C9    H32   S    
C26   H15   S    
C11   C13   A    
C9    C34   S    
C21   H4    S    
Cu2   O6    S    
C12   C19   S    
Cu1   O1    S    
C19   C24   S    
C11   N1    A    
C17   H2    S    
C24   C30   S    
Cu2   N1    S    
C6    C16   S    
C28   H27   S    
C4    O4    A    
C20   C21   S    
C8    H31   S    
C12   N3    S    
C1    O2    A    
C14   C15   S    
C30   H6    S    
C25   H10   S    
C10   C14   A    
C3    H23   S    
