data_mof_unit_63307.cif
_audit_creation_date              2013-03-05T15:42:16-0500
_audit_creation_method            fapswitch 2.2
_symmetry_space_group_name_H-M    P1
_symmetry_Int_Tables_number       1
_space_group_crystal_system       triclinic
_cell_length_a                    18.397703
_cell_length_b                    18.395859
_cell_length_c                    18.396043
_cell_angle_alpha                 90.801894
_cell_angle_beta                  119.583538
_cell_angle_gamma                 119.567796
_cell_volume                      4427.71097122

loop_
_atom_site_label
_atom_site_type_symbol
_atom_site_description
_atom_site_fract_x
_atom_site_fract_y
_atom_site_fract_z
_atom_type_partial_charge
Zn1   Zn    Zn3+2 0.414150 0.543930 0.458110 1.008812
Zn2   Zn    Zn3+2 0.585850 0.541910 0.456060 0.973623
Zn3   Zn    Zn3+2 0.414160 0.370220 0.456060 1.032657
Zn4   Zn    Zn3+2 0.585840 0.543930 0.629770 1.068330
O1    O     O_3   0.500000 0.500000 0.500000 -0.523687
O2    O     O_R   0.729180 0.615300 0.675360 -0.625474
O3    O     O_R   0.270820 0.446200 0.386140 -0.624842
O4    O     O_R   0.560090 0.613880 0.384720 -0.641345
O5    O     O_R   0.439920 0.324620 0.553780 -0.622078
O6    O     O_R   0.560100 0.442800 0.382710 -0.645978
O7    O     O_R   0.560070 0.617290 0.677370 -0.603959
O8    O     O_R   0.439930 0.322630 0.382710 -0.629045
O9    O     O_R   0.439900 0.617290 0.557220 -0.617270
O10   O     O_R   0.439910 0.615300 0.386140 -0.646703
O11   O     O_R   0.560080 0.446200 0.675360 -0.570543
O12   O     O_R   0.729180 0.613880 0.553780 -0.645412
O13   O     O_R   0.270820 0.324620 0.384720 -0.634450
C1    C     C_R   0.776998 0.638826 0.638575 0.848309
C2    C     C_R   0.223023 0.361560 0.361241 0.870128
C3    C     C_R   0.500378 0.638799 0.361843 0.845560
C4    C     C_R   0.501587 0.361175 0.638373 0.781478
C5    C     C_R   0.501195 0.359015 0.360365 0.863104
C6    C     C_R   0.499657 0.641178 0.641772 0.872810
C7    C     C_3   0.566647 0.733565 0.801078 0.332659
C8    C     C_3   0.474856 0.708104 0.803578 -0.289621
H1    H     H_    0.455199 0.674350 0.847015 0.184353
C9    C     C_3   0.499222 0.800828 0.801012 -0.061461
C10   C     C_3   0.592994 0.827003 0.801273 -0.196895
C11   C     C_3   0.523064 0.790457 0.697790 -0.277224
C12   C     C_3   0.429366 0.765755 0.698352 -0.157162
C13   C     C_3   0.407870 0.674134 0.701174 0.320322
C14   C     C_3   0.498965 0.697422 0.699283 -0.157940
H2    H     H_    0.670004 0.890581 0.843993 0.175170
H3    H     H_    0.542686 0.823703 0.654111 0.178078
H4    H     H_    0.371346 0.778474 0.655913 0.180817
C15   C     C_2   0.943798 0.162586 0.220032 -0.147035
C16   C     C_2   0.887796 0.195502 0.196842 -0.281385
H5    H     H_    0.906398 0.091324 0.196147 0.189572
H6    H     H_    0.921806 0.265677 0.221137 0.161649
C17   C     C_2   0.056172 0.218748 0.278802 -0.139905
C18   C     C_2   0.112308 0.307680 0.303340 -0.275197
H7    H     H_    0.093450 0.184846 0.301484 0.195073
H8    H     H_    0.078405 0.343860 0.280276 0.158585
C19   C     C_2   0.459036 0.164045 0.722200 -0.166472
C20   C     C_2   0.494478 0.194135 0.807154 -0.255637
H9    H     H_    0.431546 0.096459 0.693044 0.194994
H10   H     H_    0.517521 0.259266 0.837502 0.221530
C21   C     C_2   0.448748 0.216351 0.662838 0.179066
C22   C     C_2   0.512405 0.306505 0.694250 0.366638
C23   C     C_2   0.056158 0.778636 0.718754 -0.140249
C24   C     C_2   0.112350 0.803282 0.807709 -0.283239
H11   H     H_    0.093406 0.801216 0.684830 0.187992
H12   H     H_    0.078460 0.780308 0.843902 0.158735
C25   C     C_2   0.943763 0.719920 0.662591 -0.149757
C26   C     C_2   0.887754 0.696783 0.695492 -0.275712
H13   H     H_    0.906344 0.696031 0.591320 0.186226
H14   H     H_    0.921785 0.721058 0.765683 0.162991
C27   C     C_2   0.442041 0.161147 0.225167 -0.157351
C28   C     C_2   0.491943 0.195370 0.187688 -0.279990
H15   H     H_    0.402639 0.091034 0.217624 0.190975
H16   H     H_    0.526439 0.263691 0.189441 0.155125
C29   C     C_2   0.437449 0.216661 0.276351 -0.141698
C30   C     C_2   0.508323 0.304274 0.313028 -0.277619
H17   H     H_    0.375253 0.184476 0.284338 0.199028
H18   H     H_    0.574653 0.337338 0.310941 0.155406
C31   C     C_2   0.442772 0.780073 0.223864 -0.151374
C32   C     C_2   0.499053 0.803532 0.191207 -0.283426
H19   H     H_    0.395063 0.803598 0.210078 0.183217
H20   H     H_    0.545489 0.779792 0.201382 0.157890
C33   C     C_2   0.440401 0.721561 0.277705 -0.152502
C34   C     C_2   0.504302 0.696519 0.308852 -0.282832
H21   H     H_    0.384267 0.699395 0.292783 0.183850
H22   H     H_    0.562983 0.718911 0.297382 0.157302
Zn5   Zn    Zn3+2 0.585940 0.956110 0.041940 0.991875
Zn6   Zn    Zn3+2 0.585930 0.129820 0.043980 0.997953
Zn7   Zn    Zn3+2 0.414240 0.958130 0.043980 0.979155
Zn8   Zn    Zn3+2 0.414250 0.956110 0.870280 0.988828
O14   O     O_3   0.500090 0.000040 0.000040 -0.505190
O15   O     O_R   0.440010 0.053840 0.824690 -0.639567
O16   O     O_R   0.560180 0.884750 0.113900 -0.636844
O17   O     O_R   0.729260 0.175430 0.115330 -0.634879
O18   O     O_R   0.270900 0.886160 0.946260 -0.640899
O19   O     O_R   0.560160 0.177420 0.117340 -0.640207
O20   O     O_R   0.440020 0.882760 0.822680 -0.640922
O21   O     O_R   0.439990 0.057240 0.117340 -0.646512
O22   O     O_R   0.560190 0.882760 0.942820 -0.634063
O23   O     O_R   0.729270 0.053840 0.113900 -0.638953
O24   O     O_R   0.270910 0.884750 0.824690 -0.635586
O25   O     O_R   0.560170 0.175430 0.946260 -0.626307
O26   O     O_R   0.440000 0.886160 0.115330 -0.641771
C35   C     C_R   0.499494 0.138504 0.861701 0.843323
C36   C     C_R   0.499869 0.861258 0.138215 0.855794
C37   C     C_R   0.777067 0.138621 0.138842 0.853780
C38   C     C_R   0.223092 0.861219 0.861606 0.859314
C39   C     C_R   0.498885 0.140897 0.139823 0.867556
C40   C     C_R   0.500033 0.858477 0.858347 0.839960
N1    N     N_R   0.371012 0.166875 0.569721 0.204168
O27   O     O_R   0.276758 0.110469 0.542887 -0.366376
O28   O     O_R   0.397359 0.160888 0.517176 -0.365004
F1    F     F_    0.595244 0.351348 0.780408 -0.648537
N2    N     N_R   0.641131 0.715484 0.857531 0.230304
O29   O     O_R   0.737613 0.780152 0.910663 -0.371087
O30   O     O_R   0.610790 0.635007 0.857844 -0.336004
N3    N     N_R   0.305760 0.591449 0.647596 0.219144
O31   O     O_R   0.234781 0.581580 0.654704 -0.370562
O32   O     O_R   0.285563 0.526384 0.594653 -0.381468

loop_
_geom_bond_atom_site_label_1
_geom_bond_atom_site_label_2
_geom_bond_distance
_ccdc_geom_bond_type
C27   C29   1.439922 S    
C31   H19   1.086348 S    
C30   H18   1.083977 S    
C8    C13   1.540383 S    
N2    O29   1.300661 A    
O18   C38   1.280071 A    
Zn6   O19   1.954778 S    
N3    O32   1.300152 A    
N1    O27   1.300779 A    
Zn8   O14   1.951784 S    
O6    C5    1.270027 A    
C21   N1    1.435570 S    
C29   C30   1.334139 D    
C12   H4    1.110135 S    
O4    C3    1.280609 A    
Zn1   O1    1.953684 S    
C10   C11   1.556754 S    
Zn7   O14   1.954150 S    
C11   C14   1.546240 S    
C12   C13   1.537765 S    
C27   H15   1.086850 S    
O8    C5    1.268079 A    
O9    C6    1.279347 A    
C7    N2    1.456461 S    
O20   C40   1.276232 A    
O7    C6    1.276212 A    
C29   H17   1.086869 S    
Zn3   O8    1.954529 S    
C5    C30   1.417076 S    
Zn8   O24   1.936482 S    
C15   C16   1.341312 D    
C23   H11   1.086371 S    
C3    C34   1.451123 S    
C33   C34   1.341408 D    
Zn5   O23   1.935470 S    
O25   C35   1.278593 A    
Zn2   O12   1.935273 S    
O15   C35   1.280394 A    
C20   H10   1.083157 S    
C31   C32   1.341561 D    
N2    O30   1.300467 A    
Zn5   O16   1.937615 S    
C9    C12   1.544540 S    
C18   H8    1.080900 S    
C9    C40   1.474753 S    
C28   C39   1.417205 S    
C4    C22   1.460197 S    
N3    O31   1.300222 A    
N1    O28   1.301453 A    
C19   H9    1.087277 S    
O24   C38   1.282512 A    
Zn8   O15   1.937509 S    
O2    C1    1.280398 A    
C25   H13   1.086353 S    
C28   H16   1.083933 S    
O10   C3    1.282976 A    
C15   C17   1.471143 S    
C7    C8    1.539476 S    
Zn4   O2    1.936480 S    
Zn7   O18   1.935378 S    
C34   H22   1.080834 S    
Zn6   O17   1.936090 S    
Zn8   O20   1.954598 S    
C8    H1    1.110169 S    
C11   H3    1.110084 S    
C32   H20   1.080834 S    
O16   C36   1.280719 A    
C7    C14   1.531346 S    
C11   C12   1.556539 S    
Zn3   O5    1.937319 S    
O17   C37   1.280427 A    
O26   C36   1.282888 A    
C13   C14   1.530642 S    
O19   C39   1.270425 A    
C23   C24   1.341056 D    
C16   C37   1.449907 S    
C23   C25   1.471404 S    
Zn5   O22   1.953798 S    
Zn4   O7    1.954745 S    
O22   C40   1.278184 A    
C1    C26   1.450243 S    
C17   C18   1.341038 D    
C10   H2    1.110125 S    
O3    C2    1.280039 A    
C26   H14   1.080919 S    
Zn2   O1    1.954148 S    
Zn1   O9    1.953754 S    
Zn2   O6    1.953671 S    
C19   C20   1.336915 D    
C25   C26   1.341420 D    
C21   C22   1.357961 D    
Zn1   O3    1.935470 S    
Zn2   O4    1.937401 S    
C7    C10   1.537973 S    
Zn4   O1    1.951934 S    
Zn3   O1    1.952371 S    
C8    C9    1.543119 S    
C13   N3    1.457381 S    
Zn4   O11   1.937510 S    
C15   H5    1.086366 S    
C27   C28   1.334657 D    
C16   H6    1.080899 S    
C6    C14   1.478410 S    
C22   F1    1.361206 S    
O21   C39   1.267860 A    
O5    C4    1.278892 A    
C31   C33   1.472309 S    
O23   C37   1.282304 A    
C17   H7    1.086393 S    
C32   C36   1.451166 S    
O13   C2    1.282389 A    
Zn3   O13   1.936285 S    
C20   C35   1.446807 S    
Zn6   O14   1.952371 S    
Zn6   O25   1.937425 S    
C24   C38   1.450095 S    
C2    C18   1.449708 S    
O11   C4    1.285899 A    
O12   C1    1.282318 A    
Zn5   O14   1.953686 S    
C9    C10   1.542742 S    
C33   H21   1.086350 S    
Zn1   O10   1.937871 S    
C24   H12   1.080915 S    
Zn7   O21   1.953772 S    
C19   C21   1.469447 S    
Zn7   O26   1.937503 S    
