data_mof_unit_25591.cif
_audit_creation_date              2012-12-11T14:13:59-0500
_audit_creation_method            fapswitch 2.2
_symmetry_space_group_name_H-M    P1
_symmetry_Int_Tables_number       1
_space_group_crystal_system       triclinic
_cell_length_a                    17.197074
_cell_length_b                    7.251915
_cell_length_c                    16.791101
_cell_angle_alpha                 89.986867
_cell_angle_beta                  99.119842
_cell_angle_gamma                 90.020574
_cell_volume                      2067.57600407

loop_
_atom_site_label
_atom_site_type_symbol
_atom_type_description
_atom_site_fract_x
_atom_site_fract_y
_atom_site_fract_z
_atom_type_partial_charge
O1    O     O_R   0.414560 0.494370 0.416770 -0.537410
O2    O     O_R   0.585440 0.994370 0.583230 -0.537818
O3    O     O_R   0.578370 0.819590 0.429320 -0.543808
O4    O     O_R   0.421630 0.319590 0.570680 -0.543639
C1    C     C_R   0.605665 0.656499 0.415271 0.716426
C2    C     C_R   0.394456 0.156400 0.584869 0.714482
O5    O     O_R   0.414740 0.823790 0.407360 -0.545097
O6    O     O_R   0.585260 0.323790 0.592640 -0.544756
O7    O     O_R   0.420650 0.998510 0.561120 -0.536438
O8    O     O_R   0.579350 0.498510 0.438880 -0.536957
C3    C     C_R   0.389141 0.655477 0.384839 0.632386
C4    C     C_R   0.610870 0.155484 0.615156 0.630227
O9    O     O_3   0.502130 0.662240 0.550470 -0.381154
O10   O     O_3   0.497870 0.162240 0.449530 -0.381305
V1    V     V_3+5 0.499600 0.935390 0.490640 1.458058
V2    V     V_3+5 0.500400 0.435390 0.509360 1.458268
C5    C     C_2   0.793601 0.261847 0.772683 0.086971
C6    C     C_2   0.206438 0.761597 0.227378 0.070614
C7    C     C_2   0.833041 0.113010 0.807213 -0.181304
C8    C     C_2   0.166667 0.613007 0.193001 -0.117948
H1    H     H_    0.823624 0.982176 0.775606 0.174544
H2    H     H_    0.175630 0.482333 0.224850 0.190088
C9    C     C_2   0.739748 0.241375 0.694462 -0.253378
C10   C     C_2   0.260207 0.740904 0.305612 -0.252053
C11   C     C_2   0.670379 0.147348 0.688801 0.211732
C12   C     C_2   0.329653 0.647387 0.311190 0.207495
C13   C     C_R   0.328043 0.155756 0.631714 -0.123344
C14   C     C_R   0.672095 0.656193 0.368421 -0.125471
C15   C     C_R   0.165155 0.116156 0.860645 -0.239349
C16   C     C_R   0.834769 0.615744 0.139304 -0.251523
C17   C     C_R   0.298084 0.037274 0.839772 -0.086618
C18   C     C_R   0.702861 0.530525 0.161430 -0.086370
C19   C     C_R   0.241901 0.052870 0.891644 -0.120655
C20   C     C_R   0.758690 0.546901 0.109209 -0.111038
C21   C     C_R   0.146837 0.167138 0.778013 0.424411
C22   C     C_R   0.852704 0.671612 0.221341 0.359547
C23   C     C_R   0.208839 0.182916 0.730767 0.006679
C24   C     C_R   0.790751 0.685521 0.268741 0.016068
C25   C     C_R   0.282230 0.100191 0.760031 0.033681
C26   C     C_R   0.718225 0.597624 0.240513 0.033625
C27   C     C_R   0.340446 0.085925 0.710370 -0.150868
C28   C     C_R   0.660260 0.582509 0.290452 -0.153322
C29   C     C_R   0.256470 0.248182 0.602774 -0.115624
C30   C     C_R   0.742941 0.752561 0.396445 -0.113903
C31   C     C_R   0.200719 0.278533 0.655708 0.003073
C32   C     C_R   0.798116 0.784071 0.343006 0.013813
H3    H     H_    0.396363 0.022403 0.733522 0.170658
H4    H     H_    0.604934 0.515357 0.268024 0.169933
H5    H     H_    0.355692 0.980441 0.862307 0.193680
H6    H     H_    0.645841 0.469718 0.139631 0.192571
O11   O     O_R   0.920750 0.773600 0.061260 -0.524874
O12   O     O_R   0.079250 0.273600 0.938740 -0.530106
O13   O     O_R   0.085340 0.439850 0.092570 -0.524293
O14   O     O_R   0.914660 0.939850 0.907430 -0.524570
C33   C     C_R   0.109801 0.608803 0.116648 0.762005
C34   C     C_R   0.890176 0.108793 0.883370 0.758859
O15   O     O_R   0.921720 0.444130 0.070790 -0.545905
O16   O     O_R   0.078280 0.944130 0.929210 -0.531580
O17   O     O_R   0.914480 0.269530 0.916840 -0.530358
O18   O     O_R   0.085520 0.769530 0.083160 -0.532700
C35   C     C_R   0.897050 0.611912 0.087103 0.740246
C36   C     C_R   0.102827 0.112000 0.912768 0.750614
O19   O     O_3   0.997840 0.601520 0.949550 -0.355227
O20   O     O_3   0.002160 0.101520 0.050450 -0.360800
V3    V     V_3+5 0.000400 0.328340 0.009360 1.654907
V4    V     V_3+5 0.999600 0.828340 0.990640 1.675586
C37   C     C_2   0.800971 0.449745 0.807191 0.494477
H7    H     H_    0.748971 0.518605 0.821441 0.091130
O21   O     O_2   0.863286 0.533317 0.814159 -0.468350
C38   C     C_2   0.199709 0.949352 0.192658 0.489197
H8    H     H_    0.252070 0.017732 0.178985 0.093825
O22   O     O_2   0.137531 0.033495 0.184995 -0.466030
S1    S     S_3+6 0.046002 0.160238 0.731039 0.068218
O23   O     O_2   0.003714 0.327906 0.754694 -0.271164
O24   O     O_2   0.038305 0.150709 0.640667 -0.296197
O25   O     O_3   0.003563 0.970581 0.762680 -0.497518
H9    H     H_    0.956239 0.948606 0.721841 0.384739
S2    S     S_3+6 0.953751 0.673688 0.267898 0.077360
O26   O     O_2   0.993175 0.843850 0.242393 -0.256308
O27   O     O_2   0.962815 0.668150 0.358391 -0.283567
O28   O     O_3   0.999497 0.487478 0.237809 -0.496195
H10   H     H_    0.970056 0.380575 0.254562 0.372104
C39   C     C_2   0.764227 0.331523 0.622432 0.493572
H11   H     H_    0.729354 0.317242 0.563007 -0.002059
O29   O     O_2   0.825114 0.420806 0.628618 -0.434065
C40   C     C_2   0.235615 0.830504 0.377668 0.519505
H12   H     H_    0.270533 0.816429 0.437080 -0.010337
O30   O     O_2   0.174583 0.919142 0.371499 -0.426564
S3    S     S_3+6 0.641262 0.030425 0.772339 0.032862
O31   O     O_2   0.687567 0.855071 0.788513 -0.355687
O32   O     O_2   0.655847 0.149837 0.846343 -0.283032
O33   O     O_3   0.544846 0.978655 0.752831 -0.494308
H13   H     H_    0.541718 0.859838 0.723399 0.347680
S4    S     S_3+6 0.358873 0.531496 0.227488 0.030710
O34   O     O_2   0.312367 0.356508 0.210761 -0.356425
O35   O     O_2   0.344576 0.651952 0.153779 -0.286011
O36   O     O_3   0.455238 0.479298 0.247099 -0.492956
H14   H     H_    0.458182 0.360214 0.276334 0.347719
C41   C     C_2   0.240648 0.311641 0.517262 0.373081
H15   H     H_    0.288313 0.352848 0.486023 0.047820
O37   O     O_2   0.174043 0.308874 0.479098 -0.464651
C42   C     C_2   0.758765 0.818491 0.481603 0.363983
H16   H     H_    0.711034 0.857179 0.513188 0.050058
O38   O     O_2   0.825622 0.820515 0.519189 -0.475060
C43   C     C_2   0.147164 0.441232 0.641065 0.559465
H17   H     H_    0.125365 0.489547 0.580701 0.130820
O39   O     O_2   0.129903 0.530244 0.697478 -0.485592
C44   C     C_2   0.849753 0.950402 0.356017 0.543396
H18   H     H_    0.871537 0.001534 0.415920 0.130528
O40   O     O_2   0.865297 0.039109 0.298733 -0.508458
C45   C     C_2   0.263591 0.997531 0.977692 0.526926
H19   H     H_    0.221968 0.012312 0.019456 -0.012452
O41   O     O_2   0.328761 0.935466 0.003370 -0.470365
C46   C     C_2   0.737299 0.486975 0.023731 0.523924
H20   H     H_    0.778420 0.503111 0.981522 -0.008814
O42   O     O_2   0.672903 0.419578 0.999011 -0.470614

loop_
_geom_bond_atom_site_label_1
_geom_bond_atom_site_label_2
_ccdc_geom_bond_type
C7    C34   S    
C6    C38   S    
O16   C36   A    
S1    O23   D    
C45   H19   S    
O1    C3    A    
O2    C4    A    
C2    O7    A    
O36   H14   S    
C25   C27   A    
O5    C3    A    
C43   O39   D    
C5    C9    S    
C9    C39   S    
C39   H11   S    
C6    C10   S    
C7    H1    S    
C10   C12   D    
C40   O30   D    
C15   C19   A    
C44   H18   S    
C14   C28   A    
O15   C35   A    
O16   V4    S    
C41   H15   S    
C30   C32   A    
C32   C44   S    
C17   C19   A    
C38   H8    S    
C19   C45   S    
S3    O32   D    
O13   V3    S    
C26   C28   A    
O19   V4    S    
O18   V4    S    
O6    V2    S    
C33   O18   A    
S1    O24   D    
C42   H16   S    
C17   H5    S    
C8    C33   S    
C31   C43   S    
O28   H10   S    
O13   C33   A    
O14   C34   A    
C5    C37   S    
C16   C20   A    
C37   H7    S    
O25   H9    S    
O4    C2    A    
O15   V3    S    
O8    V2    S    
C30   C42   S    
S2    O26   D    
S4    O36   S    
C14   C30   A    
C37   O21   D    
O11   V4    S    
C18   C20   A    
O4    V2    S    
S4    O35   D    
C1    C14   S    
C13   C27   A    
C2    C13   S    
O6    C4    A    
C27   H3    S    
S2    O27   D    
C45   O41   D    
O1    V2    S    
C28   H4    S    
S3    O33   S    
C42   O38   D    
O2    V1    S    
C29   C31   A    
C18   H6    S    
C41   O37   D    
C8    H2    S    
C12   S4    S    
S1    O25   S    
C16   C35   S    
C23   C31   A    
C22   S2    S    
O3    V1    S    
C21   C23   A    
C15   C36   S    
C21   S1    S    
C39   O29   D    
C40   H12   S    
C29   C41   S    
O3    C1    A    
C46   O42   D    
C46   H20   S    
O14   V4    S    
C20   C46   S    
C43   H17   S    
C15   C21   A    
C11   S3    S    
C3    C12   S    
C34   O17   A    
C16   C22   A    
C4    C11   S    
O20   V3    S    
C22   C24   A    
O7    V1    S    
C1    O8    A    
C23   C25   A    
O12   C36   A    
O17   V3    S    
C24   C26   A    
O11   C35   A    
S2    O28   S    
O5    V1    S    
O33   H13   S    
C5    C7    D    
C44   O40   D    
C6    C8    D    
C18   C26   A    
S4    O34   D    
C24   C32   A    
C13   C29   A    
C9    C11   D    
O9    V2    S    
C17   C25   A    
O10   V1    S    
C38   O22   D    
S3    O31   D    
C10   C40   S    
O12   V3    S    
