data_mof_unit_66814.cif
_audit_creation_date              2012-12-11T14:27:20-0500
_audit_creation_method            fapswitch 2.2
_symmetry_space_group_name_H-M    P1
_symmetry_Int_Tables_number       1
_space_group_crystal_system       triclinic
_cell_length_a                    8.629483
_cell_length_b                    15.327237
_cell_length_c                    15.223713
_cell_angle_alpha                 98.195963
_cell_angle_beta                  99.216128
_cell_angle_gamma                 98.730556
_cell_volume                      1935.61138392

loop_
_atom_site_label
_atom_site_type_symbol
_atom_type_description
_atom_site_fract_x
_atom_site_fract_y
_atom_site_fract_z
_atom_type_partial_charge
Ba1   Ba    Ba6+2 0.154720 0.543770 0.458160 1.658542
Ba2   Ba    Ba6+2 0.655440 0.456220 0.541760 1.767591
C1    C     C_3   0.413569 0.798089 0.153444 -0.187195
C2    C     C_R   0.901232 0.795388 0.529175 0.072568
C3    C     C_R   0.061222 0.235533 0.521421 -0.227239
C4    C     C_3   0.905211 0.795706 0.221521 0.314723
C5    C     C_R   0.162276 0.177291 0.545862 0.080455
C6    C     C_R   0.108847 0.085016 0.527666 0.002588
C7    C     C_R   0.946578 0.047359 0.500749 0.037920
C8    C     C_R   0.845346 0.106458 0.465113 -0.049870
C9    C     C_R   0.883417 0.952490 0.502347 0.012720
C10   C     C_R   0.716469 0.922018 0.471532 -0.072601
C11   C     C_R   0.621517 0.985703 0.451229 0.043799
C12   C     C_3   0.364540 0.759104 0.235311 0.307863
C13   C     C_R   0.687113 0.065963 0.427728 0.384713
C14   C     C_R   0.971583 0.888537 0.541010 -0.001674
C15   C     C_R   0.739293 0.769791 0.495272 -0.295768
C16   C     C_3   0.847414 0.841809 0.139357 0.655353
C17   C     C_R   0.906458 0.202896 0.473615 0.073233
C18   C     C_R   0.246528 0.461394 0.764856 -0.127278
C19   C     C_R   0.142009 0.442988 0.824223 0.015876
C20   C     C_R   0.199044 0.469420 0.917414 -0.158555
C21   C     C_R   0.365052 0.498067 0.953592 0.052235
C22   C     C_R   0.462728 0.522424 0.890907 -0.044553
C23   C     C_3   0.625863 0.742093 0.713261 0.235171
C24   C     C_R   0.400866 0.509939 0.798264 0.070724
C25   C     C_R   0.592474 0.553596 0.090366 -0.130069
C26   C     C_R   0.659340 0.566797 0.182258 0.025563
C27   C     C_R   0.413239 0.483114 0.211190 0.061765
C28   C     C_3   0.676169 0.302188 0.249587 0.338367
C29   C     C_R   0.351074 0.463973 0.116518 -0.030454
C30   C     C_R   0.434123 0.506854 0.054817 0.025760
C31   C     C_R   0.563551 0.539544 0.243529 -0.205462
C32   C     C_3   0.572334 0.232302 0.167843 0.323435
C33   C     C_3   0.068974 0.690187 0.759542 0.540306
C34   C     C_3   0.714599 0.830766 0.772745 -0.226472
C35   C     C_3   0.997620 0.716299 0.844644 0.290175
C36   C     C_3   0.160152 0.271470 0.317170 0.331971
C37   C     C_3   0.081583 0.175149 0.270869 0.183918
C38   C     C_3   0.539675 0.266419 0.078278 -0.402780
C39   C     C_3   0.247223 0.705165 0.782042 -0.235169
C40   C     C_3   0.010069 0.654713 0.914987 -0.375667
C41   C     C_3   0.298851 0.753754 0.067657 -0.365428
C42   C     C_3   0.052304 0.163565 0.167672 -0.116292
C43   C     C_3   0.503771 0.765481 0.640960 -0.310406
C44   C     C_3   0.436700 0.900748 0.163119 -0.143462
C45   C     C_3   0.943195 0.227706 0.796721 0.582756
C46   C     C_3   0.491067 0.030239 0.786435 -0.362351
C47   C     C_3   0.046230 0.858285 0.286477 -0.298971
C48   C     C_3   0.479101 0.990094 0.494982 -0.237130
C49   C     C_3   0.121462 0.920114 0.611069 -0.351896
C50   C     C_3   0.210867 0.387802 0.083025 -0.386675
C51   C     C_3   0.773493 0.784461 0.277530 -0.436865
C52   C     C_3   0.631457 0.567584 0.342440 -0.262552
C53   C     C_3   0.788058 0.374497 0.220151 -0.358125
C54   C     C_3   0.951140 0.168723 0.872573 0.672313
C55   C     C_3   0.427036 0.181275 0.751359 0.907533
C56   C     C_3   0.515131 0.131357 0.817729 -0.075906
C57   C     C_R   0.645533 0.830129 0.466562 0.028347
Cl1   Cl    Cl    0.654087 0.132546 0.143929 -0.637382
Cl2   Cl    Cl    0.567376 0.101874 0.341639 -0.560795
Cl3   Cl    Cl    0.001573 0.908828 0.100548 -0.573598
Cl4   Cl    Cl    0.740243 0.762933 0.042958 -0.727415
Cl5   Cl    Cl    0.000242 0.576578 0.715377 -0.727722
Cl6   Cl    Cl    0.075742 0.830562 0.896394 -0.582708
Cl7   Cl    Cl    0.195622 0.095506 0.306924 -0.662528
Cl8   Cl    Cl    0.848359 0.165681 0.687577 -0.648199
Cl9   Cl    Cl    0.900671 0.050576 0.833169 -0.540266
Cl10  Cl    Cl    0.143841 0.187303 0.940780 -0.689704
Cl11  Cl    Cl    0.222681 0.138756 0.740895 -0.735146
Cl12  Cl    Cl    0.467459 0.297057 0.802110 -0.682199
H1    H     H_    0.236227 0.731219 0.222174 0.114073
H2    H     H_    0.747657 0.823489 0.844379 0.227764
H3    H     H_    0.822324 0.856406 0.746397 0.164497
H4    H     H_    0.638438 0.882425 0.773801 0.104132
H5    H     H_    0.767955 0.888953 0.158295 0.014757
H6    H     H_    0.066611 0.257786 0.793148 0.046289
H7    H     H_    0.871290 0.186597 0.919996 0.006705
H8    H     H_    0.477226 0.143851 0.884061 0.159419
H9    H     H_    0.642459 0.158706 0.827922 0.127794
H10   H     H_    0.682769 0.702024 0.495378 0.030663
H11   H     H_    0.109371 0.306449 0.531912 0.025550
H12   H     H_    0.455623 0.210133 0.186879 0.142022
H13   H     H_    0.198706 0.044572 0.534488 0.043324
H14   H     H_    0.670150 0.579329 0.048098 0.126727
H15   H     H_    0.111307 0.467662 0.960405 0.077473
H16   H     H_    0.585659 0.554363 0.911381 0.085185
H17   H     H_    0.202088 0.446795 0.692737 0.072497
H18   H     H_    0.595496 0.334674 0.288431 -0.004002
H19   H     H_    0.489312 0.327939 0.086858 0.086225
H20   H     H_    0.650582 0.279683 0.050306 0.152821
H21   H     H_    0.453185 0.214927 0.028661 0.226816
H22   H     H_    0.300172 0.777395 0.802249 0.145490
H23   H     H_    0.868988 0.710098 0.822080 0.097078
H24   H     H_    0.291453 0.668467 0.835597 0.058449
H25   H     H_    0.281289 0.678820 0.718352 0.107601
H26   H     H_    0.983043 0.686718 0.979054 0.208274
H27   H     H_    0.917489 0.594820 0.893694 0.155962
H28   H     H_    0.127388 0.634260 0.926315 0.083576
H29   H     H_    0.343981 0.773638 0.007703 0.201081
H30   H     H_    0.182481 0.774469 0.070629 0.223495
H31   H     H_    0.286034 0.679870 0.062322 0.101400
H32   H     H_    0.988031 0.215713 0.143946 0.077071
H33   H     H_    0.166763 0.168053 0.142758 0.171272
H34   H     H_    0.063830 0.310843 0.321015 -0.011703
H35   H     H_    0.978845 0.096936 0.137985 0.220363
H36   H     H_    0.456618 0.707048 0.586604 0.148512
H37   H     H_    0.407914 0.791989 0.670477 0.114577
H38   H     H_    0.559912 0.821782 0.612851 0.040426
H39   H     H_    0.473200 0.922421 0.101710 0.178255
H40   H     H_    0.326321 0.925993 0.172777 0.213389
H41   H     H_    0.532951 0.932311 0.221355 0.164666
H42   H     H_    0.537320 0.014795 0.723044 0.158287
H43   H     H_    0.556665 0.001246 0.840567 0.177318
H44   H     H_    0.363827 0.998478 0.776161 0.181572
H45   H     H_    0.221732 0.271660 0.386963 0.032648
H46   H     H_    0.086739 0.825705 0.344253 0.146067
H47   H     H_    0.148143 0.874330 0.253123 0.189927
H48   H     H_    0.011029 0.922243 0.313269 0.124959
H49   H     H_    0.494423 0.055276 0.538133 0.159970
H50   H     H_    0.367831 0.978324 0.443668 0.181086
H51   H     H_    0.475585 0.945497 0.545879 0.076955
H52   H     H_    0.136321 0.879553 0.664371 0.157232
H53   H     H_    0.228617 0.921754 0.580377 0.115210
H54   H     H_    0.113964 0.984568 0.649687 0.206485
H55   H     H_    0.096770 0.410155 0.091015 0.143172
H56   H     H_    0.965676 0.157399 0.292031 0.098325
H57   H     H_    0.208783 0.356591 0.013351 0.169032
H58   H     H_    0.223056 0.330714 0.118218 0.137644
H59   H     H_    0.675578 0.731303 0.242822 0.071773
H60   H     H_    0.822770 0.766591 0.342312 0.100549
H61   H     H_    0.727106 0.847549 0.292508 0.082042
H62   H     H_    0.690364 0.637360 0.354188 0.047153
H63   H     H_    0.549043 0.577579 0.387012 0.158132
H64   H     H_    0.708579 0.521212 0.367235 0.119738
H65   H     H_    0.847818 0.424819 0.280209 0.145549
H66   H     H_    0.878461 0.344920 0.187435 0.132734
H67   H     H_    0.425080 0.701303 0.244169 -0.003027
H68   H     H_    0.722884 0.409021 0.171788 0.042244
H69   H     H_    0.527823 0.779905 0.144145 0.142355
H70   H     H_    0.712161 0.707898 0.680896 0.062082
O1    O     O_2   0.174040 0.723040 0.553850 -0.472201
O2    O     O_2   0.819777 0.454305 0.816016 -0.414257
O3    O     O_3   0.854397 0.294645 0.817268 -0.615421
O4    O     O_3   0.901550 0.609570 0.550800 -0.429714
O5    O     O_3   0.408230 0.452130 0.390190 -0.500188
O6    O     O_2   0.675480 0.547140 0.721810 -0.398586
O7    O     O_3   0.551253 0.689368 0.768568 -0.635902
O8    O     O_2   0.442308 0.189441 0.502156 -0.412269
O9    O     O_3   0.479244 0.167402 0.667715 -0.584921
O10   O     O_3   0.370320 0.665070 0.388210 -0.500864
O11   O     O_2   0.311878 0.817144 0.463213 -0.491801
O12   O     O_3   0.271490 0.307876 0.268457 -0.655847
O13   O     O_3   0.026447 0.746640 0.698198 -0.653398
O14   O     O_3   0.397547 0.826259 0.311886 -0.610934
O15   O     O_2   0.134800 0.452800 0.278160 -0.479208
O16   O     O_3   0.937630 0.618610 0.340820 -0.485451
O17   O     O_2   0.973309 0.545894 0.179750 -0.476937
O18   O     O_3   0.956874 0.714612 0.188280 -0.571372
O19   O     O_2   0.636250 0.276900 0.446120 -0.379693
O20   O     O_3   0.908740 0.390420 0.449120 -0.517876
O21   O     O_3   0.439970 0.334920 0.611710 -0.428214
O22   O     O_3   0.772269 0.256019 0.302125 -0.594149
O23   O     O_3   0.402050 0.547860 0.609740 -0.495832
O24   O     O_3   0.872650 0.381380 0.659100 -0.389952
P1    P     P_3+3 0.004160 0.709210 0.580280 1.023286
P2    P     P_3+3 0.305010 0.425580 0.290930 0.947594
P3    P     P_3+3 0.878870 0.613215 0.222930 0.966952
P4    P     P_3+3 0.806120 0.290780 0.419650 1.043584
P5    P     P_3+3 0.926794 0.392321 0.778141 1.097497
P6    P     P_3+3 0.433999 0.781627 0.410754 0.916675
P7    P     P_3+3 0.506593 0.573699 0.724004 0.982412
P8    P     P_3+3 0.375656 0.219357 0.586446 1.076051

loop_
_geom_bond_atom_site_label_1
_geom_bond_atom_site_label_2
_ccdc_geom_bond_type
O22   P4    S    
O5    P2    S    
C44   H41   S    
C12   O14   S    
C49   H52   S    
Ba1   O4    S    
C48   H51   S    
C33   O13   S    
C29   C50   S    
Ba2   O21   S    
C4    O18   S    
C50   H57   S    
O17   P3    D    
C5    C6    A    
O21   P8    S    
C39   H24   S    
Ba2   O4    S    
C10   C11   A    
C1    C41   S    
C53   H68   S    
C32   C38   S    
C50   H58   S    
C33   C35   S    
C22   C24   A    
O10   P6    S    
C8    C13   A    
C40   H27   S    
C36   C37   S    
C43   H38   S    
C16   Cl4   S    
C39   H25   S    
Ba1   P2    S    
C53   H65   S    
C52   H63   S    
C27   C31   A    
O24   P5    S    
C54   H7    S    
O18   P3    S    
Ba2   O20   S    
Ba1   Ba2   S    
C35   C40   S    
C25   H14   S    
Ba1   O1    S    
C10   C57   A    
C39   H22   S    
C12   H67   S    
Ba1   O23   S    
C6    C7    A    
C35   Cl6   S    
C21   C22   A    
C14   C49   S    
C33   Cl5   S    
C51   H60   S    
C55   Cl11  S    
C7    C8    A    
C15   H10   S    
C43   H37   S    
C56   H9    S    
O20   P4    S    
C24   P7    S    
C38   H20   S    
C44   H40   S    
O12   P2    S    
C32   Cl1   S    
C49   H53   S    
Ba1   O5    S    
C48   H50   S    
C28   O22   S    
C28   H18   S    
C57   P6    S    
O16   P3    S    
C45   Cl8   S    
C42   H32   S    
O4    P1    S    
C42   H33   S    
C4    C16   S    
C47   H46   S    
C37   H56   S    
C28   C32   S    
C49   H54   S    
C41   H29   S    
C19   P5    S    
C40   H26   S    
Ba2   O23   S    
C3    C5    A    
O11   P6    D    
C50   H55   S    
C16   Cl3   S    
Ba2   P4    S    
O15   P2    D    
Ba2   O6    S    
C54   Cl9   S    
C52   H62   S    
C45   O3    S    
C55   Cl12  S    
C2    C14   A    
Ba1   O15   S    
C41   H30   S    
C34   H4    S    
O1    P1    D    
C36   H45   S    
C9    C14   A    
C29   C30   A    
C8    C17   A    
O19   P4    D    
C55   O9    S    
C13   Cl2   S    
C51   H61   S    
C38   H21   S    
C7    C9    A    
Ba2   O24   S    
C1    C12   S    
C34   H3    S    
C56   H8    S    
C15   C57   A    
C46   H44   S    
C2    C15   A    
C45   C54   S    
C26   C31   A    
C44   H39   S    
C37   Cl7   S    
C48   H49   S    
O23   P7    S    
C32   H12   S    
C45   H6    S    
C4    C51   S    
C23   C43   S    
O3    P5    S    
O6    P7    D    
C46   H43   S    
C31   C52   S    
C16   H5    S    
C25   C30   A    
C6    H13   S    
C12   H1    S    
C23   H70   S    
C17   P4    S    
O2    P5    D    
C51   H59   S    
C9    C10   A    
C46   C56   S    
C37   C42   S    
C3    C17   A    
C42   H35   S    
Ba2   O5    S    
C28   C53   S    
C1    C44   S    
C53   H66   S    
C21   C30   S    
C27   P2    S    
C36   H34   S    
C11   C13   A    
C41   H31   S    
C27   C29   A    
C40   H28   S    
C3    H11   S    
C55   C56   S    
C47   H48   S    
C18   C24   A    
Ba1   P1    S    
C52   H64   S    
C5    P8    S    
Ba1   O16   S    
O7    P7    S    
C2    P1    S    
C35   H23   S    
Ba1   O10   S    
C23   O7    S    
O8    P8    D    
C20   H15   S    
C4    C47   S    
C33   C39   S    
C22   H16   S    
C34   H2    S    
C26   P3    S    
C23   C34   S    
Ba1   O20   S    
C11   C48   S    
C47   H47   S    
O14   P6    S    
O9    P8    S    
C18   C19   A    
Ba2   O19   S    
C54   Cl10  S    
C18   H17   S    
C25   C26   A    
C20   C21   A    
O13   P1    S    
C1    H69   S    
C36   O12   S    
C38   H19   S    
C19   C20   A    
C43   H36   S    
C46   H42   S    
