data_mof_unit_23492.cif
_audit_creation_date              2013-03-05T15:46:21-0500
_audit_creation_method            fapswitch 2.2
_symmetry_space_group_name_H-M    P1
_symmetry_Int_Tables_number       1
_space_group_crystal_system       triclinic
_cell_length_a                    11.322956
_cell_length_b                    11.192035
_cell_length_c                    18.672105
_cell_angle_alpha                 89.541066
_cell_angle_beta                  91.07843
_cell_angle_gamma                 60.977025
_cell_volume                      2068.35185582

loop_
_atom_site_label
_atom_site_type_symbol
_atom_site_description
_atom_site_fract_x
_atom_site_fract_y
_atom_site_fract_z
_atom_type_partial_charge
O1    O     O_R   0.748800 0.497470 0.428000 -0.422910
O2    O     O_R   0.476420 0.724060 0.429470 -0.482895
C1    C     C_R   0.352697 0.786425 0.403272 0.593670
O3    O     O_R   0.264580 0.744340 0.416750 -0.507376
O4    O     O_R   0.309380 0.472470 0.418200 -0.491552
C2    C     C_R   0.391118 0.358068 0.384635 0.575008
O5    O     O_R   0.501710 0.260430 0.414300 -0.430899
O6    O     O_R   0.728090 0.305600 0.428960 -0.491760
C3    C     C_R   0.776780 0.379863 0.404007 0.597496
O7    O     O_R   0.738760 0.495930 0.588610 -0.496060
O8    O     O_R   0.467110 0.722640 0.578360 -0.527165
C4    C     C_R   0.346640 0.765410 0.604688 0.555806
O9    O     O_R   0.254530 0.742800 0.577360 -0.406732
O10   O     O_R   0.300070 0.471040 0.567100 -0.436565
C5    C     C_R   0.373789 0.348937 0.595944 0.575698
O11   O     O_R   0.491670 0.258900 0.574910 -0.458197
O12   O     O_R   0.718780 0.304180 0.577850 -0.444348
C6    C     C_R   0.757041 0.380280 0.611588 0.590862
Cr1   Cr    Cr6+3 0.601770 0.606860 0.505860 1.149135
Cr2   Cr    Cr6+3 0.291380 0.601660 0.495070 1.159733
Cr3   Cr    Cr6+3 0.606880 0.291510 0.499120 1.183725
O13   O     O_3   0.500010 0.500010 0.500020 -0.353668
C7    C     C_R   0.752685 0.053337 0.021926 -0.003013
C8    C     C_R   0.696136 0.194102 0.030647 0.369561
C9    C     C_R   0.634172 0.253422 0.094204 -0.092905
C10   C     C_R   0.610628 0.176097 0.146198 -0.038404
C11   C     C_R   0.374081 0.340780 0.153021 -0.033749
C12   C     C_R   0.485170 0.240318 0.265902 0.203489
C13   C     C_R   0.490257 0.250371 0.190701 -0.030549
C14   C     C_R   0.166995 0.679142 0.305722 0.230075
C15   C     C_R   0.055544 0.797144 0.331366 -0.121949
C16   C     C_R   0.663115 0.036181 0.135818 0.077340
C17   C     C_R   0.738697 0.973497 0.075425 0.406397
C18   C     C_R   0.283322 0.453372 0.186247 -0.019027
C19   C     C_R   0.269247 0.449966 0.260191 0.034124
C20   C     C_R   0.928319 0.811647 0.321850 -0.040449
C21   C     C_R   0.912858 0.737630 0.267189 0.514581
C22   C     C_R   0.022727 0.611937 0.250950 0.238697
C23   C     C_R   0.149055 0.570875 0.285055 -0.008306
C24   C     C_R   0.374462 0.345220 0.304102 0.021927
H1    H     H_    0.062909 0.883699 0.350647 0.199804
H2    H     H_    0.801746 0.007301 0.972591 0.169752
H3    H     H_    0.587238 0.363552 0.098444 0.175281
H4    H     H_    0.639233 0.980340 0.174077 0.259893
H5    H     H_    0.212613 0.538504 0.152798 0.205007
H6    H     H_    0.842868 0.895170 0.344776 0.238587
C25   C     C_R   0.859070 0.228433 0.301290 -0.063479
H7    H     H_    0.877932 0.142283 0.335433 0.233217
C26   C     C_R   0.870305 0.213268 0.227579 0.132542
C27   C     C_R   0.852433 0.326118 0.183662 -0.055706
C28   C     C_R   0.803099 0.453732 0.215116 0.136694
C29   C     C_R   0.814097 0.460114 0.289613 0.198582
C30   C     C_R   0.829664 0.350783 0.332187 -0.001079
C31   C     C_R   0.436705 0.819196 0.289807 -0.022107
H8    H     H_    0.522842 0.721595 0.301644 0.210088
C32   C     C_R   0.414484 0.861094 0.219049 0.240499
C33   C     C_R   0.292881 0.964772 0.192344 -0.015240
C34   C     C_R   0.199660 0.044533 0.244440 -0.080079
H9    H     H_    0.114545 0.139846 0.228313 0.156209
C35   C     C_R   0.217408 0.997445 0.317372 0.354425
C36   C     C_R   0.333894 0.874828 0.338434 0.042006
C37   C     C_R   0.449905 0.233489 0.713936 0.117762
C38   C     C_R   0.441390 0.256486 0.786531 0.312059
C39   C     C_R   0.313998 0.334183 0.816328 -0.058527
C40   C     C_R   0.201830 0.417371 0.771667 0.336715
C41   C     C_R   0.217328 0.417018 0.697888 0.377747
C42   C     C_R   0.341511 0.324530 0.668178 -0.101851
C43   C     C_R   0.723020 0.469447 0.732296 -0.130418
H10   H     H_    0.662167 0.571442 0.710181 0.163983
C44   C     C_R   0.740551 0.453319 0.805644 0.402160
C45   C     C_R   0.821644 0.322883 0.835103 0.038398
C46   C     C_R   0.873660 0.207582 0.791079 -0.107840
H11   H     H_    0.937535 0.105768 0.813117 0.165690
C47   C     C_R   0.855679 0.224162 0.717220 0.393892
C48   C     C_R   0.784561 0.355924 0.687691 -0.017716
C49   C     C_R   0.206428 0.826677 0.713194 0.430425
C50   C     C_R   0.198085 0.839130 0.786562 -0.086812
H12   H     H_    0.107803 0.850604 0.811713 0.194088
C51   C     C_R   0.300723 0.844788 0.826173 -0.036061
C52   C     C_R   0.414805 0.833654 0.791448 -0.093016
H13   H     H_    0.494830 0.840359 0.820716 0.230315
C53   C     C_R   0.424403 0.819835 0.717863 -0.183654
H14   H     H_    0.513686 0.810345 0.692520 0.203578
C54   C     C_R   0.321733 0.813940 0.678052 0.013698
O14   O     O_R   0.186690 0.923650 0.086970 -0.379334
O15   O     O_R   0.957250 0.194250 0.084630 -0.506187
C55   C     C_R   0.914223 0.310472 0.112595 0.580477
O16   O     O_R   0.934970 0.407490 0.085330 -0.382470
O17   O     O_R   0.203780 0.365190 0.067090 -0.455910
C56   C     C_R   0.331135 0.295715 0.088933 0.535172
O18   O     O_R   0.417600 0.174890 0.067840 -0.549045
O19   O     O_R   0.375320 0.946260 0.070860 -0.414803
C57   C     C_R   0.267003 0.973437 0.111042 0.594327
O20   O     O_R   0.160600 0.919630 0.926660 -0.522969
O21   O     O_R   0.933060 0.190520 0.936020 -0.509417
C58   C     C_R   0.883072 0.308677 0.905437 0.657063
O22   O     O_R   0.908880 0.403460 0.925020 -0.406880
O23   O     O_R   0.179600 0.361450 0.918490 -0.454508
C59   C     C_R   0.295979 0.291332 0.887257 0.583959
O24   O     O_R   0.391510 0.170860 0.907530 -0.445131
O25   O     O_R   0.351130 0.942530 0.922260 -0.484420
C60   C     C_R   0.273529 0.896454 0.898504 0.572778
Cr4   Cr    Cr6+3 0.062440 0.063090 0.008210 1.099274
Cr5   Cr    Cr6+3 0.062880 0.375170 0.998920 1.215628
Cr6   Cr    Cr6+3 0.374700 0.061720 0.992470 1.133353
O26   O     O_3   0.166667 0.166667 0.999870 -0.385129
N1    N     N_R   0.583567 0.118312 0.301282 0.099447
O27   O     O_R   0.682396 0.118989 0.336893 -0.334364
O28   O     O_R   0.558560 0.017621 0.310761 -0.311077
F1    F     F_    0.792558 0.782820 0.232780 -0.534078
N2    N     N_R   0.009923 0.535964 0.194091 0.067702
O29   O     O_R   0.069182 0.403272 0.200291 -0.416608
O30   O     O_R   0.976269 0.594843 0.131000 -0.204638
N3    N     N_R   0.894790 0.084042 0.200982 0.052829
O31   O     O_R   0.837950 0.023784 0.232849 -0.350137
O32   O     O_R   0.004201 0.005267 0.168838 -0.293293
N4    N     N_R   0.752851 0.573843 0.171170 0.023518
O33   O     O_R   0.709220 0.576670 0.105579 -0.000000
O34   O     O_R   0.709220 0.576670 0.105578 -0.000000
N5    N     N_R   0.832847 0.564005 0.323411 0.088622
O35   O     O_R   0.729056 0.682135 0.335111 -0.286507
O36   O     O_R   0.938476 0.524178 0.366030 -0.335473
N6    N     N_R   0.504559 0.775252 0.170398 0.097566
O37   O     O_R   0.579438 0.820254 0.141472 -0.239506
O38   O     O_R   0.466014 0.700247 0.134132 -0.258699
F2    F     F_    0.787913 0.837967 0.065664 -0.525786
F3    F     F_    0.123947 0.069836 0.366447 -0.647410
N7    N     N_R   0.564340 0.112530 0.688142 0.144244
O39   O     O_R   0.544659 0.030809 0.646447 -0.304534
O40   O     O_R   0.685439 0.073244 0.713956 -0.172420
F4    F     F_    0.554135 0.186040 0.828960 -0.542445
F5    F     F_    0.077365 0.495507 0.798718 -0.536317
F6    F     F_    0.110324 0.503652 0.655551 -0.507992
F7    F     F_    0.686013 0.565418 0.847382 -0.574338
F8    F     F_    0.913013 0.113353 0.674762 -0.529096
F9    F     F_    0.101812 0.824390 0.677578 -0.489878
F10   F     F_    0.686436 0.276267 0.974957 -0.592299
N8    N     N_R   0.271815 0.689660 0.270794 0.027501
O41   O     O_R   0.241330 0.743910 0.206817 -0.300641
O42   O     O_R   0.396582 0.597307 0.284964 -0.408079

loop_
_geom_bond_atom_site_label_1
_geom_bond_atom_site_label_2
_geom_bond_distance
_ccdc_geom_bond_type
C55   O16   1.317776 A    
C10   C16   1.396104 A    
C6    C48   1.444065 S    
C14   N8    1.418215 S    
C11   C13   1.382572 A    
O18   Cr6   2.102523 S    
O21   C58   1.282457 A    
N7    O39   1.301922 A    
C9    H3    1.084204 S    
Cr5   O26   2.040714 S    
N3    O31   1.285398 A    
C49   F9    1.358730 S    
N6    O37   1.300568 A    
C25   C26   1.388771 A    
O4    Cr2   1.987619 S    
C50   H12   1.083379 S    
N5    O35   1.297492 A    
C43   C48   1.404728 A    
O8    Cr1   2.006293 S    
O24   Cr6   2.061466 S    
O25   C60   1.289727 A    
C7    H2    1.082493 S    
C37   C42   1.416940 A    
O4    C2    1.331770 A    
C20   C21   1.380622 A    
N4    O34   1.306325 A    
C14   C15   1.407739 A    
N6    O38   1.306594 A    
C12   C24   1.441383 A    
C12   N1    1.422654 S    
C34   C35   1.431095 A    
C5    O11   1.293156 A    
C32   C33   1.380419 A    
C4    C54   1.459067 S    
C11   C56   1.465816 S    
C18   C19   1.395158 A    
C26   C27   1.427502 A    
O19   C57   1.354987 A    
O14   C57   1.348998 A    
C39   C59   1.456229 S    
N2    O29   1.302515 A    
O21   Cr4   1.965874 S    
O6    C3    1.288380 A    
C7    C17   1.396576 A    
C7    C8    1.395627 A    
C51   C60   1.452118 S    
C20   H6    1.066608 S    
C44   C45   1.394379 A    
C38   F4    1.361717 S    
O14   Cr4   2.081455 S    
C25   C30   1.377041 A    
C1    C36   1.502211 S    
C41   C42   1.408064 A    
C33   C57   1.534003 S    
Cr3   O13   2.042405 S    
C58   O22   1.283514 A    
N1    O28   1.299925 A    
C49   C54   1.417255 A    
O15   Cr4   2.002650 S    
O16   Cr5   2.102542 S    
N5    O36   1.305236 A    
C27   C28   1.395894 A    
C50   C51   1.393363 A    
C11   C18   1.344948 A    
O25   Cr6   1.982335 S    
C31   C32   1.375445 A    
O1    Cr1   2.127430 S    
C47   C48   1.394686 A    
C19   C24   1.434759 A    
C28   C29   1.399732 A    
C32   N6    1.373515 S    
O10   Cr2   1.944140 S    
Cr1   O13   2.025830 S    
O1    C3    1.282099 A    
C49   C50   1.378492 A    
C46   H11   1.082820 S    
C52   C53   1.384304 A    
O15   C55   1.267884 A    
C43   H10   1.080233 S    
C45   C58   1.445239 S    
C9    C10   1.408079 A    
O5    Cr3   2.094557 S    
O12   Cr3   1.973354 S    
C38   C39   1.402589 A    
N7    O40   1.300981 A    
C35   C36   1.411788 A    
C19   C23   1.464832 S    
C21   C22   1.393365 A    
C41   F6    1.358237 S    
C25   H7    1.080249 S    
O7    Cr1   2.084521 S    
N1    O27   1.294119 A    
C5    C42   1.461811 S    
C47   F8    1.357164 S    
C37   C38   1.378180 A    
O12   C6    1.290863 A    
C16   H4    1.066835 S    
N2    O30   1.301621 A    
C18   H5    1.081837 S    
C8    C9    1.390451 A    
C21   F1    1.348111 S    
N8    O42   1.303398 A    
C27   C55   1.483524 S    
C29   N5    1.428834 S    
C46   C47   1.387977 A    
Cr2   O13   2.065350 S    
O20   Cr4   2.122084 S    
C53   H14   1.082512 S    
C53   C54   1.396817 A    
O17   Cr5   1.981510 S    
C2    C24   1.528577 S    
C3    C30   1.452928 S    
C56   O18   1.296415 A    
C1    O3    1.320700 A    
O17   C56   1.317269 A    
C40   F5    1.357953 S    
C29   C30   1.389301 A    
C31   H8    1.071254 S    
C12   C13   1.412240 A    
C15   H1    1.076028 S    
O9    Cr2   2.110394 S    
O2    Cr1   1.963905 S    
C15   C20   1.377012 A    
C35   F3    1.353671 S    
C52   H13   1.083205 S    
O6    Cr3   1.974607 S    
N3    O32   1.284113 A    
O8    C4    1.314139 A    
O11   Cr3   2.088264 S    
C2    O5    1.305921 A    
C31   C36   1.383046 A    
C8    F10   1.349586 S    
Cr6   O26   2.068221 S    
C59   O24   1.300982 A    
C16   C17   1.400944 A    
O2    C1    1.307277 A    
C34   H9    1.069485 S    
C45   C46   1.409127 A    
N4    O33   1.306322 A    
C39   C40   1.405571 A    
C37   N7    1.440640 S    
C33   C34   1.412634 A    
C22   C23   1.409239 A    
O7    C6    1.276748 A    
O23   Cr5   1.976646 S    
C17   F2    1.353755 S    
C28   N4    1.423644 S    
C14   C23   1.379070 A    
C26   N3    1.429310 S    
Cr4   O26   2.022953 S    
C40   C41   1.391804 A    
O22   Cr5   2.100383 S    
N8    O41   1.297819 A    
C51   C52   1.407537 A    
O3    Cr2   2.063107 S    
O19   Cr6   1.942385 S    
C4    O9    1.284641 A    
O20   C60   1.297842 A    
C10   C13   1.481052 S    
C43   C44   1.377940 A    
O23   C59   1.313491 A    
C44   F7    1.358227 S    
O10   C5    1.311026 A    
C22   N2    1.414016 S    
