data_mof_unit_11922.cif
_audit_creation_date              2012-12-10T19:11:27-0500
_audit_creation_method            fapswitch 2.2
_symmetry_space_group_name_H-M    P1
_symmetry_Int_Tables_number       1
_space_group_crystal_system       triclinic
_cell_length_a                    10.705993
_cell_length_b                    9.945851
_cell_length_c                    10.501867
_cell_angle_alpha                 90.415917
_cell_angle_beta                  88.334705
_cell_angle_gamma                 89.751092
_cell_volume                      1117.72766538

loop_
_atom_site_label
_atom_site_type_symbol
_atom_type_description
_atom_site_fract_x
_atom_site_fract_y
_atom_site_fract_z
_atom_type_partial_charge
C1    C     C_R   0.258109 0.500107 0.499248 0.866158
C2    C     C_3   0.497111 0.499533 0.123682 -0.080391
C3    C     C_3   0.070170 0.639130 0.543633 -0.415450
C4    C     C_3   0.070263 0.392530 0.594347 -0.392622
C5    C     C_3   0.928140 0.638431 0.555439 0.075538
C6    C     C_3   0.928503 0.381627 0.588195 0.070635
C7    C     C_3   0.072906 0.468807 0.365899 -0.413476
C8    C     C_3   0.120837 0.499958 0.500556 0.055838
C9    C     C_3   0.877809 0.500008 0.507700 -0.020552
C10   C     C_3   0.928772 0.478280 0.368314 -0.468755
C11   C     C_3   0.372644 0.082957 0.536227 0.372967
C12   C     C_3   0.375545 0.919529 0.545009 0.392758
C13   C     C_3   0.541537 0.075823 0.370308 0.229045
C14   C     C_3   0.525218 0.916957 0.366685 0.307402
C15   C     C_3   0.585535 0.079461 0.594030 0.124054
C16   C     C_3   0.596726 0.919837 0.582103 0.112658
C17   C     C_R   0.499433 0.499711 0.258293 0.920054
C18   C     C_R   0.741442 0.499921 0.505227 0.879221
C19   C     C_R   0.498394 0.500254 0.742103 0.951978
C20   C     C_3   0.450191 0.617514 0.045140 -0.189175
C21   C     C_3   0.426157 0.397393 0.044404 -0.228581
C22   C     C_3   0.379527 0.515221 0.963469 0.197638
C23   C     C_3   0.496786 0.500172 0.877662 -0.113143
C24   C     C_3   0.568227 0.602902 0.957347 -0.271244
C25   C     C_3   0.544080 0.381425 0.956606 -0.120911
C26   C     C_3   0.612306 0.484674 0.037715 0.484169
H1    H     H_    0.899275 0.563068 0.307196 0.213339
H2    H     H_    0.890034 0.384626 0.326512 0.219803
H3    H     H_    0.546497 0.099130 0.691160 0.174945
H4    H     H_    0.582457 0.878622 0.679171 0.200217
H5    H     H_    0.642792 0.092908 0.355835 0.098039
H6    H     H_    0.614054 0.872468 0.328559 0.126257
H7    H     H_    0.410158 0.713183 0.083107 0.238078
H8    H     H_    0.367424 0.314652 0.083080 0.200688
H9    H     H_    0.626087 0.686628 0.919529 0.203765
H10   H     H_    0.582924 0.285259 0.918112 0.206008
H11   H     H_    0.096837 0.713187 0.469542 0.204872
H12   H     H_    0.109220 0.292763 0.568880 0.199553
H13   H     H_    0.111588 0.669877 0.635014 0.240146
H14   H     H_    0.098324 0.417616 0.692086 0.238292
H15   H     H_    0.894439 0.718385 0.491312 0.180541
H16   H     H_    0.908134 0.286405 0.536918 0.157954
H17   H     H_    0.112761 0.541097 0.295365 0.203191
H18   H     H_    0.103129 0.366064 0.335124 0.209362
N1    N     N_3   0.499750 0.138610 0.497240 -0.151674
N2    N     N_3   0.499750 0.861390 0.497240 -0.152257
O1    O     O_R   0.314910 0.616040 0.499970 -0.548245
O2    O     O_R   0.314910 0.383960 0.499970 -0.577062
O3    O     O_R   0.500080 0.616020 0.313900 -0.572921
O4    O     O_R   0.500080 0.383980 0.313900 -0.570219
O5    O     O_R   0.685320 0.616040 0.499930 -0.580140
O6    O     O_R   0.685320 0.383960 0.499930 -0.587724
O7    O     O_R   0.500150 0.616060 0.686000 -0.601885
O8    O     O_R   0.500150 0.383940 0.686000 -0.589933
Zn1   Zn    Zn3+2 0.500150 0.654960 0.499940 1.048662
Zn2   Zn    Zn3+2 0.500150 0.345040 0.499940 1.034133
I1    I     I_    0.186911 0.539054 0.923901 -0.321814
O9    O     O_3   0.285547 0.122418 0.445876 -0.763316
H19   H     H_    0.200417 0.109592 0.482832 0.338630
O10   O     O_3   0.280007 0.867860 0.470767 -0.695179
H20   H     H_    0.199881 0.894040 0.513760 0.329080
I2    I     I_    0.301725 0.177711 0.716730 -0.335608
I3    I     I_    0.327948 0.842051 0.736629 -0.319080
O11   O     O_3   0.493840 0.137844 0.261752 -0.707803
H21   H     H_    0.404364 0.157916 0.273413 0.395009
O12   O     O_3   0.436609 0.872582 0.279025 -0.682439
H22   H     H_    0.367559 0.938452 0.274182 0.396116
O13   O     O_3   0.702028 0.143390 0.596852 -0.665662
H23   H     H_    0.746258 0.134677 0.513702 0.327817
O14   O     O_3   0.717823 0.876671 0.545488 -0.699006
H24   H     H_    0.747337 0.924224 0.468209 0.300612
O15   O     O_3   0.732092 0.467043 0.085031 -0.754494
H25   H     H_    0.788971 0.519365 0.028363 0.364859
I4    I     I_    0.868319 0.705342 0.744322 -0.259569
I5    I     I_    0.847920 0.346933 0.775770 -0.239755

loop_
_geom_bond_atom_site_label_1
_geom_bond_atom_site_label_2
_ccdc_geom_bond_type
C10   H1    S    
C7    C10   S    
C1    C8    S    
C26   O15   S    
C4    C8    S    
C11   I2    S    
C6    C9    S    
C18   O6    A    
C7    C8    S    
C14   N2    S    
C24   C26   S    
C16   H4    S    
C15   C16   S    
C5    I4    S    
C21   C25   S    
C13   C14   S    
C4    H14   S    
N1    Zn2   S    
O13   H23   S    
N2    Zn1   S    
C23   C24   S    
O14   H24   S    
C7    H17   S    
C11   O9    S    
C9    C10   S    
C19   O7    A    
O12   H22   S    
C3    H13   S    
C21   C22   S    
C2    C17   S    
C22   I1    S    
C18   O5    A    
C15   H3    S    
O7    Zn1   S    
O8    Zn2   S    
C24   H9    S    
C2    C20   S    
C20   C24   S    
C6    I5    S    
C16   O14   S    
C4    C6    S    
C3    C8    S    
C17   O3    A    
C12   I3    S    
C1    O1    A    
C21   H8    S    
C25   C26   S    
O3    Zn1   S    
O4    Zn2   S    
O10   H20   S    
C19   C23   S    
C5    C9    S    
C2    C21   S    
C14   O12   S    
C2    C26   S    
C7    H18   S    
C20   H7    S    
C19   O8    A    
C12   N2    S    
C20   C22   S    
C11   N1    S    
C15   N1    S    
C16   N2    S    
O1    Zn1   S    
C10   H2    S    
O2    Zn2   S    
C5    H15   S    
C13   H5    S    
C14   H6    S    
O15   H25   S    
C3    C5    S    
C17   O4    A    
C11   C12   S    
C1    O2    A    
O11   H21   S    
O9    H19   S    
C13   N1    S    
C13   O11   S    
C15   O13   S    
O5    Zn1   S    
C23   C25   S    
C25   H10   S    
C12   O10   S    
C9    C18   S    
C3    H11   S    
C6    H16   S    
C22   C23   S    
C4    H12   S    
O6    Zn2   S    
