data_mof_unit_43064.cif
_audit_creation_date              2012-12-11T14:21:13-0500
_audit_creation_method            fapswitch 2.2
_symmetry_space_group_name_H-M    P1
_symmetry_Int_Tables_number       1
_space_group_crystal_system       triclinic
_cell_length_a                    11.50687
_cell_length_b                    11.533181
_cell_length_c                    19.546141
_cell_angle_alpha                 90.591197
_cell_angle_beta                  90.416987
_cell_angle_gamma                 59.85814
_cell_volume                      2243.11214888

loop_
_atom_site_label
_atom_site_type_symbol
_atom_type_description
_atom_site_fract_x
_atom_site_fract_y
_atom_site_fract_z
_atom_type_partial_charge
C1    C     C_R   0.640933 0.117429 0.599191 0.536113
C2    C     C_1   0.652248 0.683543 0.664225 0.000741
C3    C     C_1   0.145013 0.189390 0.862915 0.003601
C4    C     C_1   0.224732 0.146494 0.735351 -0.030623
C5    C     C_1   0.185419 0.165650 0.804787 -0.027520
C6    C     C_1   0.256289 0.134169 0.675841 0.002410
C7    C     C_1   0.677553 0.191735 0.860769 0.003287
C8    C     C_1   0.658743 0.167317 0.728979 -0.032175
C9    C     C_1   0.665013 0.181336 0.800276 -0.031320
C10   C     C_1   0.653707 0.149511 0.668577 0.001600
C11   C     C_R   0.695010 0.582103 0.206337 0.002050
C12   C     C_R   0.614158 0.743333 0.597992 0.532413
C13   C     C_R   0.608629 0.558306 0.249468 -0.032335
C14   C     C_R   0.612457 0.577284 0.320566 0.007795
C15   C     C_R   0.753201 0.675692 0.302125 -0.108546
C16   C     C_R   0.766918 0.640153 0.234185 0.350414
C17   C     C_R   0.510722 0.526844 0.225355 -0.105699
C18   C     C_R   0.421716 0.518234 0.270056 -0.141514
C19   C     C_R   0.439107 0.520785 0.340074 -0.117165
C20   C     C_R   0.540339 0.540710 0.365198 -0.074565
C21   C     C_R   0.673587 0.648550 0.344910 -0.065517
C22   C     C_R   0.144935 0.206007 0.193995 -0.001893
C23   C     C_R   0.296754 0.120805 0.605499 0.555811
C24   C     C_R   0.131222 0.311893 0.237884 0.056800
C25   C     C_R   0.119645 0.299688 0.308530 0.044596
C26   C     C_R   0.207773 0.060525 0.291630 -0.128656
C27   C     C_R   0.184608 0.080419 0.221805 -0.135977
C28   C     C_R   0.131318 0.428133 0.214838 -0.027611
C29   C     C_R   0.098387 0.536039 0.258923 -0.073803
C30   C     C_R   0.064620 0.531101 0.326395 -0.126877
C31   C     C_R   0.071519 0.414999 0.350831 -0.098380
C32   C     C_R   0.173511 0.169655 0.335782 0.010409
C33   C     C_R   0.689172 0.166699 0.193517 -0.030420
C34   C     C_R   0.642629 0.112519 0.401920 0.556819
C35   C     C_R   0.802121 0.078145 0.235589 0.038344
C36   C     C_R   0.787745 0.094218 0.306548 -0.017749
C37   C     C_R   0.544021 0.209799 0.288567 0.216879
C38   C     C_R   0.561290 0.224799 0.219979 -0.099757
C39   C     C_R   0.926341 0.970446 0.210840 -0.036322
C40   C     C_R   0.036104 0.900498 0.254371 -0.136737
C41   C     C_R   0.026073 0.936712 0.322883 -0.121596
C42   C     C_R   0.903741 0.036130 0.348644 -0.088653
C43   C     C_R   0.657543 0.151564 0.333529 0.002795
C44   C     C_R   0.083814 0.230007 0.929164 0.539213
C45   C     C_R   0.621632 0.731058 0.405791 0.544245
C46   C     C_R   0.708855 0.546143 0.922601 0.558482
C47   C     C_R   0.707673 0.206642 0.930185 0.546727
C48   C     C_R   0.085232 0.236473 0.125233 0.525237
C49   C     C_R   0.708989 0.549898 0.133249 0.581505
C50   C     C_R   0.709882 0.206972 0.126172 0.537678
C51   C     C_R   0.239115 0.142544 0.402736 0.565511
C52   C     C_1   0.698099 0.581239 0.851801 0.001442
C53   C     C_1   0.673254 0.645024 0.722455 -0.028987
C54   C     C_1   0.688737 0.609060 0.792034 -0.030198
Cr1   Cr    Cr6+3 0.404720 0.198220 0.499960 1.016280
Cr2   Cr    Cr6+3 0.698290 0.897110 0.500380 1.020522
Cr3   Cr    Cr6+3 0.396970 0.904720 0.499610 1.019617
Cr4   Cr    Cr6+3 0.926180 0.151990 0.028120 1.019899
Cr5   Cr    Cr6+3 0.921330 0.451820 0.027470 1.067129
Cr6   Cr    Cr6+3 0.626260 0.446870 0.028710 1.007263
H1    H     H_    0.796295 0.735408 0.319703 0.168510
H2    H     H_    0.097240 0.624470 0.240248 0.131613
H3    H     H_    0.035604 0.616264 0.360145 0.112073
H4    H     H_    0.046688 0.412934 0.403979 0.123247
H5    H     H_    0.939259 0.931369 0.159340 0.164439
H6    H     H_    0.474501 0.279688 0.187084 0.126386
H7    H     H_    0.129808 0.819420 0.234620 0.099924
H8    H     H_    0.111876 0.885014 0.356577 0.114416
H9    H     H_    0.898337 0.060670 0.402573 0.126155
H10   H     H_    0.493328 0.514230 0.172769 0.170632
H11   H     H_    0.343907 0.501484 0.249935 0.115399
H12   H     H_    0.373525 0.509015 0.375113 0.099223
H13   H     H_    0.553966 0.538928 0.420138 0.125354
H14   H     H_    0.256105 0.959035 0.310762 0.141967
H15   H     H_    0.163487 0.435162 0.164072 0.138703
H16   H     H_    0.200754 0.997107 0.189220 0.133691
O1    O     O_R   0.267740 0.231960 0.575440 -0.509303
O2    O     O_R   0.685970 0.784660 0.430010 -0.506072
O3    O     O_R   0.502530 0.767000 0.423990 -0.514776
O4    O     O_R   0.288330 0.026350 0.429250 -0.501295
O5    O     O_3   0.499990 0.000020 0.499980 -0.259494
O6    O     O_R   0.821500 0.119340 0.952830 -0.496716
O7    O     O_R   0.037130 0.162530 0.957360 -0.492526
O8    O     O_R   0.056440 0.344740 0.951340 -0.513468
O9    O     O_R   0.797900 0.560360 0.957470 -0.479032
O10   O     O_R   0.596130 0.579390 0.952730 -0.491210
O11   O     O_R   0.639060 0.321160 0.958670 -0.509243
O12   O     O_R   0.527280 0.186640 0.570530 -0.513450
O13   O     O_R   0.821240 0.124200 0.104370 -0.524732
O14   O     O_R   0.036890 0.167040 0.097840 -0.499922
O15   O     O_R   0.056180 0.349610 0.102880 -0.526633
O16   O     O_R   0.797660 0.564870 0.097950 -0.400991
O17   O     O_R   0.595880 0.584250 0.104270 -0.534288
O18   O     O_R   0.638830 0.325670 0.099150 -0.535671
O19   O     O_3   0.824590 0.350230 0.028100 -0.301941
O20   O     O_R   0.728090 0.003450 0.576380 -0.505575
O21   O     O_R   0.682970 0.789190 0.570490 -0.497086
O22   O     O_R   0.499290 0.771880 0.575530 -0.517127
O23   O     O_R   0.285330 0.030870 0.569730 -0.493243
O24   O     O_R   0.270980 0.227080 0.423890 -0.502797
O25   O     O_R   0.530280 0.182120 0.430050 -0.497320
O26   O     O_R   0.731330 0.998570 0.424830 -0.519658
O27   O     O_3   0.416527 0.243825 0.308451 -0.684791
H17   H     H_    0.388603 0.314460 0.343764 0.344692
F1    F     F_    0.837413 0.679064 0.194471 -0.631099

loop_
_geom_bond_atom_site_label_1
_geom_bond_atom_site_label_2
_ccdc_geom_bond_type
C25   C31   A    
C23   O23   A    
C26   C32   A    
C41   C42   A    
Cr3   O3    S    
C22   C48   S    
C35   C36   A    
C44   O7    A    
C2    C12   S    
Cr2   O5    S    
C53   C54   S    
C26   C27   A    
C29   C30   A    
C14   C21   A    
C28   C29   A    
Cr4   O6    S    
C30   C31   A    
Cr1   O1    S    
Cr3   O22   S    
C15   C16   A    
Cr3   O23   S    
C46   C52   S    
C18   H11   S    
Cr2   O2    S    
C7    C9    T    
C18   C19   A    
C47   O6    A    
Cr1   O12   S    
C51   O4    A    
C33   C35   A    
C36   C42   A    
C38   H6    S    
C8    C9    S    
C48   O15   A    
Cr1   O24   S    
C45   O2    A    
Cr1   O5    S    
C12   O22   A    
C46   O9    A    
Cr6   O17   S    
C25   C32   A    
C17   H10   S    
C48   O14   A    
C30   H3    S    
C39   H5    S    
Cr3   O4    S    
C19   H12   S    
Cr5   O19   S    
Cr2   O21   S    
Cr6   O11   S    
C52   C54   T    
C41   H8    S    
C21   C45   S    
C3    C44   S    
C34   O25   A    
C34   C43   S    
C14   C20   A    
Cr5   O8    S    
C4    C6    T    
C39   C40   A    
C37   O27   S    
Cr6   O10   S    
C50   O18   A    
Cr5   O15   S    
C44   O8    A    
C33   C50   S    
C40   H7    S    
C42   H9    S    
C23   O1    A    
C47   O11   A    
C37   C43   A    
C35   C39   A    
Cr4   O19   S    
Cr5   O9    S    
C32   C51   S    
C37   C38   A    
C11   C49   S    
C11   C16   A    
C50   O13   A    
C17   C18   A    
C15   H1    S    
C45   O3    A    
C34   O26   A    
C24   C25   A    
Cr4   O14   S    
C12   O21   A    
C16   F1    S    
C40   C41   A    
C22   C27   A    
C22   C24   A    
C49   O16   A    
C27   H16   S    
C51   O24   A    
Cr2   O20   S    
C29   H2    S    
C31   H4    S    
C1    C10   S    
C24   C28   A    
C4    C5    S    
C3    C5    T    
C2    C53   T    
Cr1   O25   S    
C33   C38   A    
C13   C17   A    
C19   C20   A    
Cr2   O26   S    
Cr4   O7    S    
C11   C13   A    
C1    O12   A    
C1    O20   A    
C6    C23   S    
C26   H14   S    
C20   H13   S    
Cr3   O5    S    
Cr5   O16   S    
Cr4   O13   S    
Cr6   O19   S    
C15   C21   A    
C8    C10   T    
O27   H17   S    
C36   C43   A    
C49   O17   A    
C13   C14   A    
C28   H15   S    
C7    C47   S    
C46   O10   A    
Cr6   O18   S    
