data_mof_unit_22963.cif
_audit_creation_date              2012-12-10T18:59:17-0500
_audit_creation_method            fapswitch 2.2
_symmetry_space_group_name_H-M    P1
_symmetry_Int_Tables_number       1
_space_group_crystal_system       triclinic
_cell_length_a                    10.814844
_cell_length_b                    10.80832
_cell_length_c                    9.556162
_cell_angle_alpha                 90.417909
_cell_angle_beta                  90.455754
_cell_angle_gamma                 91.190087
_cell_volume                      1116.71522879

loop_
_atom_site_label
_atom_site_type_symbol
_atom_type_description
_atom_site_fract_x
_atom_site_fract_y
_atom_site_fract_z
_atom_type_partial_charge
C1    C     C_R   0.496646 0.262666 0.499649 0.800383
C2    C     C_R   0.069178 0.595475 0.595282 0.035039
C3    C     C_R   0.129609 0.517138 0.499251 -0.084731
C4    C     C_R   0.062005 0.445581 0.402262 -0.206510
C5    C     C_R   0.934528 0.445235 0.403409 -0.212721
C6    C     C_R   0.871970 0.516067 0.501870 -0.089594
C7    C     C_R   0.551131 0.067523 0.607318 0.082504
C8    C     C_R   0.490054 0.129622 0.501212 -0.076465
C9    C     C_R   0.422060 0.061858 0.399851 -0.213530
C10   C     C_R   0.423712 0.932467 0.400581 -0.224463
C11   C     C_R   0.495666 0.870990 0.500596 -0.077111
C12   C     C_R   0.262828 0.505588 0.499703 0.782042
C13   C     C_R   0.558330 0.940254 0.603443 0.097287
C14   C     C_3   0.693092 0.947989 0.645581 0.044465
C15   C     C_3   0.681171 0.087460 0.656802 -0.497677
C16   C     C_R   0.580714 0.574611 0.075314 0.277193
C17   C     C_R   0.427182 0.419356 0.073053 -0.079712
C18   C     C_R   0.427080 0.419429 0.924223 -0.076581
C19   C     C_R   0.581214 0.574314 0.928004 0.265361
C20   C     C_3   0.589656 0.712219 0.925282 -0.534323
C21   C     C_3   0.588182 0.712070 0.083394 -0.499711
C22   C     C_R   0.500901 0.737657 0.500222 0.793444
C23   C     C_R   0.737661 0.506084 0.500689 0.795149
C24   C     C_R   0.135556 0.677679 0.685959 -0.194720
C25   C     C_R   0.074773 0.750112 0.784637 0.325471
C26   C     C_R   0.945855 0.748805 0.785588 -0.246604
C27   C     C_R   0.878643 0.674055 0.691524 -0.207915
C28   C     C_R   0.938470 0.594139 0.597499 0.106962
Cu1   Cu    Cu3+1 0.499990 0.499980 0.640670 0.934574
Cu2   Cu    Cu3+1 0.500010 0.500020 0.359330 0.935869
H1    H     H_    0.108188 0.386544 0.327793 0.147068
H2    H     H_    0.684766 0.121969 0.766669 0.177603
H3    H     H_    0.739093 0.142639 0.583623 0.194977
H4    H     H_    0.366404 0.355753 0.127792 0.133771
H5    H     H_    0.366181 0.355924 0.867398 0.145275
H6    H     H_    0.679701 0.745282 0.885376 0.179693
H7    H     H_    0.507287 0.755788 0.877964 0.222691
H8    H     H_    0.676628 0.745901 0.131355 0.192115
H9    H     H_    0.503383 0.753711 0.126666 0.217037
H10   H     H_    0.234617 0.689852 0.679407 0.166579
H11   H     H_    0.897305 0.807818 0.857730 0.123793
H12   H     H_    0.779814 0.683057 0.690717 0.175926
H13   H     H_    0.884319 0.386242 0.329343 0.153374
H14   H     H_    0.369973 0.108669 0.319496 0.145502
H15   H     H_    0.371620 0.880814 0.321525 0.148168
H16   H     H_    0.711305 0.906115 0.748660 0.110283
N1    N     N_R   0.500790 0.500930 0.147930 -0.189107
N2    N     N_R   0.500790 0.500890 0.852020 -0.191790
O1    O     O_R   0.500000 0.319640 0.618810 -0.574296
O2    O     O_R   0.500010 0.319680 0.381230 -0.586678
O3    O     O_R   0.319640 0.499980 0.618820 -0.589455
O4    O     O_R   0.319650 0.500020 0.381230 -0.582260
O5    O     O_R   0.499990 0.680320 0.618770 -0.596620
O6    O     O_R   0.500000 0.680360 0.381190 -0.587584
O7    O     O_R   0.680350 0.499980 0.618770 -0.584474
O8    O     O_R   0.680360 0.500020 0.381180 -0.575534
N3    N     N_2   0.782273 0.909566 0.540258 -0.415575
H17   H     H_    0.872296 0.925452 0.573149 0.265742
C29   C     C_3   0.764096 0.937994 0.393289 -0.640279
H18   H     H_    0.850809 0.920761 0.335369 0.202984
H19   H     H_    0.739442 0.036085 0.378171 0.225108
H20   H     H_    0.691907 0.876250 0.346489 0.234894
N4    N     N_2   0.143608 0.828705 0.878333 -0.439401
H21   H     H_    0.092535 0.896631 0.925678 0.243121
C30   C     C_3   0.221946 0.764989 0.976741 -0.693284
H22   H     H_    0.276195 0.833847 0.040001 0.216101
H23   H     H_    0.287973 0.704932 0.921345 0.239560
H24   H     H_    0.164513 0.707580 0.048300 0.231595

loop_
_geom_bond_atom_site_label_1
_geom_bond_atom_site_label_2
_ccdc_geom_bond_type
N4    C30   S    
C23   O7    A    
Cu1   Cu2   S    
C30   H23   S    
C1    C8    S    
Cu2   O6    S    
C1    O2    A    
C11   C22   S    
C19   C20   S    
C21   H9    S    
C7    C13   A    
C30   H24   S    
Cu2   O8    S    
C10   H15   S    
C7    C15   S    
C17   C18   A    
N3    H17   S    
C29   H18   S    
C22   O6    A    
Cu1   O1    S    
C13   C14   S    
C20   C21   S    
C2    C24   A    
C20   H7    S    
C11   C13   A    
C27   H12   S    
C23   O8    A    
C26   C27   A    
C16   C21   S    
Cu1   O5    S    
C16   C19   A    
C6    C23   S    
C9    C10   A    
C12   O4    A    
Cu1   O3    S    
C2    C3    A    
C22   O5    A    
C10   C11   A    
C30   H22   S    
C5    H13   S    
C5    C6    A    
Cu2   O2    S    
C29   H19   S    
C4    H1    S    
N3    C29   S    
C17   H4    S    
C21   H8    S    
Cu1   N2    S    
N4    H21   S    
C20   H6    S    
C17   N1    A    
Cu2   N1    S    
C15   H2    S    
C12   O3    A    
C24   C25   A    
C16   N1    A    
C18   H5    S    
C7    C8    A    
C25   N4    S    
C27   C28   A    
C14   N3    S    
Cu2   O4    S    
C14   C15   S    
C4    C5    A    
C29   H20   S    
C2    C28   A    
C3    C12   S    
Cu1   O7    S    
C24   H10   S    
C25   C26   A    
C19   N2    A    
C1    O1    A    
C15   H3    S    
C6    C28   A    
C9    H14   S    
C3    C4    A    
C26   H11   S    
C8    C9    A    
C14   H16   S    
C18   N2    A    
