data_mof_unit_52984.cif
_audit_creation_date              2012-10-26T18:52:13-0400
_audit_creation_method            fapswitch 2.2
_symmetry_space_group_name_H-M    P1
_symmetry_Int_Tables_number       1
_space_group_crystal_system       triclinic
_cell_length_a                    13.863814
_cell_length_b                    14.611403
_cell_length_c                    14.967538
_cell_angle_alpha                 115.103498
_cell_angle_beta                  106.523023
_cell_angle_gamma                 72.921312
_cell_volume                      2579.39378746

loop_
_atom_site_label
_atom_site_type_symbol
_atom_type_description
_atom_site_fract_x
_atom_site_fract_y
_atom_site_fract_z
_atom_type_partial_charge
C1    C     C_R   0.518706 0.118405 0.687094 0.558569
C2    C     C_R   0.458032 0.513548 0.876388 -0.102913
C3    C     C_R   0.629902 0.379332 0.088753 0.256618
C4    C     C_R   0.415475 0.618568 0.904830 0.239176
C5    C     C_R   0.292204 0.324259 0.382340 -0.176499
C6    C     C_R   0.667448 0.711588 0.677881 -0.179358
C7    C     C_R   0.337348 0.227216 0.386085 -0.032518
C8    C     C_R   0.644003 0.789564 0.640687 -0.030842
C9    C     C_R   0.491721 0.284445 0.481140 0.493485
C10   C     C_R   0.510020 0.714178 0.516615 0.482025
C11   C     C_R   0.445228 0.388916 0.490076 -0.026258
C12   C     C_R   0.484908 0.881337 0.312842 0.565192
C13   C     C_R   0.521902 0.639839 0.560064 -0.020322
C14   C     C_R   0.344022 0.406773 0.436945 -0.047454
C15   C     C_R   0.605393 0.637317 0.639697 -0.044689
C16   C     C_R   0.686926 0.987498 0.504433 0.539067
C17   C     C_R   0.313174 0.013327 0.496708 0.535512
C18   C     C_R   0.495267 0.475261 0.548175 -0.068383
C19   C     C_R   0.456645 0.566579 0.525485 -0.068197
C20   C     C_R   0.351539 0.586207 0.478226 0.293332
C21   C     C_R   0.573775 0.477720 0.634737 0.310046
C22   C     C_R   0.293634 0.507300 0.442269 0.249457
C23   C     C_R   0.535087 0.358199 0.919170 -0.017517
C24   C     C_R   0.623649 0.564155 0.684081 0.249361
C25   C     C_1   0.208420 0.022889 0.498095 -0.030294
C26   C     C_1   0.791996 0.980696 0.506529 -0.037095
C27   C     C_2   0.015031 0.041619 0.502005 -0.127759
C28   C     C_2   0.986032 0.965395 0.507698 -0.127310
C29   C     C_1   0.880632 0.973702 0.507565 -0.073144
C30   C     C_1   0.120084 0.031976 0.499796 -0.068267
C31   C     C_R   0.541085 0.184076 0.792785 0.003273
C32   C     C_R   0.473891 0.815140 0.206381 0.012042
C33   C     C_R   0.643183 0.208890 0.957968 -0.146569
C34   C     C_R   0.502024 0.641990 0.078088 -0.022954
C35   C     C_R   0.387800 0.787395 0.035589 -0.136548
C36   C     C_R   0.614476 0.144247 0.859871 -0.210892
C37   C     C_R   0.403863 0.851948 0.135606 -0.213549
C38   C     C_R   0.494703 0.289016 0.824561 0.244281
C39   C     C_R   0.531516 0.714191 0.175930 0.227404
C40   C     C_3   0.224031 0.704573 0.409597 0.090749
C41   C     C_3   0.238917 0.635879 0.300178 -0.232469
C42   C     C_3   0.234500 0.699418 0.239536 -0.468034
C43   C     C_3   0.673801 0.381902 0.740255 0.085009
C44   C     C_3   0.769384 0.339473 0.690953 -0.235868
C45   C     C_R   0.603819 0.315485 0.988685 0.018310
C46   C     C_3   0.867027 0.330515 0.768373 -0.490518
C47   C     C_3   0.635428 0.317642 0.206447 -0.149270
C48   C     C_3   0.283726 0.614047 0.769431 -0.129884
C49   C     C_3   0.706573 0.688894 0.216391 0.000394
C50   C     C_3   0.800007 0.634111 0.271434 -0.250538
C51   C     C_3   0.812591 0.689016 0.385208 -0.387754
C52   C     C_3   0.320998 0.305615 0.779125 0.008575
C53   C     C_3   0.229790 0.324792 0.698891 -0.249850
C54   C     C_3   0.132922 0.303829 0.709451 -0.493680
C55   C     C_3   0.137469 0.569129 0.492787 0.002588
C56   C     C_R   0.434603 0.682435 0.005973 0.019399
C57   C     C_3   0.111722 0.485016 0.512526 -0.276370
C58   C     C_3   0.039244 0.531040 0.587663 -0.490425
C59   C     C_3   0.646525 0.653786 0.853598 0.004251
C60   C     C_3   0.729699 0.689606 0.945328 -0.274603
C61   C     C_3   0.685356 0.785702 0.027935 -0.489712
C62   C     C_3   0.501498 0.620758 0.350940 -0.109382
C63   C     C_3   0.643571 0.240323 0.431285 -0.138654
C64   C     C_R   0.507767 0.467493 0.947644 -0.040750
C65   C     C_R   0.535626 0.532468 0.049284 -0.041715
C66   C     C_R   0.592831 0.485042 0.118488 -0.113146
Cu1   Cu    Cu3+1 0.526370 0.916390 0.524860 0.995807
Cu2   Cu    Cu3+1 0.473630 0.083610 0.475140 0.994784
H1    H     H_    0.040942 0.895928 0.511227 0.120552
H2    H     H_    0.454443 0.470188 0.797308 0.220444
H3    H     H_    0.688168 0.849905 0.674977 0.130178
H4    H     H_    0.293324 0.166767 0.350223 0.134679
H5    H     H_    0.213420 0.786724 0.420356 0.157343
H6    H     H_    0.150401 0.701947 0.422384 0.122883
H7    H     H_    0.311939 0.578728 0.296856 0.171375
H8    H     H_    0.176528 0.591172 0.262267 0.151836
H9    H     H_    0.157852 0.750749 0.233719 0.132146
H10   H     H_    0.247860 0.647059 0.162706 0.135115
H11   H     H_    0.294311 0.747256 0.275769 0.193657
H12   H     H_    0.960119 0.111049 0.498325 0.123873
H13   H     H_    0.665233 0.319384 0.759297 0.144563
H14   H     H_    0.683233 0.445426 0.814222 0.158606
H15   H     H_    0.765121 0.261344 0.632925 0.186340
H16   H     H_    0.774942 0.389290 0.654388 0.180121
H17   H     H_    0.877193 0.408133 0.824963 0.168558
H18   H     H_    0.934203 0.294508 0.730210 0.144359
H19   H     H_    0.863515 0.281425 0.806810 0.144445
H20   H     H_    0.586257 0.261954 0.151815 0.114512
H21   H     H_    0.587477 0.389314 0.250887 0.096097
H22   H     H_    0.687958 0.281730 0.259211 0.131909
H23   H     H_    0.215091 0.335218 0.339849 0.154485
H24   H     H_    0.241788 0.593702 0.809736 0.107462
H25   H     H_    0.311391 0.544743 0.706138 0.138491
H26   H     H_    0.227793 0.669107 0.737451 0.133538
H27   H     H_    0.714402 0.769470 0.237309 0.134292
H28   H     H_    0.706535 0.646199 0.134505 0.116413
H29   H     H_    0.792254 0.553637 0.250532 0.180910
H30   H     H_    0.870266 0.630813 0.247499 0.112430
H31   H     H_    0.827588 0.766945 0.407735 0.149260
H32   H     H_    0.878698 0.644392 0.421629 0.109154
H33   H     H_    0.742884 0.695661 0.411790 0.200546
H34   H     H_    0.732317 0.711868 0.738761 0.147931
H35   H     H_    0.304479 0.360221 0.854630 0.129385
H36   H     H_    0.331136 0.224859 0.773598 0.125171
H37   H     H_    0.215730 0.406107 0.705610 0.151452
H38   H     H_    0.247771 0.273590 0.623240 0.195320
H39   H     H_    0.145442 0.222962 0.703569 0.156909
H40   H     H_    0.068897 0.315641 0.648550 0.141054
H41   H     H_    0.111048 0.357281 0.782955 0.144430
H42   H     H_    0.064317 0.619665 0.473489 0.139448
H43   H     H_    0.180801 0.619618 0.562306 0.130951
H44   H     H_    0.074378 0.431700 0.441004 0.175722
H45   H     H_    0.361257 0.930799 0.157663 0.132089
H46   H     H_    0.183398 0.440303 0.542760 0.155729
H47   H     H_    0.074703 0.583958 0.660462 0.132142
H48   H     H_    0.022590 0.468240 0.600459 0.149345
H49   H     H_    0.965613 0.574054 0.558286 0.148830
H50   H     H_    0.595615 0.621666 0.872826 0.161367
H51   H     H_    0.599755 0.722237 0.835440 0.156124
H52   H     H_    0.766041 0.626548 0.974446 0.148834
H53   H     H_    0.789847 0.707850 0.923348 0.171960
H54   H     H_    0.655362 0.851459 0.002141 0.152955
H55   H     H_    0.746437 0.806785 0.095284 0.133117
H56   H     H_    0.650053 0.063110 0.836365 0.130990
H57   H     H_    0.622042 0.771315 0.048708 0.157683
H58   H     H_    0.583764 0.623524 0.362874 0.147563
H59   H     H_    0.495747 0.546365 0.350319 0.062298
H60   H     H_    0.463527 0.623225 0.275928 0.149045
H61   H     H_    0.635882 0.314355 0.422873 0.080173
H62   H     H_    0.612451 0.182812 0.358833 0.113226
H63   H     H_    0.726717 0.209264 0.449974 0.122897
H64   H     H_    0.697992 0.175265 0.009085 0.165072
H65   H     H_    0.334836 0.819149 0.982213 0.172546
H66   H     H_    0.610679 0.526296 0.197351 0.175095
N1    N     N_R   0.433980 0.209250 0.437830 -0.229160
N2    N     N_R   0.566020 0.790750 0.562170 -0.228037
O1    O     O_R   0.534760 0.019630 0.662610 -0.531194
O2    O     O_3   0.580981 0.405460 0.676236 -0.541315
O3    O     O_3   0.695100 0.339317 0.158384 -0.580147
O4    O     O_3   0.365785 0.662424 0.833468 -0.582749
O5    O     O_3   0.616432 0.689428 0.242996 -0.591187
O6    O     O_3   0.408914 0.321904 0.762788 -0.571015
O7    O     O_3   0.188245 0.526139 0.409677 -0.601611
O8    O     O_3   0.693445 0.576295 0.773301 -0.608602
O9    O     O_3   0.450302 0.704886 0.423548 -0.507727
O10   O     O_3   0.596036 0.255854 0.509736 -0.512619
O11   O     O_R   0.465240 0.980370 0.337390 -0.532316
O12   O     O_R   0.490220 0.160840 0.620610 -0.424614
O13   O     O_R   0.509780 0.839160 0.379390 -0.426304
O14   O     O_R   0.663260 0.919400 0.523940 -0.521769
O15   O     O_R   0.336740 0.080600 0.476060 -0.526914
O16   O     O_R   0.618720 0.060610 0.481950 -0.454263
O17   O     O_R   0.381280 0.939390 0.518050 -0.456270
O18   O     O_3   0.306662 0.688169 0.486895 -0.536363

loop_
_geom_bond_atom_site_label_1
_geom_bond_atom_site_label_2
_ccdc_geom_bond_type
C52   H35   S    
C34   C56   A    
C23   C45   A    
Cu1   O13   S    
C18   C21   A    
C33   C45   A    
C41   C42   S    
C28   H1    S    
C44   H15   S    
C17   O17   A    
C35   H65   S    
C11   C18   A    
C53   C54   S    
C48   H26   S    
C54   H39   S    
C12   O11   A    
C28   C29   S    
C35   C37   A    
C10   N2    A    
C62   H59   S    
C11   C14   A    
C32   C39   A    
C57   H44   S    
C8    N2    A    
C9    O10   S    
C1    C31   S    
C33   C36   A    
C40   H5    S    
C43   O2    S    
C18   C19   A    
C63   H62   S    
C49   C50   S    
C6    C15   A    
C66   H66   S    
C53   H38   S    
C52   H36   S    
C39   O5    S    
C44   C46   S    
C50   H29   S    
C62   O9    S    
C49   O5    S    
C22   O7    S    
C60   H52   S    
C63   H63   S    
C61   H55   S    
C63   O10   S    
Cu2   O12   S    
C46   H17   S    
C6    H34   S    
C59   C60   S    
C12   C32   S    
C27   C30   S    
C58   H48   S    
C47   H21   S    
C40   O18   S    
C17   O15   A    
C21   O2    S    
C34   C65   A    
C2    C64   A    
C16   C26   S    
C50   H30   S    
C55   O7    S    
C48   H25   S    
C48   O4    S    
C34   C39   A    
C23   C64   A    
C27   H12   S    
C7    H4    S    
C5    C7    A    
C13   C19   A    
C6    C8    A    
C3    C45   A    
C58   H49   S    
C52   O6    S    
Cu1   Cu2   S    
C54   H41   S    
C61   H54   S    
C2    C4    A    
C43   C44   S    
C7    N1    A    
Cu2   O16   S    
C4    O4    S    
C51   H31   S    
C50   C51   S    
C16   O16   A    
C32   C37   A    
C49   H27   S    
C9    C11   A    
C5    C14   A    
C5    H23   S    
Cu2   O11   S    
C20   O18   S    
C41   H7    S    
C42   H9    S    
C9    N1    A    
C33   H64   S    
C15   C24   A    
C20   C22   A    
C59   O8    S    
C42   H10   S    
C59   H50   S    
C55   C57   S    
C55   H42   S    
C58   H47   S    
C43   H13   S    
C47   H22   S    
C3    C66   A    
C3    O3    S    
C36   H56   S    
Cu1   O14   S    
C1    O1    A    
C52   C53   S    
C62   H58   S    
C46   H19   S    
C25   C30   T    
C40   C41   S    
C8    H3    S    
C59   H51   S    
C55   H43   S    
C35   C56   A    
C12   O13   A    
Cu2   N1    S    
C44   H16   S    
C10   C13   A    
C16   O14   A    
C57   H46   S    
C51   H33   S    
C23   C38   A    
C31   C38   A    
C54   H40   S    
Cu1   O17   S    
C17   C25   S    
C47   H20   S    
C14   C22   A    
C19   C20   A    
C13   C15   A    
Cu1   N2    S    
Cu2   O15   S    
C64   C65   A    
C41   H8    S    
C62   H60   S    
C57   C58   S    
C24   O8    S    
C40   H6    S    
C38   O6    S    
C63   H61   S    
C49   H28   S    
C60   H53   S    
Cu1   O1    S    
C10   O9    S    
C53   H37   S    
C42   H11   S    
C37   H45   S    
C26   C29   T    
C65   C66   A    
C48   H24   S    
C21   C24   A    
C47   O3    S    
C27   C28   D    
C43   H14   S    
C31   C36   A    
C60   C61   S    
C1    O12   A    
C61   H57   S    
C51   H32   S    
C2    H2    S    
C4    C56   A    
C46   H18   S    
