data_mof_unit_50537.cif
_audit_creation_date              2012-12-10T17:17:49-0500
_audit_creation_method            fapswitch 2.2
_symmetry_space_group_name_H-M    P1
_symmetry_Int_Tables_number       1
_space_group_crystal_system       triclinic
_cell_length_a                    14.962104
_cell_length_b                    15.647923
_cell_length_c                    9.586196
_cell_angle_alpha                 89.662948
_cell_angle_beta                  89.479221
_cell_angle_gamma                 89.502701
_cell_volume                      2244.16125265

loop_
_atom_site_label
_atom_site_type_symbol
_atom_type_description
_atom_site_fract_x
_atom_site_fract_y
_atom_site_fract_z
_atom_type_partial_charge
C1    C     C_R   0.384670 0.877877 0.501814 0.803707
C2    C     C_R   0.379447 0.116784 0.500236 0.813824
C3    C     C_R   0.884677 0.377873 0.501810 0.803707
C4    C     C_R   0.879424 0.616761 0.500235 0.813833
C5    C     C_R   0.326023 0.257147 0.431637 -0.260695
C6    C     C_R   0.287689 0.778044 0.380502 -0.273441
C7    C     C_R   0.825870 0.756999 0.431221 -0.260718
C8    C     C_R   0.787645 0.278088 0.380483 -0.273427
C9    C     C_R   0.762532 0.821609 0.431544 0.574100
C10   C     C_R   0.718688 0.220184 0.377573 0.588413
C11   C     C_R   0.262673 0.321752 0.431949 0.573998
C12   C     C_R   0.218737 0.720137 0.377578 0.588518
C13   C     C_R   0.680680 0.809803 0.500173 -0.216079
C14   C     C_R   0.675450 0.195686 0.502014 -0.236911
C15   C     C_R   0.180705 0.309830 0.500174 -0.215991
C16   C     C_R   0.175440 0.695691 0.501996 -0.236911
C17   C     C_R   0.664200 0.001818 0.141805 -0.011818
C18   C     C_R   0.164202 0.501789 0.141810 -0.012082
C19   C     C_R   0.744618 0.003886 0.068632 -0.112150
C20   C     C_R   0.244621 0.503838 0.068637 -0.112408
C21   C     C_R   0.744804 0.003494 0.924938 -0.236108
C22   C     C_R   0.244806 0.503457 0.924943 -0.235992
C23   C     C_R   0.664578 0.001123 0.853659 -0.125946
C24   C     C_R   0.164579 0.501110 0.853662 -0.125858
C25   C     C_R   0.580855 0.000764 0.924016 0.196841
C26   C     C_R   0.080856 0.500756 0.924017 0.196829
C27   C     C_R   0.580755 0.000933 0.073623 0.169266
C28   C     C_R   0.080756 0.500921 0.073626 0.169347
C29   C     C_R   0.423099 0.998897 0.075011 -0.050512
C30   C     C_R   0.923098 0.498906 0.075011 -0.050537
C31   C     C_R   0.613761 0.123293 0.499956 0.838545
C32   C     C_R   0.617476 0.880201 0.499966 0.845200
C33   C     C_R   0.113759 0.623293 0.499952 0.838713
C34   C     C_R   0.117488 0.380213 0.499966 0.845353
C35   C     C_R   0.423131 0.998927 0.927018 -0.068518
C36   C     C_R   0.923131 0.498935 0.927018 -0.068440
C37   C     C_R   0.205758 0.086383 0.632203 -0.155124
C38   C     C_R   0.320670 0.790737 0.768365 -0.169520
C39   C     C_R   0.705890 0.586515 0.632879 -0.155105
C40   C     C_R   0.820837 0.290595 0.768308 -0.169496
C41   C     C_R   0.122645 0.073128 0.695292 -0.135150
C42   C     C_R   0.271660 0.776436 0.890471 -0.140798
C43   C     C_R   0.622861 0.573342 0.696292 -0.135173
C44   C     C_R   0.771896 0.276240 0.890463 -0.140862
C45   C     C_R   0.558369 0.637947 0.695317 -0.127328
C46   C     C_R   0.684047 0.249166 0.882802 -0.106498
C47   C     C_R   0.058142 0.137724 0.694290 -0.127357
C48   C     C_R   0.183822 0.749342 0.882726 -0.106377
C49   C     C_R   0.576582 0.716152 0.631149 -0.138490
C50   C     C_R   0.648295 0.228237 0.753979 -0.140891
C51   C     C_R   0.076435 0.216009 0.630441 -0.138521
C52   C     C_R   0.148150 0.728342 0.753882 -0.140918
C53   C     C_R   0.660721 0.731450 0.567769 0.023304
C54   C     C_R   0.700710 0.233559 0.630190 0.022197
C55   C     C_R   0.160656 0.231387 0.567405 0.023285
C56   C     C_R   0.200630 0.733621 0.630156 0.022149
C57   C     C_R   0.226077 0.165610 0.568086 0.094733
C58   C     C_R   0.282019 0.778059 0.635327 0.094167
C59   C     C_R   0.726137 0.665668 0.568441 0.094786
C60   C     C_R   0.782107 0.277984 0.635310 0.094095
C61   C     C_R   0.309016 0.180299 0.500702 -0.188882
C62   C     C_R   0.320198 0.807906 0.507417 -0.206554
C63   C     C_R   0.808979 0.680261 0.500692 -0.189017
C64   C     C_R   0.820218 0.307892 0.507395 -0.206573
Cu1   Cu    Cu3+1 0.499990 0.000000 0.640660 0.917791
Cu2   Cu    Cu3+1 0.999990 0.500000 0.640660 0.917851
Cu3   Cu    Cu3+1 0.500010 0.000000 0.359340 0.967489
Cu4   Cu    Cu3+1 0.000010 0.500000 0.359340 0.967439
H1    H     H_    0.389755 0.267800 0.379930 0.176728
H2    H     H_    0.316389 0.798786 0.281928 0.181740
H3    H     H_    0.889510 0.767568 0.379186 0.176856
H4    H     H_    0.816293 0.298875 0.281898 0.181732
H5    H     H_    0.807635 0.004440 0.867956 0.158913
H6    H     H_    0.307637 0.504396 0.867961 0.158979
H7    H     H_    0.672676 0.999339 0.743715 0.211502
H8    H     H_    0.172677 0.499339 0.743717 0.211541
H9    H     H_    0.360144 0.997990 0.872518 0.140599
H10   H     H_    0.860144 0.498004 0.872519 0.140548
H11   H     H_    0.252996 0.033673 0.632519 0.138324
H12   H     H_    0.389562 0.808279 0.781561 0.164284
H13   H     H_    0.753104 0.533788 0.633170 0.138414
H14   H     H_    0.889739 0.308133 0.781418 0.164297
H15   H     H_    0.107923 0.012156 0.743865 0.138725
H16   H     H_    0.301365 0.788161 0.991066 0.152832
H17   H     H_    0.608192 0.512423 0.745079 0.138717
H18   H     H_    0.801659 0.287914 0.991032 0.152842
H19   H     H_    0.493610 0.627181 0.743276 0.135410
H20   H     H_    0.644227 0.242203 0.976964 0.187841
H21   H     H_    0.993321 0.126897 0.742006 0.135403
H22   H     H_    0.143953 0.742416 0.976846 0.187581
H23   H     H_    0.523747 0.763590 0.630041 0.133200
H24   H     H_    0.578905 0.209767 0.752887 0.166176
H25   H     H_    0.023611 0.263459 0.629326 0.132965
H26   H     H_    0.078767 0.709849 0.752715 0.166129
H27   H     H_    0.360074 0.997979 0.131168 0.139134
H28   H     H_    0.860073 0.497996 0.131168 0.139150
H29   H     H_    0.671547 0.000911 0.251559 0.239309
H30   H     H_    0.171553 0.500888 0.251566 0.239289
H31   H     H_    0.807305 0.005207 0.124140 0.191312
H32   H     H_    0.307307 0.505141 0.124147 0.191326
N1    N     N_R   0.501200 0.000000 0.147910 -0.202348
N2    N     N_R   0.001200 0.500000 0.147910 -0.202367
N3    N     N_R   0.501270 0.000000 0.852040 -0.203211
N4    N     N_R   0.001270 0.500000 0.852040 -0.203226
O1    O     O_R   0.409820 0.909830 0.618810 -0.606327
O2    O     O_R   0.409820 0.090170 0.618810 -0.585227
O3    O     O_R   0.909820 0.409830 0.618810 -0.606288
O4    O     O_R   0.909820 0.590170 0.618810 -0.585289
O5    O     O_R   0.409840 0.909830 0.381240 -0.585943
O6    O     O_R   0.409840 0.090170 0.381240 -0.573052
O7    O     O_R   0.909840 0.409830 0.381240 -0.585943
O8    O     O_R   0.909840 0.590170 0.381240 -0.573106
O9    O     O_R   0.590170 0.090170 0.618760 -0.620378
O10   O     O_R   0.590170 0.909830 0.618760 -0.613370
O11   O     O_R   0.090170 0.590170 0.618760 -0.620343
O12   O     O_R   0.090170 0.409830 0.618760 -0.613288
O13   O     O_R   0.590190 0.090180 0.381190 -0.538283
O14   O     O_R   0.590190 0.909820 0.381190 -0.581622
O15   O     O_R   0.090190 0.590180 0.381190 -0.538253
O16   O     O_R   0.090190 0.409820 0.381190 -0.581853
F1    F     F_    0.782442 0.897075 0.368609 -0.706787
F2    F     F_    0.694011 0.189390 0.251682 -0.687524
F3    F     F_    0.282668 0.397322 0.369407 -0.706671
F4    F     F_    0.194125 0.689288 0.251692 -0.687409

loop_
_geom_bond_atom_site_label_1
_geom_bond_atom_site_label_2
_ccdc_geom_bond_type
C58   C62   A    
Cu2   Cu4   S    
C18   C28   A    
C40   C60   A    
Cu1   O10   S    
C13   C32   S    
Cu2   O3    S    
C1    C62   S    
C53   C59   A    
C54   C60   A    
C3    C64   S    
C4    O4    A    
C4    C63   S    
C50   C54   A    
Cu2   O12   S    
C45   H19   S    
Cu4   N2    S    
C38   C42   A    
C35   N3    A    
Cu4   O15   S    
C6    C12   A    
C34   O12   A    
C41   H15   S    
C21   H5    S    
C18   C20   A    
C6    H2    S    
Cu4   O8    S    
C9    C13   A    
C31   O13   A    
C5    H1    S    
C1    O5    A    
C38   C58   A    
C11   C15   A    
Cu3   O5    S    
C12   C16   A    
C3    O7    A    
Cu1   Cu3   S    
C12   F4    S    
C9    F1    S    
C52   H26   S    
C14   C31   S    
C15   C34   S    
C46   H20   S    
C2    C61   S    
C26   N4    A    
C4    O8    A    
C48   H22   S    
C47   H21   S    
C49   H23   S    
C44   H18   S    
Cu1   O1    S    
C44   C46   A    
C13   C53   A    
C56   C58   A    
C34   O16   A    
C8    H4    S    
C33   O11   A    
Cu2   O11   S    
C5    C61   A    
C17   C27   A    
Cu2   N4    S    
C42   H16   S    
C39   H13   S    
C10   C14   A    
C32   O14   A    
C29   H27   S    
C19   H31   S    
C25   N3    A    
C39   C43   A    
C3    O3    A    
C27   N1    A    
C2    O2    A    
Cu4   O7    S    
C43   H17   S    
C16   C56   A    
C40   H14   S    
C16   C33   S    
C37   H11   S    
Cu3   O6    S    
C20   H32   S    
C45   C49   A    
C39   C59   A    
C30   N2    A    
C41   C47   A    
C29   N1    A    
C42   C48   A    
C57   C61   A    
Cu3   O13   S    
C7    C63   A    
C8    C64   A    
C50   H24   S    
C14   C54   A    
C20   C22   A    
C33   O15   A    
C21   C23   A    
C22   C24   A    
C59   C63   A    
Cu1   N3    S    
C40   C44   A    
Cu1   O2    S    
C23   H7    S    
Cu3   N1    S    
C7    C9    A    
C46   C50   A    
C2    O6    A    
C19   C21   A    
Cu1   O9    S    
C11   F3    S    
C24   C26   A    
Cu2   O4    S    
C10   F2    S    
C47   C51   A    
C5    C11   A    
C25   C27   A    
C29   C35   A    
C26   C28   A    
C51   H25   S    
C30   C36   A    
C60   C64   A    
C6    C62   A    
C55   C57   A    
C43   C45   A    
C36   H10   S    
Cu4   O16   S    
C7    H3    S    
C36   N4    A    
C38   H12   S    
C49   C53   A    
C17   C19   A    
C35   H9    S    
C51   C55   A    
C23   C25   A    
C37   C41   A    
Cu3   O14   S    
C24   H8    S    
C30   H28   S    
C28   N2    A    
C48   C52   A    
C8    C10   A    
C1    O1    A    
C22   H6    S    
C18   H30   S    
C32   O10   A    
C17   H29   S    
C31   O9    A    
C37   C57   A    
C52   C56   A    
C15   C55   A    
