data_mof_unit_54574.cif
_audit_creation_date              2013-03-05T15:42:34-0500
_audit_creation_method            fapswitch 2.2
_symmetry_space_group_name_H-M    P1
_symmetry_Int_Tables_number       1
_space_group_crystal_system       triclinic
_cell_length_a                    28.995981
_cell_length_b                    17.639113
_cell_length_c                    18.933479
_cell_angle_alpha                 89.530842
_cell_angle_beta                  138.859937
_cell_angle_gamma                 90.244167
_cell_volume                      6370.73876923

loop_
_atom_site_label
_atom_site_type_symbol
_atom_site_description
_atom_site_fract_x
_atom_site_fract_y
_atom_site_fract_z
_atom_type_partial_charge
C1    C     C_R   0.680151 0.910615 0.809488 -0.175551
C2    C     C_R   0.685346 0.100253 0.797195 -0.172065
C3    C     C_R   0.180217 0.405678 0.809039 -0.139011
C4    C     C_R   0.181178 0.593245 0.808373 -0.133912
H1    H     H_    0.725518 0.946268 0.864057 0.114344
H2    H     H_    0.734105 0.074615 0.839428 0.123534
H3    H     H_    0.229675 0.435028 0.866414 0.086390
H4    H     H_    0.231058 0.565224 0.864174 0.104406
N1    N     N_R   0.625250 0.928170 0.708660 -0.037261
N2    N     N_R   0.625250 0.071830 0.708660 -0.039029
N3    N     N_R   0.125250 0.428170 0.708660 -0.038226
N4    N     N_R   0.125250 0.571830 0.708660 -0.041592
C5    C     C_R   0.351189 0.083863 0.472208 -0.089270
C6    C     C_R   0.352116 0.917346 0.473778 -0.115475
C7    C     C_R   0.856069 0.576836 0.481422 -0.071018
C8    C     C_R   0.837497 0.404172 0.441312 -0.108568
H5    H     H_    0.302093 0.058827 0.430382 0.091927
H6    H     H_    0.302769 0.942561 0.430289 0.093567
H7    H     H_    0.813117 0.543219 0.450736 0.082267
H8    H     H_    0.786555 0.429603 0.390287 0.103489
N5    N     N_R   0.386350 0.070500 0.452620 -0.042950
N6    N     N_R   0.386350 0.929500 0.452620 -0.045416
N7    N     N_R   0.886350 0.570500 0.452620 -0.039039
N8    N     N_R   0.886350 0.429500 0.452620 -0.046933
C9    C     C_R   0.438728 0.830879 0.569651 -0.083040
C10   C     C_R   0.437695 0.170355 0.566400 -0.082437
C11   C     C_R   0.922341 0.314715 0.535183 -0.116037
C12   C     C_R   0.937698 0.668676 0.567730 -0.108772
H9    H     H_    0.473526 0.784620 0.622367 0.090879
H10   H     H_    0.472886 0.216382 0.617682 0.088568
H11   H     H_    0.952863 0.263589 0.577739 0.093446
H12   H     H_    0.969902 0.717081 0.615485 0.095386
N9    N     N_R   0.437960 0.869720 0.507940 -0.040584
N10   N     N_R   0.437960 0.130280 0.507940 -0.037243
N11   N     N_R   0.937960 0.369720 0.507940 -0.043011
N12   N     N_R   0.937960 0.630280 0.507940 -0.039966
C13   C     C_R   0.603258 0.189259 0.715549 -0.181942
C14   C     C_R   0.602105 0.814927 0.723864 -0.156806
C15   C     C_R   0.099234 0.685244 0.718959 -0.189434
C16   C     C_R   0.099187 0.312973 0.717911 -0.197901
H13   H     H_    0.578205 0.243987 0.690539 0.102090
H14   H     H_    0.580222 0.758762 0.703832 0.098234
H15   H     H_    0.074018 0.739818 0.693801 0.111676
H16   H     H_    0.075987 0.257246 0.689922 0.107228
N13   N     N_R   0.573630 0.128950 0.653340 -0.036865
N14   N     N_R   0.573630 0.871050 0.653340 -0.036561
N15   N     N_R   0.073630 0.628950 0.653340 -0.041418
N16   N     N_R   0.073630 0.371050 0.653340 -0.033986
C17   C     C_R   0.668220 0.839136 0.822299 0.074658
C18   C     C_R   0.672334 0.170220 0.810093 0.108341
C19   C     C_R   0.163993 0.334409 0.817994 0.069200
C20   C     C_R   0.164447 0.661929 0.818492 0.118585
C21   C     C_R   0.386273 0.140228 0.550169 0.048435
C22   C     C_R   0.388236 0.862297 0.554755 0.047989
C23   C     C_R   0.889629 0.634520 0.557209 0.042954
C24   C     C_R   0.860916 0.335935 0.497717 0.068686
C25   C     C_R   0.668581 0.101645 0.589578 -0.108743
C26   C     C_R   0.668439 0.896495 0.590847 -0.119454
C27   C     C_R   0.164122 0.598975 0.572734 -0.108689
C28   C     C_R   0.168582 0.396635 0.591656 -0.116307
H17   H     H_    0.716641 0.069669 0.643421 0.132134
H18   H     H_    0.717601 0.924438 0.655956 0.134378
H19   H     H_    0.212410 0.568046 0.620969 0.120184
H20   H     H_    0.217593 0.424613 0.657392 0.129073
N17   N     N_R   0.609990 0.071870 0.547380 -0.046520
N18   N     N_R   0.609990 0.928130 0.547380 -0.048069
N19   N     N_R   0.109990 0.571870 0.547380 -0.047350
N20   N     N_R   0.109990 0.428130 0.547380 -0.048055
C29   C     C_R   0.313697 0.898123 0.196712 -0.113475
C30   C     C_R   0.327766 0.084877 0.187959 -0.084305
C31   C     C_R   0.823752 0.408152 0.188061 -0.062599
C32   C     C_R   0.826538 0.587691 0.187194 -0.107658
H21   H     H_    0.265433 0.928261 0.146712 0.165736
H22   H     H_    0.279276 0.054053 0.127549 0.153233
H23   H     H_    0.773938 0.436689 0.127374 0.095658
H24   H     H_    0.776500 0.560037 0.124622 0.090786
N21   N     N_R   0.371090 0.922150 0.291340 -0.057301
N22   N     N_R   0.371090 0.077850 0.291340 -0.048783
N23   N     N_R   0.871090 0.422150 0.291340 -0.041820
N24   N     N_R   0.871090 0.577850 0.291340 -0.036638
C33   C     C_R   0.586294 0.806637 0.497288 -0.145631
C34   C     C_R   0.589729 0.194852 0.507414 -0.159694
C35   C     C_R   0.086861 0.306514 0.498722 -0.118570
C36   C     C_R   0.084799 0.692454 0.492109 -0.089458
H25   H     H_    0.558524 0.753733 0.465865 0.146001
H26   H     H_    0.565626 0.249839 0.485303 0.117885
H27   H     H_    0.059902 0.253194 0.469171 0.159002
H28   H     H_    0.063051 0.748686 0.473369 0.109991
N25   N     N_R   0.558380 0.869490 0.492060 -0.049684
N26   N     N_R   0.558380 0.130510 0.492060 -0.047684
N27   N     N_R   0.058380 0.369490 0.492060 -0.054967
N28   N     N_R   0.058380 0.630510 0.492060 -0.053827
C37   C     C_R   0.413187 0.168821 0.279448 -0.009000
C38   C     C_R   0.400365 0.816691 0.284025 -0.053696
C39   C     C_R   0.913134 0.669997 0.281126 -0.024069
C40   C     C_R   0.910864 0.326223 0.282935 -0.055370
H29   H     H_    0.444548 0.218206 0.303726 0.093210
H30   H     H_    0.432236 0.767957 0.309063 0.146859
H31   H     H_    0.945529 0.718798 0.308484 0.120811
H32   H     H_    0.944501 0.278608 0.314604 0.168228
N29   N     N_R   0.422710 0.124520 0.346660 -0.041267
N30   N     N_R   0.422710 0.875480 0.346660 -0.055840
N31   N     N_R   0.922710 0.624520 0.346660 -0.057274
N32   N     N_R   0.922710 0.375480 0.346660 -0.059080
Ni1   Ni    Ni4+2 0.616550 1.000000 0.626870 0.196385
Ni2   Ni    Ni4+2 0.116550 0.500000 0.626870 0.199611
Ni3   Ni    Ni4+2 0.379790 0.000000 0.373130 0.252928
Ni4   Ni    Ni4+2 0.879790 0.500000 0.373130 0.271167
Ni5   Ni    Ni4+2 0.498170 0.870760 0.500000 0.234641
Ni6   Ni    Ni4+2 0.498170 0.129240 0.500000 0.239601
Ni7   Ni    Ni4+2 0.998170 0.370760 0.500000 0.226067
Ni8   Ni    Ni4+2 0.998170 0.629240 0.500000 0.229543
C41   C     C_R   0.659871 0.179433 0.572991 0.079827
C42   C     C_R   0.656804 0.820093 0.562274 0.095458
C43   C     C_R   0.150446 0.674843 0.540783 0.085643
C44   C     C_R   0.157197 0.320279 0.563609 0.096565
C45   C     C_R   0.330247 0.829933 0.187669 0.063605
C46   C     C_R   0.350661 0.146878 0.176805 0.039902
C47   C     C_R   0.847081 0.344450 0.179747 0.051463
C48   C     C_R   0.850900 0.649067 0.177883 0.081568
C49   C     C_3   0.675691 0.265896 0.907379 -0.565074
C50   C     C_3   0.687611 0.771432 0.955640 -0.552750
C51   C     C_3   0.173183 0.782199 0.890199 -0.569372
C52   C     C_3   0.220931 0.209085 0.883172 -0.558626
H33   H     H_    0.646596 0.307298 0.840063 0.164862
H34   H     H_    0.635675 0.743722 0.888681 0.157824
H35   H     H_    0.166349 0.812833 0.830969 0.181515
H36   H     H_    0.239563 0.221791 0.850141 0.167541
H37   H     H_    0.634815 0.235101 0.890602 0.208715
H38   H     H_    0.676462 0.822423 0.974967 0.213405
H39   H     H_    0.119698 0.776268 0.851177 0.199935
H40   H     H_    0.170399 0.178801 0.819075 0.220131
C53   C     C_3   0.218109 0.831412 0.988549 0.164521
C54   C     C_3   0.275921 0.158469 0.983593 0.206723
C55   C     C_3   0.722946 0.311468 0.010419 0.171834
C56   C     C_3   0.736803 0.715987 0.050997 0.206958
H41   H     H_    0.712351 0.371774 0.983805 0.077936
H42   H     H_    0.707020 0.661856 0.020644 0.088279
H43   H     H_    0.239364 0.878032 0.979119 0.164148
H44   H     H_    0.322193 0.154469 0.001107 0.104425
H45   H     H_    0.732750 0.301118 0.846601 0.169813
H46   H     H_    0.677991 0.685170 0.829180 0.176117
H47   H     H_    0.271071 0.758262 0.909843 0.187820
H48   H     H_    0.306512 0.325875 0.969462 0.172625
H49   H     H_    0.347463 0.813292 0.071055 0.185149
H50   H     H_    0.384368 0.259977 0.122632 0.166463
H51   H     H_    0.798519 0.374718 0.992276 0.153436
H52   H     H_    0.754555 0.607594 0.969308 0.153992
C57   C     C_3   0.766793 0.263806 0.919122 -0.450912
C58   C     C_3   0.728992 0.715423 0.890121 -0.444315
C59   C     C_3   0.279345 0.720366 0.966020 -0.453439
C60   C     C_3   0.286321 0.320712 0.001261 -0.432369
C61   C     C_3   0.214271 0.659047 0.000690 0.178849
C62   C     C_3   0.180366 0.265457 0.954905 0.163488
C63   C     C_3   0.764263 0.156243 0.014863 0.178772
C64   C     C_3   0.793107 0.835038 0.018219 0.166111
C65   C     C_3   0.720232 0.211531 0.912191 0.233048
C66   C     C_3   0.720006 0.792262 0.920226 0.213991
C67   C     C_3   0.207878 0.702994 0.918631 0.242129
C68   C     C_3   0.211213 0.284294 0.913203 0.204995
C69   C     C_3   0.283803 0.783666 0.091171 0.008383
C70   C     C_3   0.301499 0.197536 0.082889 0.002428
C71   C     C_3   0.802761 0.294067 0.085632 0.031153
C72   C     C_3   0.805108 0.700283 0.084394 -0.001239
C73   C     C_3   0.326142 0.761413 0.072599 -0.419886
C74   C     C_3   0.337651 0.272208 0.102130 -0.450219
C75   C     C_3   0.813415 0.314339 0.018768 -0.390438
C76   C     C_3   0.780801 0.662498 0.987436 -0.417189
C77   C     C_3   0.258177 0.711025 0.102319 0.132536
C78   C     C_3   0.237510 0.216231 0.059379 0.213169
C79   C     C_3   0.818841 0.206943 0.117939 0.144411
C80   C     C_3   0.843767 0.776396 0.111322 0.205612
H53   H     H_    0.222526 0.732579 0.102228 0.132592
H54   H     H_    0.214708 0.160152 0.043484 0.098166
H55   H     H_    0.811700 0.198408 0.167260 0.115192
H56   H     H_    0.859540 0.797693 0.181445 0.096853
H57   H     H_    0.798192 0.232145 0.916984 0.182386
H58   H     H_    0.744002 0.722775 0.851684 0.187309
H59   H     H_    0.305537 0.670067 0.973799 0.176252
H60   H     H_    0.287905 0.379053 0.023321 0.176566
H61   H     H_    0.372372 0.725874 0.138682 0.206528
H62   H     H_    0.356846 0.305113 0.169901 0.222676
H63   H     H_    0.868636 0.310576 0.065070 0.234314
H64   H     H_    0.824422 0.648324 0.001675 0.234659
C81   C     C_R   0.710506 0.763021 0.601058 -0.008943
C82   C     C_R   0.716199 0.233957 0.619954 -0.050746
C83   C     C_R   0.211001 0.263738 0.602392 -0.006980
C84   C     C_R   0.198974 0.731586 0.566886 0.009307
C85   C     C_R   0.372247 0.164192 0.606302 0.112996
C86   C     C_R   0.374589 0.841575 0.613053 0.117486
C87   C     C_R   0.875490 0.658058 0.613660 0.112510
C88   C     C_R   0.832488 0.298727 0.527258 0.127013
C89   C     C_R   0.383104 0.261691 0.706330 -0.181140
C90   C     C_R   0.382886 0.749409 0.717960 -0.190512
C91   C     C_R   0.884571 0.757622 0.710109 -0.179350
C92   C     C_R   0.835531 0.192864 0.612003 -0.211491
C93   C     C_R   0.409158 0.225239 0.677698 -0.148384
C94   C     C_R   0.410931 0.782515 0.689318 -0.150150
C95   C     C_R   0.912327 0.719041 0.685228 -0.152915
C96   C     C_R   0.852430 0.224207 0.566617 -0.145917
C97   C     C_R   0.318958 0.129828 0.584327 -0.211342
C98   C     C_R   0.318680 0.875969 0.583013 -0.223464
C99   C     C_R   0.820342 0.625605 0.588472 -0.217755
C100  C     C_R   0.792213 0.340630 0.528430 -0.227089
C101  C     C_R   0.291332 0.167665 0.610358 0.146948
C102  C     C_R   0.284217 0.836081 0.595892 0.160119
C103  C     C_R   0.791500 0.665063 0.611698 0.151541
C104  C     C_R   0.772763 0.308593 0.570265 0.128176
C105  C     C_R   0.819245 0.735935 0.662492 0.103481
C106  C     C_R   0.796837 0.235166 0.616337 0.079047
C107  C     C_R   0.318854 0.238522 0.661229 0.103996
C108  C     C_R   0.314846 0.770120 0.661310 0.088197
C109  C     C_R   0.777745 0.786662 0.653504 0.060553
C110  C     C_R   0.777458 0.204530 0.659239 0.099211
C111  C     C_R   0.277559 0.288406 0.653244 0.056105
C112  C     C_R   0.272886 0.722964 0.656250 0.079516
C113  C     C_R   0.693253 0.684434 0.576597 0.180854
C114  C     C_R   0.700756 0.311839 0.592725 0.177984
C115  C     C_R   0.194257 0.185005 0.578252 0.178787
C116  C     C_R   0.170239 0.794890 0.497759 0.102358
C117  C     C_R   0.732023 0.637667 0.576803 -0.321445
C118  C     C_R   0.730041 0.349060 0.567629 -0.256091
C119  C     C_R   0.232809 0.139102 0.577316 -0.302011
C120  C     C_R   0.213824 0.852359 0.524552 -0.300663
H65   H     H_    0.911691 0.807902 0.758640 0.150544
H66   H     H_    0.850175 0.134403 0.638299 0.125956
H67   H     H_    0.410180 0.311944 0.754948 0.145667
H68   H     H_    0.411050 0.702099 0.773260 0.127840
H69   H     H_    0.215587 0.081667 0.547233 0.137205
H70   H     H_    0.190437 0.900992 0.470990 0.136441
H71   H     H_    0.714551 0.580207 0.546970 0.133734
H72   H     H_    0.716576 0.407285 0.539693 0.144711
H73   H     H_    0.455059 0.249050 0.705668 0.125714
H74   H     H_    0.458315 0.758700 0.721855 0.115825
H75   H     H_    0.959550 0.741179 0.715846 0.128477
H76   H     H_    0.881860 0.190091 0.563654 0.126825
H77   H     H_    0.294300 0.078177 0.538138 0.108379
H78   H     H_    0.293936 0.926117 0.532563 0.105455
H79   H     H_    0.795112 0.574303 0.541650 0.109282
H80   H     H_    0.776941 0.398514 0.498733 0.107617
N33   N     N_R   0.172447 0.867310 0.989178 0.224302
O1    O     O_R   0.150887 0.936409 0.953020 -0.348290
O2    O     O_R   0.142788 0.828813 0.005517 -0.448899
N34   N     N_R   0.248886 0.081193 0.962564 0.229335
O3    O     O_R   0.284008 0.023900 0.978345 -0.428699
O4    O     O_R   0.187116 0.069375 0.918345 -0.381361
N35   N     N_R   0.701183 0.301799 0.059752 0.230508
O5    O     O_R   0.638077 0.322083 0.005104 -0.402144
O6    O     O_R   0.744784 0.281457 0.159604 -0.428979
N36   N     N_R   0.751399 0.740579 0.140442 0.243945
O7    O     O_R   0.734243 0.696837 0.173527 -0.396329
O8    O     O_R   0.775297 0.807959 0.181056 -0.411880
N37   N     N_2   0.244146 0.581754 0.032333 -0.098911
H81   H     H_    0.233468 0.551519 0.065603 0.213513
C121  C     C_3   0.310752 0.557989 0.079086 -0.832872
H82   H     H_    0.340208 0.523381 0.152495 0.268870
H83   H     H_    0.345026 0.604834 0.103391 0.273695
H84   H     H_    0.302098 0.520240 0.023765 0.198673
N38   N     N_2   0.160758 0.334345 0.971321 -0.087398
H85   H     H_    0.110471 0.353387 0.903286 0.170870
C122  C     C_3   0.207556 0.397140 0.036823 -0.809794
H86   H     H_    0.204945 0.435942 0.987680 0.214920
H87   H     H_    0.261962 0.378682 0.109701 0.280593
H88   H     H_    0.189497 0.428928 0.062988 0.258184
N39   N     N_2   0.799497 0.092360 0.019448 -0.106128
H89   H     H_    0.778865 0.039353 0.002305 0.177903
C123  C     C_3   0.858197 0.093269 0.038039 -0.802191
H90   H     H_    0.905706 0.070622 0.119447 0.290323
H91   H     H_    0.869540 0.149638 0.029372 0.280512
H92   H     H_    0.847844 0.054314 0.981688 0.192052
N40   N     N_2   0.823854 0.868811 0.989000 -0.106733
H93   H     H_    0.858410 0.912968 0.034840 0.206968
C124  C     C_3   0.829713 0.830625 0.928429 -0.850047
H94   H     H_    0.866412 0.862336 0.935920 0.237153
H95   H     H_    0.778356 0.830450 0.841797 0.228482
H96   H     H_    0.850920 0.772509 0.959180 0.282686
N41   N     N_2   0.717487 0.122988 0.015623 -0.128705
H97   H     H_    0.706344 0.156007 0.045969 0.213193
C125  C     C_3   0.658273 0.074579 0.930607 -0.916590
H98   H     H_    0.643921 0.041164 0.961813 0.265045
H99   H     H_    0.669811 0.033736 0.901832 0.245639
H100  H     H_    0.611915 0.108923 0.861784 0.255664
N42   N     N_2   0.780848 0.896695 0.055279 -0.130346
H101  H     H_    0.734921 0.926857 0.997755 0.158645
C126  C     C_3   0.837812 0.938660 0.154167 -0.769493
H102  H     H_    0.817319 0.992411 0.152707 0.260520
H103  H     H_    0.880405 0.952314 0.165722 0.249619
H104  H     H_    0.859860 0.907489 0.225457 0.271990
N43   N     N_2   0.143625 0.651099 0.950369 -0.130709
H105  H     H_    0.119263 0.697856 0.943247 0.211700
C127  C     C_3   0.094964 0.593126 0.871112 -0.916697
H106  H     H_    0.069748 0.566948 0.889028 0.262202
H107  H     H_    0.120805 0.547559 0.870403 0.262873
H108  H     H_    0.053240 0.619235 0.790059 0.252307
N44   N     N_2   0.115952 0.218980 0.875826 -0.120456
H109  H     H_    0.077362 0.244150 0.801948 0.151984
C128  C     C_3   0.082335 0.192835 0.902051 -0.763851
H110  H     H_    0.029552 0.169858 0.828770 0.225309
H111  H     H_    0.075177 0.240053 0.931543 0.251012
H112  H     H_    0.111554 0.145872 0.961455 0.272862
N45   N     N_R   0.312170 0.670474 0.206319 0.246156
O9    O     O_R   0.372589 0.651402 0.249922 -0.447879
O10   O     O_R   0.300197 0.655558 0.258862 -0.383998
N46   N     N_R   0.255273 0.244995 0.150744 0.246080
O11   O     O_R   0.208041 0.242364 0.145802 -0.380753
O12   O     O_R   0.317867 0.267775 0.239495 -0.427601
N47   N     N_R   0.891933 0.182254 0.190748 0.231225
O13   O     O_R   0.933301 0.215055 0.192921 -0.451456
O14   O     O_R   0.917777 0.128943 0.260902 -0.423755
N48   N     N_R   0.909894 0.768629 0.148035 0.227009
O15   O     O_R   0.951967 0.826412 0.194125 -0.466319
O16   O     O_R   0.932161 0.703769 0.150206 -0.452289
N49   N     N_2   0.800850 0.862855 0.687529 -0.126290
H113  H     H_    0.849071 0.869000 0.766954 0.169241
C129  C     C_3   0.790159 0.911561 0.614020 -0.900593
H114  H     H_    0.801547 0.971161 0.641609 0.241548
H115  H     H_    0.734907 0.908463 0.532009 0.266170
H116  H     H_    0.825386 0.895139 0.610702 0.261059
N50   N     N_2   0.817616 0.145124 0.738340 -0.118061
H117  H     H_    0.862177 0.128122 0.763630 0.180446
C130  C     C_3   0.831712 0.154652 0.828971 -0.966425
H118  H     H_    0.863740 0.106213 0.885349 0.258438
H119  H     H_    0.782154 0.155724 0.802158 0.254870
H120  H     H_    0.861262 0.207964 0.871812 0.267952
N51   N     N_2   0.299478 0.365174 0.684642 -0.127668
H121  H     H_    0.347897 0.372748 0.763494 0.163115
C131  C     C_3   0.286692 0.413009 0.608510 -0.895503
H122  H     H_    0.296923 0.473027 0.634108 0.237508
H123  H     H_    0.231258 0.408251 0.527200 0.269175
H124  H     H_    0.321594 0.397162 0.604376 0.260430
N52   N     N_2   0.302791 0.664865 0.734075 -0.117403
H125  H     H_    0.345709 0.636302 0.764427 0.165219
C132  C     C_3   0.308054 0.683849 0.814031 -0.935969
H126  H     H_    0.326881 0.633686 0.866139 0.241791
H127  H     H_    0.255862 0.700331 0.774854 0.258023
H128  H     H_    0.345602 0.731201 0.864548 0.262269
N53   N     N_2   0.636408 0.651467 0.548970 -0.112258
H129  H     H_    0.617050 0.602032 0.505496 0.183891
C133  C     C_3   0.647126 0.645663 0.636768 -0.959683
H130  H     H_    0.600190 0.619972 0.607801 0.261339
H131  H     H_    0.654560 0.702777 0.668056 0.254312
H132  H     H_    0.693528 0.609483 0.702152 0.260284
N54   N     N_2   0.656130 0.350082 0.590399 -0.108538
H133  H     H_    0.655230 0.325720 0.639108 0.160560
C134  C     C_3   0.654959 0.432191 0.590009 -0.929681
H134  H     H_    0.621146 0.451865 0.595006 0.256061
H135  H     H_    0.632219 0.454865 0.513931 0.249430
H136  H     H_    0.708685 0.454709 0.660056 0.255355
N55   N     N_2   0.137727 0.151237 0.550903 -0.108759
H137  H     H_    0.119213 0.101281 0.508658 0.199003
C135  C     C_3   0.147965 0.146259 0.638240 -0.920268
H138  H     H_    0.101192 0.120093 0.609350 0.267135
H139  H     H_    0.154417 0.203688 0.667935 0.245438
H140  H     H_    0.194790 0.110977 0.704744 0.270461
N56   N     N_2   0.101179 0.792865 0.390200 -0.101259
H141  H     H_    0.079206 0.846091 0.359599 0.215146
C136  C     C_3   0.097865 0.750520 0.321050 -0.690633
H142  H     H_    0.045644 0.756465 0.236102 0.298717
H143  H     H_    0.108046 0.689405 0.343203 0.236993
H144  H     H_    0.136937 0.772388 0.327432 0.213043

loop_
_geom_bond_atom_site_label_1
_geom_bond_atom_site_label_2
_geom_bond_distance
_ccdc_geom_bond_type
C121  H83   1.092052 S    
C136  H142  1.104998 S    
C127  H106  1.109482 S    
N53   H129  1.031803 S    
C132  H126  1.110351 S    
C91   C105  1.405118 A    
C78   H54   1.098087 S    
C38   C45   1.388080 A    
C39   H31   1.076662 S    
C89   C107  1.403574 A    
C101  C107  1.407185 A    
N36   O8    1.299786 A    
N40   H93   1.028822 S    
C124  H96   1.106478 S    
N34   O3    1.301227 A    
C62   C78   1.568319 S    
C55   H41   1.113846 S    
C100  C104  1.388396 A    
C30   H22   1.078028 S    
C4    N4    1.315993 A    
C92   C106  1.403269 A    
H47   C59   1.114020 S    
N1    N14   1.412675 A    
N22   N29   1.287389 A    
C56   N36   1.471796 S    
N3    N16   1.412675 A    
C87   C99   1.400060 A    
N4    N15   1.409536 A    
N18   N25   1.431815 A    
C83   C111  1.428927 A    
C113  C117  1.394831 A    
N48   O16   1.301157 A    
N24   N31   1.287389 A    
C11   H11   1.080074 S    
C72   C76   1.542144 S    
C37   N29   1.327629 A    
C11   N11   1.323813 A    
N29   Ni6   1.912504 S    
N45   O9    1.298435 A    
C101  C119  1.386948 A    
C105  C109  1.405650 A    
N31   Ni8   1.912504 S    
C23   C87   1.466843 S    
C60   H60   1.101507 S    
C95   H75   1.080278 S    
C59   H59   1.104885 S    
N56   H141  1.031155 S    
C8    H8    1.079598 S    
C58   C76   1.529006 S    
C50   C66   1.551961 S    
C5    N5    1.343713 A    
C49   C55   1.523037 S    
C134  H136  1.111304 S    
C50   C56   1.534521 S    
C63   N39   1.481779 S    
H51   C75   1.114129 S    
C53   H43   1.116699 S    
C136  H144  1.112553 S    
C40   N32   1.311118 A    
C13   N13   1.321237 A    
C130  H118  1.109341 S    
C15   N15   1.305891 A    
C56   C72   1.585770 S    
C132  H128  1.111155 S    
C85   C93   1.402576 A    
C16   N16   1.309435 A    
C61   N37   1.477544 S    
C46   C70   1.469445 S    
C55   C71   1.585271 S    
C36   H28   1.081644 S    
N38   C122  1.442640 S    
C64   N42   1.480872 S    
C113  N53   1.423654 S    
C25   H17   1.075579 S    
C35   N27   1.334360 A    
C27   H19   1.079109 S    
C31   C47   1.383732 A    
C28   H20   1.073384 S    
C85   C97   1.398523 A    
C64   C66   1.609466 S    
C126  H103  1.105694 S    
C13   C18   1.387220 A    
C51   C67   1.561329 S    
C52   C68   1.555467 S    
N19   N28   1.428635 A    
N23   Ni4   1.947017 S    
C88   C96   1.399597 A    
C3    N3    1.319194 A    
C90   C108  1.410202 A    
C102  C108  1.415951 A    
C38   N30   1.326123 A    
N7    N12   1.446438 A    
N30   Ni5   1.911245 S    
N47   O14   1.302474 A    
C69   C73   1.562520 S    
C7    C23   1.397677 A    
N50   C130  1.444819 S    
C50   H34   1.114560 S    
N55   H137  1.032074 S    
C29   N21   1.294058 A    
C135  H138  1.110393 S    
C74   H62   1.107634 S    
C31   N23   1.315677 A    
C135  H140  1.111572 S    
N44   C128  1.459729 S    
C64   N40   1.479439 S    
C82   C114  1.414032 A    
C42   C81   1.502112 S    
C127  H107  1.108212 S    
C122  H86   1.106279 S    
C123  H92   1.108337 S    
N49   C129  1.450543 S    
N1    Ni1   1.857210 S    
N6    Ni3   1.840620 S    
C80   N48   1.473642 S    
C52   H40   1.109371 S    
N33   O1    1.301258 A    
N51   C131  1.450844 S    
C77   N45   1.477562 S    
C2    C18   1.368527 A    
C27   N19   1.336096 A    
C102  C120  1.385328 A    
C33   C42   1.400694 A    
C99   H79   1.081950 S    
N38   H85   1.032612 S    
C69   C77   1.569109 S    
N46   O12   1.300143 A    
C118  H72   1.081890 S    
N41   H97   1.029767 S    
C128  H111  1.110057 S    
N17   Ni1   1.856884 S    
C39   N31   1.314069 A    
C132  H127  1.111041 S    
C91   C95   1.383389 A    
C44   C83   1.497848 S    
C31   H23   1.075578 S    
C91   H65   1.080890 S    
C55   N35   1.477821 S    
C89   H67   1.080914 S    
C131  H123  1.111078 S    
C93   H73   1.079581 S    
C86   C98   1.390552 A    
C25   C41   1.386192 A    
C59   C73   1.526028 S    
C64   C80   1.554995 S    
C59   C67   1.546526 S    
C8    C24   1.394281 A    
C49   H33   1.113523 S    
C51   H35   1.115848 S    
C84   C116  1.412637 A    
C130  H120  1.111395 S    
C25   N17   1.324865 A    
C32   C48   1.371152 A    
N2    N13   1.409536 A    
N43   H105  1.028133 S    
N39   C123  1.455566 S    
C28   N20   1.324014 A    
C110  N50   1.433498 S    
N56   C136  1.451613 S    
C103  C117  1.387867 A    
N54   C134  1.448709 S    
N10   Ni6   1.861867 S    
C28   C44   1.396030 A    
N18   Ni1   1.872540 S    
C37   H29   1.080389 S    
C129  H116  1.109369 S    
C22   C86   1.469211 S    
C133  H131  1.108118 S    
C34   C41   1.395618 A    
C98   H78   1.081178 S    
C122  H88   1.109850 S    
C60   C74   1.515682 S    
C123  H90   1.108817 S    
C10   H10   1.075490 S    
C16   C19   1.381006 A    
N24   Ni4   1.930576 S    
C52   C54   1.540325 S    
C6    N6    1.336991 A    
C32   N24   1.321624 A    
C78   N46   1.478276 S    
C90   C94   1.396899 A    
C30   C46   1.372075 A    
C40   H32   1.064937 S    
C114  N54   1.432669 S    
C124  H95   1.108612 S    
N34   O4    1.301329 A    
C13   H13   1.078984 S    
C17   C66   1.472455 S    
C14   N14   1.330202 A    
C72   C80   1.567342 S    
C48   C72   1.468442 S    
C16   H16   1.079613 S    
C133  H132  1.111618 S    
N42   H101  1.026955 S    
C26   C42   1.398517 A    
C97   C101  1.390929 A    
C36   N28   1.331348 A    
C21   C85   1.460633 S    
C33   H25   1.074373 S    
C80   H56   1.097768 S    
C9    N9    1.335234 A    
C26   H18   1.073217 S    
C35   H27   1.073431 S    
C24   C88   1.451492 S    
C63   C65   1.612859 S    
C40   C47   1.375948 A    
C57   C75   1.535312 S    
C100  H80   1.083573 S    
C130  H119  1.106490 S    
C84   C112  1.419808 A    
C14   C17   1.398402 A    
H49   C73   1.114634 S    
C7    H7    1.072266 S    
C51   C53   1.510351 S    
C1    H1    1.072334 S    
C3    H3    1.077545 S    
N42   C126  1.461486 S    
C38   H30   1.076089 S    
C19   C68   1.473864 S    
C90   H68   1.078516 S    
C27   C43   1.394290 A    
C70   C74   1.545109 S    
C116  N56   1.420096 S    
C61   N43   1.477730 S    
N12   Ni8   1.861867 S    
C125  H98   1.110050 S    
C29   H21   1.067669 S    
N8    Ni4   1.840620 S    
C134  H135  1.109859 S    
C71   C79   1.585695 S    
C92   C96   1.381406 A    
C52   H36   1.113013 S    
C33   N25   1.333886 A    
N35   O6    1.301541 A    
C121  H84   1.103431 S    
C129  H114  1.110556 S    
C136  H143  1.110847 S    
C9    H9    1.075596 S    
N21   N30   1.284575 A    
N53   C133  1.445595 S    
C5    C21   1.398519 A    
N45   O10   1.301744 A    
N17   N26   1.428635 A    
C62   N44   1.482337 S    
N47   O13   1.302072 A    
C1    N1    1.300612 A    
C9    C22   1.382952 A    
N44   H109  1.020948 S    
C3    C19   1.393553 A    
N13   Ni6   1.910028 S    
N28   Ni8   1.861726 S    
N5    N10   1.446438 A    
N36   O7    1.301284 A    
C34   H26   1.078375 S    
N22   Ni3   1.930576 S    
N52   H125  1.027713 S    
C126  H102  1.110126 S    
C120  H70   1.085853 S    
N32   Ni7   1.911245 S    
C133  H130  1.110357 S    
C70   C78   1.583763 S    
C12   H12   1.073618 S    
N3    Ni2   1.857210 S    
H52   C76   1.113843 S    
C111  N51   1.423994 S    
C86   C94   1.404859 A    
N48   O15   1.299678 A    
C58   C66   1.571351 S    
C51   H39   1.111747 S    
C11   C24   1.383437 A    
C49   H37   1.109522 S    
C135  H139  1.107494 S    
N19   Ni2   1.856884 S    
C5    H5    1.072886 S    
C39   C48   1.380873 A    
C115  N55   1.424075 S    
C34   N26   1.340700 A    
H46   C58   1.111899 S    
C131  H122  1.110338 S    
C125  H99   1.100350 S    
C123  H91   1.095254 S    
N49   H113  1.030792 S    
N37   H81   1.031487 S    
N7    Ni4   1.856112 S    
N51   H121  1.030752 S    
C115  C119  1.394039 A    
N50   H117  1.028498 S    
C12   N12   1.328828 A    
H48   C60   1.114942 S    
C54   N34   1.469925 S    
N14   Ni5   1.910105 S    
C61   C77   1.578961 S    
C57   C65   1.553930 S    
C62   N38   1.474645 S    
C119  H69   1.084842 S    
C107  C111  1.401774 A    
N54   H133  1.032228 S    
C60   C68   1.572221 S    
C30   N22   1.310906 A    
C128  H110  1.112287 S    
C6    H6    1.071455 S    
C4    H4    1.071595 S    
H45   C57   1.114515 S    
C83   C115  1.429604 A    
C79   N47   1.476213 S    
C81   C113  1.428974 A    
C4    C20   1.374286 A    
C87   C95   1.402924 A    
C14   H14   1.079928 S    
C126  H104  1.106338 S    
C54   H44   1.115959 S    
N15   Ni8   1.910028 S    
N25   Ni5   1.861934 S    
N20   N27   1.431815 A    
C125  H100  1.107969 S    
N27   Ni7   1.861934 S    
C53   N33   1.478195 S    
C26   N18   1.326906 A    
C75   H63   1.105618 S    
C108  C112  1.413656 A    
C81   C109  1.430017 A    
C76   H64   1.105861 S    
N39   H89   1.022339 S    
C58   H58   1.100396 S    
C20   C67   1.457294 S    
C7    N7    1.343066 A    
C15   C20   1.386617 A    
H50   C74   1.114140 S    
N55   C135  1.445228 S    
C49   C65   1.558129 S    
C2    H2    1.067487 S    
N20   Ni2   1.872540 S    
C12   C23   1.386353 A    
C10   N10   1.323082 A    
C114  C118  1.405585 A    
C18   C65   1.472173 S    
C88   C100  1.399013 A    
C92   H66   1.080949 S    
C129  H115  1.111055 S    
N8    N11   1.443229 A    
N21   Ni3   1.947017 S    
C127  H108  1.107956 S    
C56   H42   1.114542 S    
C94   H74   1.081419 S    
C47   C71   1.477699 S    
C122  H87   1.103173 S    
C15   H15   1.078005 S    
C45   C69   1.458350 S    
C106  C110  1.394726 A    
C79   H55   1.107371 S    
C54   C70   1.573570 S    
N33   O2    1.299506 A    
C61   C67   1.611487 S    
C71   C75   1.551363 S    
C62   C68   1.609574 S    
N37   C121  1.454313 S    
C117  H71   1.084873 S    
C57   H57   1.096653 S    
C124  H94   1.110983 S    
C32   H24   1.077507 S    
N52   C132  1.444663 S    
N5    Ni3   1.856112 S    
C99   C103  1.393231 A    
C104  C106  1.413419 A    
N46   O11   1.301173 A    
C6    C22   1.398613 A    
C36   C43   1.388253 A    
N41   C125  1.454432 S    
C128  H112  1.106571 S    
N23   N32   1.284575 A    
N9    Ni5   1.861696 S    
C37   C46   1.383105 A    
N26   Ni6   1.861726 S    
C121  H82   1.111958 S    
C2    N2    1.305537 A    
C10   C21   1.380485 A    
C116  C120  1.383454 A    
N11   Ni7   1.861696 S    
C103  C105  1.407374 A    
N40   C124  1.450817 S    
N6    N9    1.443229 A    
C77   H53   1.101749 S    
C35   C44   1.398016 A    
C96   H76   1.081929 S    
C53   C69   1.589094 S    
C131  H124  1.109299 S    
N35   O5    1.301806 A    
C97   H77   1.082480 S    
C73   H61   1.106102 S    
N4    Ni2   1.872977 S    
C43   C84   1.474670 S    
C89   C93   1.380130 A    
C41   C82   1.482015 S    
C82   C110  1.410441 A    
C29   C45   1.355863 A    
N43   C127  1.453304 S    
C112  N52   1.425379 S    
C109  N49   1.423561 S    
C104  C118  1.400147 A    
C63   C79   1.574025 S    
N16   Ni7   1.910105 S    
C8    N8    1.338429 A    
C98   C102  1.382482 A    
N2    Ni1   1.872977 S    
C134  H134  1.110753 S    
C1    C17   1.373272 A    
C50   H38   1.110619 S    
C63   N41   1.485387 S    
