data_mof_unit_13590.cif
_audit_creation_date              2012-12-11T16:29:33-0500
_audit_creation_method            fapswitch 2.2
_symmetry_space_group_name_H-M    P1
_symmetry_Int_Tables_number       1
_space_group_crystal_system       triclinic
_cell_length_a                    6.935927
_cell_length_b                    17.33959
_cell_length_c                    18.751281
_cell_angle_alpha                 106.239384
_cell_angle_beta                  87.974181
_cell_angle_gamma                 89.261167
_cell_volume                      2163.20440057

loop_
_atom_site_label
_atom_site_type_symbol
_atom_type_description
_atom_site_fract_x
_atom_site_fract_y
_atom_site_fract_z
_atom_type_partial_charge
O1    O     O_R   0.494360 0.415680 0.413760 -0.529080
O2    O     O_R   0.818810 0.432910 0.557230 -0.507814
O3    O     O_R   0.994290 0.584320 0.586240 -0.561118
C1    C     C_R   0.649108 0.415023 0.579866 0.743314
O4    O     O_R   0.823740 0.406440 0.412520 -0.482143
O5    O     O_R   0.999250 0.557660 0.440500 -0.500917
C2    C     C_R   0.659049 0.380143 0.386829 0.859517
O6    O     O_R   0.489400 0.442340 0.559500 -0.536578
O7    O     O_3   0.662500 0.549650 0.509350 -0.367483
V1    V     V_3+5 0.935340 0.490790 0.498270 1.564689
O8    O     O_R   0.329270 0.567090 0.442770 -0.519443
C3    C     C_R   0.161681 0.584314 0.419602 0.743435
O9    O     O_R   0.324340 0.593560 0.587480 -0.543732
C4    C     C_R   0.149407 0.616673 0.615467 0.659622
V2    V     V_3+5 0.435970 0.509210 0.501730 1.493247
O10   O     O_3   0.158940 0.450350 0.490650 -0.338505
C5    C     C_R   0.137134 0.587484 0.766122 0.111010
C6    C     C_R   0.220144 0.571402 0.827387 -0.217521
C7    C     C_R   0.292902 0.632671 0.882920 -0.135865
C8    C     C_R   0.271809 0.712268 0.881926 0.333686
C9    C     C_R   0.187740 0.731567 0.820261 -0.030475
C10   C     C_R   0.150412 0.666343 0.756401 0.029809
C11   C     C_R   0.143206 0.811821 0.818619 -0.119401
C12   C     C_R   0.113177 0.826801 0.749409 0.015102
C13   C     C_R   0.082026 0.762698 0.685614 0.000674
C14   C     C_R   0.119595 0.682197 0.686935 -0.151920
C15   C     C_R   0.123299 0.905242 0.741725 -0.217411
C16   C     C_R   0.114294 0.919652 0.671850 0.141464
C17   C     C_R   0.056515 0.856743 0.610434 0.157245
C18   C     C_R   0.007163 0.782403 0.623114 0.033214
H1    H     H_    0.220504 0.511431 0.834321 0.145415
H2    H     H_    0.359431 0.618154 0.929125 0.183412
H3    H     H_    0.153729 0.955255 0.789093 0.112968
C19   C     C_1   0.110065 0.864568 0.133276 -0.073836
C20   C     C_1   0.117818 0.822155 0.176978 0.072661
C21   C     C_1   0.128020 0.772084 0.228978 0.054234
C22   C     C_1   0.136801 0.729827 0.272790 0.064674
C23   C     C_1   0.146943 0.679509 0.324559 0.081176
C24   C     C_1   0.154657 0.636711 0.367910 -0.128651
C25   C     C_1   0.639612 0.362298 0.631199 -0.148146
C26   C     C_1   0.635889 0.319538 0.674612 0.044968
C27   C     C_1   0.633613 0.269413 0.726562 0.027472
C28   C     C_1   0.632089 0.227328 0.770574 0.011217
C29   C     C_1   0.629592 0.177473 0.822758 0.016508
C30   C     C_1   0.625534 0.135178 0.866581 -0.160912
C31   C     C_R   0.644761 0.412500 0.240280 0.271720
C32   C     C_R   0.585862 0.430355 0.176019 0.384447
C33   C     C_R   0.514936 0.371055 0.118622 -0.209379
C34   C     C_R   0.509094 0.291951 0.121204 0.278014
C35   C     C_R   0.580011 0.268903 0.183467 -0.049661
C36   C     C_R   0.630327 0.332068 0.247499 -0.097267
C37   C     C_R   0.600015 0.186625 0.184273 -0.082293
C38   C     C_R   0.632461 0.168209 0.252684 -0.040761
C39   C     C_R   0.682245 0.231189 0.316912 -0.105413
C40   C     C_R   0.665189 0.313491 0.315742 -0.067351
C41   C     C_R   0.613357 0.088399 0.260407 0.277285
C42   C     C_R   0.653970 0.071825 0.326572 -0.220049
C43   C     C_R   0.724408 0.129853 0.385196 0.395375
C44   C     C_R   0.747538 0.208252 0.380255 0.268892
H4    H     H_    0.461031 0.387205 0.071015 0.207792
H5    H     H_    0.635378 0.011692 0.331964 0.201726
O11   O     O_R   0.775690 0.057750 0.940570 -0.542207
O12   O     O_R   0.441200 0.093570 0.087490 -0.488036
O13   O     O_R   0.265840 0.942320 0.059480 -0.473838
C45   C     C_R   0.605849 0.119896 0.113244 0.854550
O14   O     O_R   0.446270 0.067110 0.942790 -0.511782
O15   O     O_R   0.270950 0.915660 0.913750 -0.523248
C46   C     C_R   0.615919 0.083563 0.918863 0.725699
O16   O     O_R   0.770580 0.084400 0.086300 -0.537222
O17   O     O_3   0.602640 0.950400 0.990690 -0.323138
V3    V     V_3+5 0.329740 0.009200 0.001730 1.652196
O18   O     O_R   0.940900 0.906360 0.912450 -0.543314
C47   C     C_R   0.115935 0.880033 0.887722 0.731683
O19   O     O_R   0.935830 0.932820 0.057160 -0.524285
C48   C     C_R   0.103158 0.916400 0.081049 0.793650
V4    V     V_3+5 0.829130 0.990680 0.998180 1.575022
O20   O     O_3   0.106100 0.049590 0.009310 -0.356747
C49   C     C_3   0.042056 0.867609 0.532908 -0.377309
C50   C     C_3   0.241014 0.868329 0.495517 -0.716766
H6    H     H_    0.327060 0.919105 0.526832 0.245664
H7    H     H_    0.320607 0.811013 0.490860 0.212372
H8    H     H_    0.224101 0.874412 0.438644 0.236191
H9    H     H_    0.965174 0.817539 0.495555 0.189064
H10   H     H_    0.956854 0.922784 0.534746 0.204932
Cl1   Cl    Cl    0.756546 0.492616 0.304099 -0.595019
Cl2   Cl    Cl    0.592965 0.528461 0.165746 -0.542956
Cl3   Cl    Cl    0.376657 0.232157 0.048934 -0.659890
Cl4   Cl    Cl    0.520558 0.004799 0.194830 -0.663006
Cl5   Cl    Cl    0.896455 0.267106 0.447678 -0.587959
C51   C     C_3   0.995828 0.526082 0.725547 -0.347204
C52   C     C_3   0.789972 0.561956 0.738022 -0.676145
H11   H     H_    0.758269 0.590893 0.798170 0.237144
H12   H     H_    0.769896 0.607357 0.707258 0.215498
H13   H     H_    0.683427 0.514394 0.719321 0.180297
H14   H     H_    0.037851 0.501227 0.666261 0.185544
H15   H     H_    0.995445 0.472681 0.747397 0.173049
Cl6   Cl    Cl    0.385609 0.780070 0.954766 -0.659439
C53   C     C_3   0.155490 0.004054 0.667598 -0.349869
C54   C     C_3   0.366816 0.024670 0.682313 -0.714176
H16   H     H_    0.400413 0.026220 0.740132 0.208494
H17   H     H_    0.464287 0.979729 0.643278 0.228045
H18   H     H_    0.394985 0.084800 0.674652 0.239276
H19   H     H_    0.122057 0.013352 0.613345 0.216012
H20   H     H_    0.061917 0.047640 0.709854 0.180899
C55   C     C_3   0.830911 0.738616 0.586770 -0.322919
C56   C     C_3   0.652207 0.794150 0.596170 -0.764958
H21   H     H_    0.625703 0.827552 0.655668 0.234888
H22   H     H_    0.667463 0.837719 0.563068 0.223028
H23   H     H_    0.523768 0.757570 0.577054 0.219855
H24   H     H_    0.863011 0.707599 0.527171 0.175077
H25   H     H_    0.785226 0.693523 0.615146 0.206304
Cl7   Cl    Cl    0.787323 0.100732 0.464531 -0.585854

loop_
_geom_bond_atom_site_label_1
_geom_bond_atom_site_label_2
_ccdc_geom_bond_type
O14   C46   A    
C55   H24   S    
O12   C45   A    
C26   C27   S    
C34   Cl3   S    
C7    C8    A    
C12   C15   A    
C2    C40   S    
C1    O6    A    
C42   C43   A    
C51   H14   S    
C38   C39   A    
C15   H3    S    
C17   C18   A    
O19   V4    S    
C43   Cl7   S    
C16   C17   A    
C6    C7    A    
O5    C3    A    
C23   C24   T    
C45   O16   A    
C41   Cl4   S    
C56   H21   S    
C53   H19   S    
C41   C42   A    
O16   V4    S    
C19   C20   T    
C44   Cl5   S    
O13   V3    S    
C39   C40   A    
O8    V2    S    
C49   H9    S    
C8    Cl6   S    
C1    C25   S    
C35   C37   A    
C11   C12   A    
O17   V3    S    
O15   C47   A    
O7    V1    S    
C36   C40   A    
O18   V4    S    
C19   C48   S    
C31   Cl1   S    
C55   H25   S    
O9    C4    A    
O11   V4    S    
C11   C47   S    
C7    H2    S    
C33   H4    S    
C39   C44   A    
O19   C48   A    
C17   C49   S    
C32   Cl2   S    
C12   C13   A    
C52   H11   S    
C50   H7    S    
C49   C50   S    
C35   C36   A    
C13   C14   A    
C31   C36   A    
C4    C14   S    
C20   C21   S    
O2    C1    A    
C28   C29   S    
O14   V3    S    
C22   C23   S    
C52   H12   S    
C32   C33   A    
C30   C46   S    
C5    C6    A    
V4    O20   S    
C42   H5    S    
O3    C4    A    
O1    V2    S    
C33   C34   A    
C54   H17   S    
O12   V3    S    
C53   C54   S    
O6    V2    S    
C9    C11   A    
C18   C55   S    
O17   V4    S    
C27   C28   T    
O2    V1    S    
V3    O20   S    
C37   C38   A    
O4    C2    A    
C38   C41   A    
C16   C53   S    
C13   C18   A    
C31   C32   A    
C25   C26   T    
O1    C2    A    
C29   C30   T    
O18   C47   A    
O5    V1    S    
C50   H8    S    
O8    C3    A    
C51   H15   S    
C55   C56   S    
C5    C10   A    
C54   H16   S    
O11   C46   A    
C3    C24   S    
O9    V2    S    
C43   C44   A    
O4    V1    S    
O3    V1    S    
V1    O10   S    
C52   H13   S    
C5    C51   S    
C51   C52   S    
C56   H22   S    
C53   H20   S    
O13   C48   A    
O15   V3    S    
O7    V2    S    
C50   H6    S    
C49   H10   S    
C54   H18   S    
C8    C9    A    
C21   C22   T    
C34   C35   A    
C10   C14   A    
C15   C16   A    
C6    H1    S    
C9    C10   A    
C37   C45   S    
V2    O10   S    
C56   H23   S    
