data_mof_unit_37093.cif
_audit_creation_date              2012-12-11T16:29:24-0500
_audit_creation_method            fapswitch 2.2
_symmetry_space_group_name_H-M    P1
_symmetry_Int_Tables_number       1
_space_group_crystal_system       triclinic
_cell_length_a                    6.995782
_cell_length_b                    17.36443
_cell_length_c                    18.699418
_cell_angle_alpha                 105.973445
_cell_angle_beta                  89.507652
_cell_angle_gamma                 90.217767
_cell_volume                      2183.77391372

loop_
_atom_site_label
_atom_site_type_symbol
_atom_type_description
_atom_site_fract_x
_atom_site_fract_y
_atom_site_fract_z
_atom_type_partial_charge
O1    O     O_R   0.494360 0.415680 0.413760 -0.531718
O2    O     O_R   0.818810 0.432910 0.557230 -0.549437
O3    O     O_R   0.994290 0.584320 0.586240 -0.558210
C1    C     C_R   0.649968 0.416855 0.581241 0.823231
O4    O     O_R   0.823740 0.406440 0.412520 -0.515295
O5    O     O_R   0.999250 0.557660 0.440500 -0.512151
C2    C     C_R   0.655791 0.385325 0.383559 0.927213
O6    O     O_R   0.489400 0.442340 0.559500 -0.509280
O7    O     O_3   0.662500 0.549650 0.509350 -0.373071
V1    V     V_3+5 0.935340 0.490790 0.498270 1.454725
O8    O     O_R   0.329270 0.567090 0.442770 -0.540361
C3    C     C_R   0.161446 0.584788 0.420256 0.712081
O9    O     O_R   0.324340 0.593560 0.587480 -0.527621
C4    C     C_R   0.156168 0.611576 0.618242 0.723719
V2    V     V_3+5 0.435970 0.509210 0.501730 1.466751
O10   O     O_3   0.158940 0.450350 0.490650 -0.370314
H1    H     H_    0.179101 0.851255 0.540284 0.168006
C5    C     C_R   0.178554 0.590006 0.771727 0.262390
C6    C     C_R   0.168275 0.579933 0.844015 0.240139
C7    C     C_R   0.127930 0.646019 0.904706 0.239902
C8    C     C_R   0.116132 0.722188 0.894886 0.463490
C9    C     C_R   0.129813 0.735755 0.823482 -0.163585
C10   C     C_R   0.152979 0.667858 0.759918 -0.152128
C11   C     C_R   0.124449 0.815433 0.815195 -0.094002
C12   C     C_R   0.141262 0.827349 0.742423 -0.087248
C13   C     C_R   0.143750 0.758780 0.679038 0.034167
C14   C     C_R   0.148770 0.679930 0.687214 -0.039005
C15   C     C_R   0.156933 0.905479 0.730107 0.245417
C16   C     C_R   0.179559 0.911745 0.656466 0.593353
C17   C     C_R   0.167096 0.845033 0.596218 -0.230044
C18   C     C_R   0.147786 0.769955 0.606884 -0.264225
H2    H     H_    0.143179 0.720503 0.557011 0.133970
C19   C     C_1   0.112162 0.866178 0.134479 -0.165137
C20   C     C_1   0.120549 0.824323 0.178740 -0.008313
C21   C     C_1   0.130796 0.774855 0.231300 -0.008819
C22   C     C_1   0.139260 0.732890 0.275452 0.003344
C23   C     C_1   0.149151 0.682423 0.327198 -0.019188
C24   C     C_1   0.155742 0.638647 0.369836 -0.231320
C25   C     C_1   0.641313 0.364819 0.633204 -0.174294
C26   C     C_1   0.637382 0.321814 0.676502 -0.008991
C27   C     C_1   0.634011 0.271288 0.728126 0.009800
C28   C     C_1   0.631961 0.228893 0.771948 -0.010522
C29   C     C_1   0.630576 0.178683 0.823921 -0.039329
C30   C     C_1   0.626791 0.135771 0.867327 -0.240348
H3    H     H_    0.572809 0.128212 0.445505 0.157539
C31   C     C_R   0.710235 0.409376 0.232796 0.275807
C32   C     C_R   0.751440 0.416545 0.161106 0.538178
C33   C     C_R   0.698396 0.356930 0.099332 -0.354052
C34   C     C_R   0.617029 0.286136 0.106995 0.306916
C35   C     C_R   0.630820 0.267718 0.176511 -0.047518
C36   C     C_R   0.662929 0.332258 0.242202 -0.150791
C37   C     C_R   0.613626 0.187663 0.181740 -0.107630
C38   C     C_R   0.606011 0.173152 0.252614 0.000257
C39   C     C_R   0.618407 0.237819 0.318872 -0.045760
C40   C     C_R   0.646622 0.317719 0.313959 -0.139073
C41   C     C_R   0.583257 0.094011 0.258565 -0.170986
C42   C     C_R   0.571406 0.078463 0.327452 -0.213338
C43   C     C_R   0.582096 0.140859 0.392015 -0.137060
C44   C     C_R   0.605554 0.219486 0.388572 0.570010
H4    H     H_    0.715397 0.366619 0.044822 0.168025
H5    H     H_    0.573051 0.043007 0.210060 0.107602
H6    H     H_    0.553485 0.017566 0.330734 0.149776
O11   O     O_R   0.775690 0.057750 0.940570 -0.541730
O12   O     O_R   0.441200 0.093570 0.087490 -0.541381
O13   O     O_R   0.265840 0.942320 0.059480 -0.525825
C45   C     C_R   0.609099 0.118076 0.113657 0.768367
O14   O     O_R   0.446270 0.067110 0.942790 -0.513013
O15   O     O_R   0.270950 0.915660 0.913750 -0.515983
C46   C     C_R   0.615679 0.083546 0.919116 0.784706
O16   O     O_R   0.770580 0.084400 0.086300 -0.547535
O17   O     O_3   0.602640 0.950400 0.990690 -0.361640
V3    V     V_3+5 0.329740 0.009200 0.001730 1.467376
O18   O     O_R   0.940900 0.906360 0.912450 -0.528418
C47   C     C_R   0.110469 0.885535 0.883160 0.926375
O19   O     O_R   0.935830 0.932820 0.057160 -0.519187
C48   C     C_R   0.103820 0.917389 0.081686 0.824462
V4    V     V_3+5 0.829130 0.990680 0.998180 1.447261
O20   O     O_3   0.106100 0.049590 0.009310 -0.382840
O21   O     O_3   0.729790 0.476224 0.293110 -0.577764
C49   C     C_3   0.608087 0.539136 0.286150 0.116817
H7    H     H_    0.498998 0.548895 0.330193 0.126998
H8    H     H_    0.527445 0.526998 0.232913 0.121577
C50   C     C_3   0.725453 0.615538 0.297039 -0.244370
H9    H     H_    0.781024 0.632856 0.354612 0.190001
H10   H     H_    0.846336 0.603480 0.256862 0.261496
C51   C     C_3   0.611007 0.685501 0.285550 -0.828197
H11   H     H_    0.521516 0.666275 0.235022 0.244596
H12   H     H_    0.710044 0.733172 0.278849 0.234109
H13   H     H_    0.520660 0.711288 0.335242 0.238027
F1    F     F_    0.830090 0.484344 0.151061 -0.710605
O22   O     O_3   0.540525 0.232142 0.045059 -0.582019
C52   C     C_3   0.384171 0.266142 0.016495 0.081150
H14   H     H_    0.380941 0.237898 0.955731 0.145667
H15   H     H_    0.397143 0.331455 0.022106 0.095088
C53   C     C_3   0.195198 0.249821 0.051997 -0.308176
H16   H     H_    0.209921 0.197914 0.075076 0.234051
H17   H     H_    0.156727 0.302511 0.098938 0.173118
C54   C     C_3   0.033826 0.232159 0.995453 -0.756002
H18   H     H_    0.003010 0.285577 0.975763 0.217700
H19   H     H_    0.904597 0.214531 0.021347 0.253379
H20   H     H_    0.071619 0.180978 0.947366 0.221766
F2    F     F_    0.616836 0.276281 0.454503 -0.736919
O23   O     O_3   0.245729 0.525728 0.715325 -0.575394
C55   C     C_3   0.099295 0.468600 0.688658 0.155695
H21   H     H_    0.098057 0.459339 0.628107 0.170851
H22   H     H_    0.952881 0.489262 0.709539 0.054432
C56   C     C_3   0.142565 0.387489 0.703814 -0.312499
H23   H     H_    0.282426 0.389204 0.730998 0.227284
H24   H     H_    0.032678 0.374953 0.742429 0.195318
C57   C     C_3   0.146135 0.317727 0.632855 -0.768806
H25   H     H_    0.005582 0.310376 0.605071 0.240225
H26   H     H_    0.181387 0.261325 0.646750 0.236395
H27   H     H_    0.255694 0.328095 0.593296 0.252736
O24   O     O_3   0.169632 0.502600 0.851525 -0.575369
C58   C     C_3   0.322215 0.488863 0.895713 0.096642
H28   H     H_    0.297745 0.428444 0.903628 0.138635
H29   H     H_    0.322576 0.530569 0.952408 0.159960
C59   C     C_3   0.518394 0.489591 0.858439 -0.330123
H30   H     H_    0.511408 0.460541 0.797969 0.222067
H31   H     H_    0.564150 0.552539 0.865863 0.172825
C60   C     C_3   0.666224 0.445563 0.892039 -0.866558
H32   H     H_    0.669941 0.470676 0.953340 0.232330
H33   H     H_    0.809566 0.451172 0.868118 0.260923
H34   H     H_    0.629229 0.381083 0.879579 0.237950
O25   O     O_3   0.106665 0.638246 0.976030 -0.553335
C61   C     C_3   0.918693 0.613142 0.986804 0.145960
H35   H     H_    0.928384 0.553748 0.998001 0.157089
H36   H     H_    0.823138 0.607155 0.938115 0.097476
C62   C     C_3   0.828039 0.672418 0.054447 -0.269506
H37   H     H_    0.911369 0.673116 0.104919 0.216286
H38   H     H_    0.831109 0.733477 0.046421 0.232892
C63   C     C_3   0.621075 0.650069 0.065988 -0.804895
H39   H     H_    0.534926 0.648959 0.016089 0.243199
H40   H     H_    0.558475 0.695398 0.114296 0.238968
H41   H     H_    0.614206 0.590402 0.076960 0.256605
F3    F     F_    0.085062 0.782048 0.957469 -0.705762
O26   O     O_3   0.178043 0.973012 0.790176 -0.591435
C64   C     C_3   0.067228 0.039155 0.784094 0.114957
H42   H     H_    0.972631 0.056483 0.833218 0.117093
H43   H     H_    0.970630 0.026735 0.735129 0.145384
C65   C     C_3   0.200198 0.109878 0.786655 -0.233897
H44   H     H_    0.262944 0.129116 0.842757 0.169702
H45   H     H_    0.317830 0.091191 0.745452 0.262531
C66   C     C_3   0.098369 0.181514 0.772525 -0.820247
H46   H     H_    0.014903 0.163238 0.720307 0.260975
H47   H     H_    0.205532 0.227047 0.767483 0.228940
H48   H     H_    0.004024 0.209620 0.820347 0.230893
F4    F     F_    0.219005 0.982521 0.642065 -0.703516

loop_
_geom_bond_atom_site_label_1
_geom_bond_atom_site_label_2
_ccdc_geom_bond_type
C61   H35   S    
O18   C47   A    
C6    C7    A    
C2    C40   S    
C1    O6    A    
C16   F4    S    
C55   H22   S    
O24   C58   S    
C53   C54   S    
C42   H6    S    
C45   O16   A    
V4    O20   S    
C12   C15   A    
C13   C14   A    
C23   C24   T    
O13   C48   A    
C50   H9    S    
C15   C16   A    
O14   V3    S    
C66   H48   S    
O5    C3    A    
C17   C18   A    
C51   H12   S    
O15   C47   A    
V2    O10   S    
C41   C42   A    
C20   C21   S    
C27   C28   T    
C59   H30   S    
C60   H34   S    
V3    O20   S    
C57   H25   S    
O8    V2    S    
C53   H16   S    
C63   H39   S    
C58   H29   S    
C35   C37   A    
C56   H23   S    
O1    V2    S    
C10   C14   A    
C4    C14   S    
O7    V1    S    
C8    F3    S    
C62   C63   S    
C13   C18   A    
O9    C4    A    
O16   V4    S    
C3    C24   S    
H1    C17   S    
C56   H24   S    
C34   O22   S    
C49   C50   S    
C55   H21   S    
C33   H4    S    
C59   H31   S    
C39   C44   A    
H3    C43   S    
C5    C10   A    
O11   C46   A    
C11   C12   A    
C49   H8    S    
C65   C66   S    
O22   C52   S    
O4    C2    A    
C51   H11   S    
C5    C6    A    
C6    O24   S    
C35   C36   A    
C12   C13   A    
C38   C39   A    
C31   C36   A    
C64   C65   S    
C52   C53   S    
O14   C46   A    
C59   C60   S    
O12   C45   A    
O2    C1    A    
O19   C48   A    
C16   C17   A    
C19   C48   S    
C32   C33   A    
C1    C25   S    
O15   V3    S    
C58   C59   S    
C52   H15   S    
C19   C20   T    
C30   C46   S    
C41   H5    S    
C31   C32   A    
O19   V4    S    
C57   H27   S    
C60   H32   S    
O3    C4    A    
C64   H43   S    
C66   H47   S    
C26   C27   S    
C50   H10   S    
C54   H18   S    
O6    V2    S    
C54   H19   S    
O9    V2    S    
C29   C30   T    
O25   C61   S    
C56   C57   S    
C9    C11   A    
C28   C29   S    
O2    V1    S    
O17   V4    S    
C37   C45   S    
C37   C38   A    
C62   H37   S    
O11   V4    S    
C38   C41   A    
C39   C40   A    
C22   C23   S    
C61   H36   S    
O1    C2    A    
C44   F2    S    
C18   H2    S    
C15   O26   S    
C49   H7    S    
C51   H13   S    
O5    V1    S    
O8    C3    A    
C53   H17   S    
O13   V3    S    
O26   C64   S    
C61   C62   S    
C54   H20   S    
C66   H46   S    
C65   H45   S    
C43   C44   A    
O4    V1    S    
O3    V1    S    
V1    O10   S    
C65   H44   S    
C11   C47   S    
C42   C43   A    
C31   O21   S    
C63   H41   S    
C33   C34   A    
C52   H14   S    
C32   F1    S    
C36   C40   A    
C5    O23   S    
O12   V3    S    
O7    V2    S    
C57   H26   S    
C60   H33   S    
C64   H42   S    
O21   C49   S    
C25   C26   T    
C7    O25   S    
C50   C51   S    
O17   V3    S    
C7    C8    A    
C63   H40   S    
C34   C35   A    
O23   C55   S    
O18   V4    S    
C9    C10   A    
C21   C22   T    
C8    C9    A    
C55   C56   S    
C58   H28   S    
C62   H38   S    
