data_mof_unit_46645.cif
_audit_creation_date              2012-12-11T16:12:46-0500
_audit_creation_method            fapswitch 2.2
_symmetry_space_group_name_H-M    P1
_symmetry_Int_Tables_number       1
_space_group_crystal_system       triclinic
_cell_length_a                    7.16944
_cell_length_b                    21.188149
_cell_length_c                    23.66039
_cell_angle_alpha                 90.0
_cell_angle_beta                  89.999974
_cell_angle_gamma                 90.000029
_cell_volume                      3594.18271958

loop_
_atom_site_label
_atom_site_type_symbol
_atom_type_description
_atom_site_fract_x
_atom_site_fract_y
_atom_site_fract_z
_atom_type_partial_charge
O1    O     O_R   0.615270 0.806540 0.192260 -0.535727
O2    O     O_R   0.384730 0.193460 0.807740 -0.533899
O3    O     O_R   0.384730 0.193460 0.692260 -0.535727
O4    O     O_R   0.615270 0.806540 0.307740 -0.533899
O5    O     O_R   0.115270 0.693460 0.307740 -0.535727
O6    O     O_R   0.884730 0.306540 0.692260 -0.533900
O7    O     O_R   0.884730 0.306540 0.807740 -0.535727
O8    O     O_R   0.115270 0.693460 0.192260 -0.533899
O9    O     O_R   0.285500 0.813970 0.307340 -0.536678
O10   O     O_R   0.714500 0.186030 0.692660 -0.537011
O11   O     O_R   0.714500 0.186030 0.807340 -0.536678
O12   O     O_R   0.285500 0.813970 0.192660 -0.537011
O13   O     O_R   0.785500 0.686030 0.192660 -0.536678
O14   O     O_R   0.214500 0.313970 0.807340 -0.537011
O15   O     O_R   0.214500 0.313970 0.692660 -0.536678
O16   O     O_R   0.785500 0.686030 0.307340 -0.537011
C1    C     C_R   0.453630 0.828530 0.326378 0.720348
C2    C     C_R   0.546477 0.171397 0.673657 0.727075
C3    C     C_R   0.546370 0.171470 0.826378 0.720347
C4    C     C_R   0.453522 0.828603 0.173657 0.727076
C5    C     C_R   0.953630 0.671470 0.173622 0.720348
C6    C     C_R   0.046477 0.328603 0.826343 0.727076
C7    C     C_R   0.046370 0.328530 0.673622 0.720347
C8    C     C_R   0.953522 0.671397 0.326343 0.727076
O17   O     O_3   0.448760 0.710460 0.250000 -0.375188
O18   O     O_3   0.551240 0.289540 0.750000 -0.375188
O19   O     O_3   0.948760 0.789540 0.250000 -0.375188
O20   O     O_3   0.051240 0.210460 0.750000 -0.375188
V1    V     V_3+5 0.173900 0.757330 0.250000 1.392056
V2    V     V_3+5 0.826100 0.242670 0.750000 1.392056
V3    V     V_3+5 0.673900 0.742670 0.250000 1.392056
V4    V     V_3+5 0.326100 0.257330 0.750000 1.392057
C9    C     C_3   0.075868 0.527372 0.545000 0.245575
C10   C     C_3   0.918177 0.472411 0.455685 0.262713
C11   C     C_3   0.924131 0.472628 0.045000 0.245571
C12   C     C_3   0.081820 0.527590 0.955684 0.262712
C13   C     C_3   0.575866 0.972628 0.955000 0.245569
C14   C     C_3   0.418183 0.027590 0.044316 0.262707
C15   C     C_3   0.424132 0.027372 0.455000 0.245571
C16   C     C_3   0.581820 0.972410 0.544315 0.262710
C17   C     C_3   0.889427 0.548413 0.517138 0.272916
C18   C     C_3   0.103478 0.451666 0.483645 0.286520
C19   C     C_3   0.110572 0.451587 0.017137 0.272913
C20   C     C_3   0.896519 0.548334 0.983644 0.286520
C21   C     C_3   0.389425 0.951587 0.982863 0.272917
C22   C     C_3   0.603483 0.048333 0.016355 0.286521
C23   C     C_3   0.610573 0.048413 0.482863 0.272915
C24   C     C_3   0.396518 0.951666 0.516355 0.286521
C25   C     C_1   0.959623 0.626018 0.372051 -0.212513
C26   C     C_1   0.038944 0.373801 0.627890 -0.201245
C27   C     C_1   0.040376 0.373983 0.872050 -0.212513
C28   C     C_1   0.961056 0.626198 0.127890 -0.201248
C29   C     C_1   0.459624 0.873982 0.127949 -0.212513
C30   C     C_1   0.538943 0.126198 0.872110 -0.201247
C31   C     C_1   0.540376 0.126017 0.627950 -0.212512
C32   C     C_1   0.461056 0.873801 0.372110 -0.201247
C33   C     C_3   0.167550 0.520934 0.486378 0.267547
C34   C     C_3   0.824599 0.479008 0.514223 0.284682
C35   C     C_3   0.832449 0.479066 0.986378 0.267542
C36   C     C_3   0.175399 0.520993 0.014222 0.284682
C37   C     C_3   0.667551 0.979066 0.013622 0.267541
C38   C     C_3   0.324601 0.020993 0.985778 0.284679
C39   C     C_3   0.332449 0.020934 0.513622 0.267543
C40   C     C_3   0.675399 0.979007 0.485778 0.284680
C41   C     C_3   0.981329 0.542340 0.457997 -0.199889
C42   C     C_3   0.010629 0.457333 0.542579 -0.202370
C43   C     C_3   0.018669 0.457661 0.957996 -0.199885
C44   C     C_3   0.989369 0.542667 0.042578 -0.202365
C45   C     C_3   0.481331 0.957660 0.042003 -0.199885
C46   C     C_3   0.510631 0.042667 0.957421 -0.202365
C47   C     C_3   0.518670 0.042340 0.542003 -0.199886
C48   C     C_3   0.489369 0.957333 0.457421 -0.202365
C49   C     C_1   0.964667 0.588299 0.410718 0.028918
C50   C     C_1   0.029725 0.411399 0.589351 0.086618
C51   C     C_1   0.035332 0.411702 0.910718 0.028920
C52   C     C_1   0.970274 0.588601 0.089351 0.086620
C53   C     C_1   0.464668 0.911702 0.089282 0.028921
C54   C     C_1   0.529726 0.088601 0.910649 0.086619
C55   C     C_1   0.535332 0.088298 0.589282 0.028920
C56   C     C_1   0.470274 0.911399 0.410649 0.086620
O21   O     O_3   0.781529 0.601784 0.531541 -0.544699
C57   C     C_3   0.727977 0.600148 0.588935 0.131180
H1    H     H_    0.830435 0.576615 0.617131 0.140269
H2    H     H_    0.594113 0.574686 0.593108 0.147388
C58   C     C_3   0.703035 0.667555 0.609836 -0.770423
H3    H     H_    0.595564 0.692248 0.584306 0.228688
H4    H     H_    0.660154 0.667434 0.654906 0.183298
H5    H     H_    0.836213 0.693825 0.606036 0.219875
O22   O     O_3   0.214100 0.399089 0.468952 -0.542723
C59   C     C_3   0.274717 0.403660 0.412302 0.151724
H6    H     H_    0.407770 0.430252 0.410592 0.179072
H7    H     H_    0.174348 0.428030 0.383906 0.135259
C60   C     C_3   0.303606 0.337339 0.389097 -0.783456
H8    H     H_    0.170934 0.310525 0.390730 0.220785
H9    H     H_    0.350229 0.339688 0.344437 0.185223
H10   H     H_    0.408914 0.311607 0.414596 0.228702
O23   O     O_3   0.218472 0.398216 0.031539 -0.544697
C61   C     C_3   0.272021 0.399850 0.088934 0.131177
H11   H     H_    0.169561 0.423382 0.117130 0.140271
H12   H     H_    0.405885 0.425311 0.093108 0.147381
C62   C     C_3   0.296961 0.332442 0.109833 -0.770423
H13   H     H_    0.404433 0.307751 0.084303 0.228689
H14   H     H_    0.339842 0.332562 0.154904 0.183298
H15   H     H_    0.163784 0.306173 0.106032 0.219875
O24   O     O_3   0.785895 0.600911 0.968952 -0.542722
C63   C     C_3   0.725278 0.596340 0.912302 0.151729
H16   H     H_    0.592225 0.569748 0.910592 0.179072
H17   H     H_    0.825646 0.571970 0.883906 0.135257
C64   C     C_3   0.696388 0.662660 0.889097 -0.783454
H18   H     H_    0.829060 0.689475 0.890730 0.220785
H19   H     H_    0.649765 0.660311 0.844437 0.185221
H20   H     H_    0.591080 0.688392 0.914596 0.228702
O25   O     O_3   0.281524 0.898217 0.968461 -0.544696
C65   C     C_3   0.227971 0.899852 0.911067 0.131180
H21   H     H_    0.330430 0.923383 0.882870 0.140269
H22   H     H_    0.094108 0.925313 0.906893 0.147385
C66   C     C_3   0.203030 0.832444 0.890167 -0.770421
H23   H     H_    0.095558 0.807752 0.915697 0.228688
H24   H     H_    0.160149 0.832564 0.845097 0.183298
H25   H     H_    0.336207 0.806174 0.893967 0.219874
O26   O     O_3   0.714109 0.100910 0.031047 -0.542723
C67   C     C_3   0.774729 0.096339 0.087697 0.151731
H26   H     H_    0.907782 0.069747 0.089406 0.179072
H27   H     H_    0.674362 0.071969 0.116093 0.135257
C68   C     C_3   0.803620 0.162659 0.110902 -0.783452
H28   H     H_    0.670947 0.189474 0.109270 0.220783
H29   H     H_    0.850244 0.160310 0.155562 0.185222
H30   H     H_    0.908926 0.188392 0.085403 0.228701
O27   O     O_3   0.718473 0.101783 0.468461 -0.544697
C69   C     C_3   0.772025 0.100149 0.411066 0.131179
H31   H     H_    0.669566 0.076617 0.382870 0.140269
H32   H     H_    0.905888 0.074688 0.406893 0.147383
C70   C     C_3   0.796966 0.167557 0.390167 -0.770420
H33   H     H_    0.904436 0.192249 0.415697 0.228688
H34   H     H_    0.839848 0.167437 0.345096 0.183298
H35   H     H_    0.663788 0.193826 0.393967 0.219873
O28   O     O_3   0.285894 0.899089 0.531047 -0.542722
C71   C     C_3   0.225276 0.903660 0.587697 0.151728
H36   H     H_    0.092223 0.930252 0.589407 0.179072
H37   H     H_    0.325644 0.928030 0.616093 0.135258
C72   C     C_3   0.196386 0.837339 0.610902 -0.783453
H38   H     H_    0.329058 0.810524 0.609270 0.220784
H39   H     H_    0.149762 0.839688 0.655562 0.185222
H40   H     H_    0.091078 0.811607 0.585403 0.228702
O29   O     O_3   0.159436 0.553196 0.593742 -0.552566
C73   C     C_3   0.205390 0.617144 0.584496 0.114042
H41   H     H_    0.094897 0.643681 0.561810 0.150294
H42   H     H_    0.334300 0.620732 0.558907 0.170565
C74   C     C_3   0.235531 0.648825 0.641446 -0.764853
H43   H     H_    0.344561 0.623333 0.665699 0.230472
H44   H     H_    0.279659 0.698498 0.635221 0.186217
H45   H     H_    0.103948 0.648243 0.666192 0.228833
O30   O     O_3   0.838458 0.446500 0.406384 -0.553131
C75   C     C_3   0.796523 0.382096 0.414471 0.125423
H46   H     H_    0.666903 0.377078 0.439469 0.175505
H47   H     H_    0.907739 0.355896 0.437104 0.149686
C76   C     C_3   0.770640 0.351544 0.356836 -0.770895
H48   H     H_    0.903926 0.352664 0.332967 0.228304
H49   H     H_    0.725920 0.301794 0.361903 0.187136
H50   H     H_    0.663623 0.377579 0.332237 0.233718
O31   O     O_3   0.840564 0.446803 0.093742 -0.552567
C77   C     C_3   0.794608 0.382856 0.084494 0.114039
H51   H     H_    0.905101 0.356319 0.061808 0.150293
H52   H     H_    0.665699 0.379268 0.058906 0.170566
C78   C     C_3   0.764466 0.351174 0.141444 -0.764852
H53   H     H_    0.655436 0.376665 0.165697 0.230471
H54   H     H_    0.720337 0.301501 0.135219 0.186216
H55   H     H_    0.896048 0.351755 0.166191 0.228833
O32   O     O_3   0.161538 0.553501 0.906383 -0.553132
C79   C     C_3   0.203471 0.617905 0.914470 0.125426
H56   H     H_    0.333091 0.622924 0.939469 0.175505
H57   H     H_    0.092255 0.644104 0.937103 0.149687
C80   C     C_3   0.229354 0.648457 0.856835 -0.770898
H58   H     H_    0.096069 0.647337 0.832967 0.228304
H59   H     H_    0.274074 0.698207 0.861902 0.187138
H60   H     H_    0.336371 0.622422 0.832236 0.233718
O33   O     O_3   0.659430 0.946803 0.906257 -0.552567
C81   C     C_3   0.705384 0.882855 0.915504 0.114042
H61   H     H_    0.594891 0.856319 0.938190 0.150292
H62   H     H_    0.834294 0.879267 0.941093 0.170565
C82   C     C_3   0.735526 0.851174 0.858554 -0.764853
H63   H     H_    0.844555 0.876666 0.834301 0.230472
H64   H     H_    0.779655 0.801501 0.864779 0.186217
H65   H     H_    0.603943 0.851755 0.833807 0.228833
O34   O     O_3   0.338469 0.053501 0.093618 -0.553133
C83   C     C_3   0.296536 0.117905 0.085531 0.125425
H66   H     H_    0.166916 0.122924 0.060532 0.175503
H67   H     H_    0.407752 0.144105 0.062898 0.149688
C84   C     C_3   0.270654 0.148457 0.143166 -0.770896
H68   H     H_    0.403940 0.147337 0.167034 0.228304
H69   H     H_    0.225934 0.198207 0.138099 0.187138
H70   H     H_    0.163638 0.122422 0.167765 0.233718
O35   O     O_3   0.340567 0.053197 0.406258 -0.552567
C85   C     C_3   0.294612 0.117144 0.415505 0.114041
H71   H     H_    0.405104 0.143681 0.438191 0.150293
H72   H     H_    0.165702 0.120732 0.441093 0.170566
C86   C     C_3   0.264470 0.148826 0.358555 -0.764853
H73   H     H_    0.155443 0.123334 0.334301 0.230472
H74   H     H_    0.220338 0.198499 0.364781 0.186217
H75   H     H_    0.396054 0.148246 0.333809 0.228833
O36   O     O_3   0.661535 0.946499 0.593617 -0.553132
C87   C     C_3   0.703469 0.882095 0.585530 0.125423
H76   H     H_    0.833089 0.877076 0.560531 0.175505
H77   H     H_    0.592253 0.855895 0.562897 0.149687
C88   C     C_3   0.729351 0.851542 0.643165 -0.770896
H78   H     H_    0.596066 0.852663 0.667033 0.228304
H79   H     H_    0.774071 0.801793 0.638098 0.187137
H80   H     H_    0.836368 0.877578 0.667764 0.233718
O37   O     O_3   0.638483 0.458127 0.520872 -0.517341
C89   C     C_3   0.593816 0.444978 0.577748 0.169093
H81   H     H_    0.461000 0.469365 0.587911 0.180163
H82   H     H_    0.698002 0.462103 0.609044 0.065672
C90   C     C_3   0.561609 0.374376 0.584928 -0.702806
H83   H     H_    0.686304 0.347488 0.571114 0.206714
H84   H     H_    0.532665 0.363522 0.629987 0.192133
H85   H     H_    0.440471 0.359215 0.559033 0.247720
O38   O     O_3   0.353254 0.539720 0.475102 -0.515652
C91   C     C_3   0.357600 0.574890 0.424673 0.086013
H86   H     H_    0.293829 0.622070 0.431812 0.130986
H87   H     H_    0.291746 0.548308 0.389251 0.113927
C92   C     C_3   0.553050 0.587095 0.406513 -0.645135
H88   H     H_    0.625096 0.541350 0.401293 0.266279
H89   H     H_    0.552141 0.612136 0.365311 0.174533
H90   H     H_    0.621521 0.617491 0.438408 0.258342
O39   O     O_3   0.361512 0.541876 0.020871 -0.517344
C93   C     C_3   0.406184 0.555018 0.077749 0.169094
H91   H     H_    0.538996 0.530628 0.087909 0.180165
H92   H     H_    0.301995 0.537892 0.109044 0.065670
C94   C     C_3   0.438403 0.625619 0.084935 -0.702792
H93   H     H_    0.313710 0.652511 0.071125 0.206714
H94   H     H_    0.467359 0.636466 0.129994 0.192131
H95   H     H_    0.559539 0.640780 0.059038 0.247720
O40   O     O_3   0.646744 0.460280 0.975102 -0.515655
C95   C     C_3   0.642398 0.425111 0.924672 0.086011
H96   H     H_    0.706170 0.377930 0.931811 0.130987
H97   H     H_    0.708253 0.451693 0.889250 0.113926
C96   C     C_3   0.446949 0.412906 0.906512 -0.645134
H98   H     H_    0.374903 0.458651 0.901293 0.266278
H99   H     H_    0.447858 0.387866 0.865310 0.174534
H100  H     H_    0.378478 0.382509 0.938407 0.258342
O41   O     O_3   0.138487 0.041876 0.979130 -0.517346
C97   C     C_3   0.093814 0.055020 0.922253 0.169095
H101  H     H_    0.960999 0.030631 0.912094 0.180167
H102  H     H_    0.197999 0.037895 0.890957 0.065671
C98   C     C_3   0.061599 0.125621 0.915069 -0.702804
H103  H     H_    0.186297 0.152511 0.928876 0.206714
H104  H     H_    0.032636 0.136470 0.870011 0.192131
H105  H     H_    0.940471 0.140783 0.940968 0.247724
O42   O     O_3   0.853255 0.960278 0.024896 -0.515657
C99   C     C_3   0.857602 0.925111 0.075328 0.086014
H106  H     H_    0.793832 0.877930 0.068191 0.130988
H107  H     H_    0.791747 0.951695 0.110749 0.113924
C100  C     C_3   0.053052 0.912908 0.093488 -0.645132
H108  H     H_    0.125099 0.958653 0.098704 0.266280
H109  H     H_    0.052144 0.887871 0.134692 0.174533
H110  H     H_    0.121521 0.882508 0.061595 0.258338
O43   O     O_3   0.861513 0.958124 0.479129 -0.517344
C101  C     C_3   0.906184 0.944981 0.422252 0.169096
H111  H     H_    0.038998 0.969371 0.412091 0.180164
H112  H     H_    0.801997 0.962106 0.390956 0.065669
C102  C     C_3   0.938401 0.874380 0.415067 -0.702796
H113  H     H_    0.813708 0.847489 0.428878 0.206714
H114  H     H_    0.967352 0.863531 0.370007 0.192131
H115  H     H_    0.059537 0.859219 0.440962 0.247720
O44   O     O_3   0.146745 0.039721 0.524897 -0.515655
C103  C     C_3   0.142398 0.074889 0.575328 0.086012
H116  H     H_    0.206169 0.122070 0.568190 0.130988
H117  H     H_    0.208253 0.048306 0.610749 0.113926
C104  C     C_3   0.946949 0.087093 0.593488 -0.645134
H118  H     H_    0.874902 0.041348 0.598705 0.266280
H119  H     H_    0.947856 0.112131 0.634691 0.174533
H120  H     H_    0.878479 0.117491 0.561594 0.258339

loop_
_geom_bond_atom_site_label_1
_geom_bond_atom_site_label_2
_ccdc_geom_bond_type
O17   V3    S    
C85   H72   S    
C98   H104  S    
O18   V4    S    
C76   H48   S    
C16   C47   S    
O12   V1    S    
O19   V1    S    
C89   H81   S    
O32   C79   S    
O7    C6    A    
O24   C63   S    
C29   C53   T    
C10   C18   S    
O26   C67   S    
C104  H118  S    
C47   C55   S    
C65   H21   S    
O34   C83   S    
C12   C43   S    
C91   H86   S    
O15   V4    S    
C103  H117  S    
C91   C92   S    
C20   O24   S    
O16   V3    S    
C15   O35   S    
O11   C3    A    
O42   C99   S    
C78   H53   S    
C87   H77   S    
C24   O28   S    
C23   O27   S    
C57   C58   S    
O8    V1    S    
O2    V4    S    
C38   O41   S    
C27   C51   T    
C17   C34   S    
C36   O39   S    
C92   H90   S    
C66   H24   S    
C20   C44   S    
C100  H108  S    
C99   H106  S    
C81   H62   S    
C10   O30   S    
C85   C86   S    
C46   C54   S    
C63   H16   S    
C20   C35   S    
C99   H107  S    
C42   C50   S    
O23   C61   S    
C21   C38   S    
O1    V3    S    
C41   C49   S    
C10   C41   S    
O3    C2    A    
C11   C35   S    
O41   C97   S    
O36   C87   S    
C62   H14   S    
C86   H74   S    
C92   H88   S    
C45   C53   S    
C70   H33   S    
C57   H2    S    
C35   C43   S    
C82   H63   S    
O25   C65   S    
C72   H38   S    
C34   C42   S    
C83   C84   S    
C79   H56   S    
O11   V2    S    
C87   C88   S    
C68   H30   S    
C97   H102  S    
C15   C48   S    
C22   O26   S    
C69   H32   S    
C11   C19   S    
O40   C95   S    
C98   H105  S    
C75   H47   S    
C79   C80   S    
O9    V1    S    
O4    V3    S    
C99   C100  S    
O15   C7    A    
C85   H71   S    
C14   C45   S    
O16   C8    A    
O7    V2    S    
C80   H58   S    
C13   C46   S    
C33   O38   S    
C74   H44   S    
C78   H54   S    
C35   O40   S    
C95   H97   S    
C24   C48   S    
C18   C33   S    
C19   O23   S    
C9    C42   S    
O29   C73   S    
C73   H42   S    
C90   H84   S    
C67   C68   S    
O17   V1    S    
C60   H9    S    
C97   C98   S    
C14   C22   S    
C87   H76   S    
C22   C37   S    
O19   V3    S    
C84   H70   S    
C65   C66   S    
C62   H13   S    
C81   H61   S    
O20   V4    S    
C18   C42   S    
C34   O37   S    
C75   C76   S    
O37   C89   S    
C103  H116  S    
C64   H20   S    
O22   C59   S    
C23   C40   S    
C102  H114  S    
C98   H103  S    
O27   C69   S    
C24   C39   S    
C17   C41   S    
C104  H119  S    
C28   C52   T    
O38   C91   S    
C58   H3    S    
C15   C23   S    
C21   C45   S    
C57   H1    S    
O21   C57   S    
C14   C38   S    
C72   H39   S    
C76   H49   S    
C86   H75   S    
C101  H112  S    
C89   C90   S    
C94   H93   S    
C70   H35   S    
C73   C74   S    
C31   C55   T    
C13   C21   S    
O10   V2    S    
C59   H7    S    
C86   H73   S    
C90   H83   S    
C32   C56   T    
C17   O21   S    
O12   C4    A    
O39   C93   S    
C12   O32   S    
O13   C5    A    
C19   C43   S    
C60   H8    S    
C11   O31   S    
C44   C52   S    
C68   H29   S    
C39   O44   S    
C1    C32   S    
C23   C47   S    
C75   H46   S    
C80   H59   S    
C71   H37   S    
C19   C36   S    
O33   C81   S    
O4    C1    A    
C74   H45   S    
C3    C30   S    
O9    C1    A    
C78   H55   S    
O6    V2    S    
C39   C47   S    
O35   C85   S    
C60   H10   S    
C93   H92   S    
C96   H99   S    
C68   H28   S    
C94   H94   S    
C25   C49   T    
C66   H25   S    
C101  C102  S    
C43   C51   S    
C95   H96   S    
C83   H67   S    
C93   C94   S    
O5    V1    S    
O43   C101  S    
C13   O33   S    
C40   O43   S    
C58   H5    S    
C59   C60   S    
C70   H34   S    
C73   H41   S    
O44   C103  S    
C88   H80   S    
C37   C45   S    
C84   H68   S    
C16   C24   S    
C88   H78   S    
O1    C4    A    
C9    C33   S    
C13   C37   S    
C82   H65   S    
C97   H101  S    
O2    C3    A    
C104  H120  S    
C77   C78   S    
O13   V3    S    
C93   H91   S    
O14   V4    S    
C4    C29   S    
C7    C26   S    
C103  C104  S    
O8    C5    A    
C102  H115  S    
C65   H22   S    
C38   C46   S    
O18   V2    S    
C90   H85   S    
C72   H40   S    
C76   H50   S    
C77   H51   S    
C14   O34   S    
C15   C39   S    
O28   C71   S    
C89   H82   S    
C16   C40   S    
C61   C62   S    
C91   H87   S    
C92   H89   S    
C18   O22   S    
C9    C17   S    
O14   C6    A    
C100  H110  S    
C64   H19   S    
C101  H111  S    
C67   H26   S    
C48   C56   S    
C77   H52   S    
O31   C77   S    
C66   H23   S    
C26   C50   T    
C59   H6    S    
C102  H113  S    
O5    C8    A    
C63   H17   S    
C11   C44   S    
O10   C2    A    
C2    C31   S    
O6    C7    A    
C8    C25   S    
O20   V2    S    
C80   H60   S    
C69   H31   S    
C40   C48   S    
O3    V4    S    
C61   H12   S    
C96   H98   S    
C83   H66   S    
C22   C46   S    
C81   C82   S    
C12   C20   S    
C71   H36   S    
C94   H95   S    
C69   C70   S    
C21   O25   S    
C58   H4    S    
C82   H64   S    
C16   O36   S    
C36   C44   S    
C37   O42   S    
C61   H11   S    
C100  H109  S    
C96   H100  S    
C64   H18   S    
C10   C34   S    
C12   C36   S    
C62   H15   S    
C79   H57   S    
C84   H69   S    
O30   C75   S    
C74   H43   S    
C88   H79   S    
C67   H27   S    
C95   C96   S    
C5    C28   S    
C9    O29   S    
C33   C41   S    
C71   C72   S    
C6    C27   S    
C30   C54   T    
C63   C64   S    
