data_mof_unit_13232.cif
_audit_creation_date              2012-12-10T20:37:34-0500
_audit_creation_method            fapswitch 2.2
_symmetry_space_group_name_H-M    P1
_symmetry_Int_Tables_number       1
_space_group_crystal_system       triclinic
_cell_length_a                    15.71933
_cell_length_b                    10.677511
_cell_length_c                    9.887478
_cell_angle_alpha                 90.03481
_cell_angle_beta                  90.092029
_cell_angle_gamma                 90.607286
_cell_volume                      1659.45144225

loop_
_atom_site_label
_atom_site_type_symbol
_atom_type_description
_atom_site_fract_x
_atom_site_fract_y
_atom_site_fract_z
_atom_type_partial_charge
C1    C     C_R   0.496391 0.260429 0.500113 0.855927
C2    C     C_R   0.482065 0.129533 0.501694 -0.120567
C3    C     C_R   0.452754 0.066963 0.386006 -0.278198
C4    C     C_R   0.338081 0.500514 0.499871 0.874216
C5    C     C_R   0.452783 0.936445 0.383295 0.183163
C6    C     C_R   0.480586 0.871463 0.500152 -0.141892
C7    C     C_R   0.490392 0.936549 0.621309 0.046298
C8    C     C_3   0.554070 0.926764 0.733631 -0.463977
C9    C     C_3   0.558387 0.069425 0.732078 0.040375
C10   C     C_R   0.449640 0.418058 0.071058 -0.172540
C11   C     C_R   0.557363 0.569628 0.073047 0.604852
C12   C     C_3   0.083558 0.499528 0.500521 -0.053482
C13   C     C_R   0.558669 0.568433 0.928740 0.128499
C14   C     C_R   0.450583 0.415614 0.928927 -0.095596
C15   C     C_3   0.355540 0.396519 0.925188 0.696151
C16   C     C_R   0.495869 0.739982 0.499713 0.888084
C17   C     C_3   0.355519 0.404778 0.078927 0.456458
C18   C     C_R   0.661906 0.499577 0.500139 0.902076
C19   C     C_3   0.971775 0.418716 0.600763 -0.350564
C20   C     C_3   0.028112 0.381795 0.478718 0.660488
C21   C     C_1   0.249378 0.500573 0.499781 -0.097292
C22   C     C_1   0.750571 0.497618 0.500549 -0.176648
C23   C     C_3   0.972444 0.612541 0.523559 0.242388
C24   C     C_3   0.027775 0.537160 0.620555 0.181428
C25   C     C_3   0.680341 0.090848 0.565244 -0.720232
C26   C     C_3   0.706057 0.586802 0.866031 -0.708279
C27   C     C_3   0.291458 0.258490 0.747898 -0.632011
C28   C     C_3   0.002228 0.381179 0.155433 -0.702052
C29   C     C_3   0.001999 0.835063 0.558176 -0.709945
C30   C     C_3   0.997849 0.605846 0.850764 -0.749951
C31   C     C_3   0.485391 0.885267 0.151211 -0.677752
C32   C     C_3   0.916400 0.495803 0.502087 -0.031260
C33   C     C_3   0.028280 0.576539 0.401327 -0.342961
C34   C     C_3   0.972311 0.458033 0.382503 0.154500
C35   C     C_1   0.174207 0.500207 0.500212 0.033605
C36   C     C_1   0.825714 0.496177 0.501229 -0.020693
C37   C     C_R   0.493311 0.063707 0.620941 0.084563
F1    F     F_    0.059048 0.263204 0.454134 -0.671576
F2    F     F_    0.613849 0.641825 0.142512 -0.684320
F3    F     F_    0.311466 0.493461 0.864583 -0.608217
F4    F     F_    0.317538 0.513105 0.125295 -0.597687
H1    H     H_    0.613322 0.878488 0.703493 0.209357
H2    H     H_    0.657137 0.155122 0.485579 0.222789
H3    H     H_    0.667312 0.992814 0.534082 0.240888
H4    H     H_    0.622663 0.731619 0.889563 0.225813
H5    H     H_    0.732799 0.596835 0.969601 0.251660
H6    H     H_    0.748561 0.637325 0.794407 0.230516
H7    H     H_    0.704778 0.485918 0.838262 0.238742
H8    H     H_    0.370217 0.200158 0.906035 0.164066
H9    H     H_    0.264255 0.162607 0.737343 0.222085
H10   H     H_    0.340101 0.271643 0.668339 0.231060
H11   H     H_    0.238899 0.326019 0.734494 0.267322
H12   H     H_    0.533200 0.111954 0.826491 0.114542
H13   H     H_    0.892340 0.471440 0.215966 0.230880
H14   H     H_    0.970413 0.343512 0.063464 0.222985
H15   H     H_    0.044883 0.307900 0.195821 0.290648
H16   H     H_    0.040529 0.465138 0.127038 0.235110
H17   H     H_    0.889310 0.758192 0.484677 0.229434
H18   H     H_    0.970621 0.923794 0.587089 0.246763
H19   H     H_    0.034101 0.848637 0.459152 0.240388
H20   H     H_    0.050104 0.812758 0.636605 0.268532
H21   H     H_    0.109827 0.524937 0.784720 0.262223
H22   H     H_    0.029339 0.644658 0.942457 0.244870
H23   H     H_    0.334507 0.318460 0.132780 0.023244
H24   H     H_    0.963285 0.518371 0.878675 0.226153
H25   H     H_    0.951718 0.675783 0.813317 0.266374
H26   H     H_    0.365412 0.892633 0.235683 0.233961
H27   H     H_    0.484560 0.982356 0.110826 0.190972
H28   H     H_    0.465980 0.819878 0.069176 0.236896
H29   H     H_    0.551102 0.862221 0.183448 0.283600
H30   H     H_    0.947783 0.355160 0.681254 0.171774
H31   H     H_    0.052129 0.639771 0.320435 0.182809
H32   H     H_    0.435182 0.118312 0.295833 0.167937
H33   H     H_    0.524081 0.889526 0.827236 0.175450
H34   H     H_    0.650311 0.213178 0.722252 0.234396
H35   H     H_    0.750308 0.103752 0.573482 0.236845
N1    N     N_R   0.499430 0.499140 0.142800 -0.104891
N2    N     N_R   0.499430 0.499180 0.857150 -0.098310
N3    N     N_2   0.641670 0.120792 0.694508 -0.283980
N4    N     N_2   0.621537 0.639370 0.859117 -0.254804
N5    N     N_2   0.329629 0.271733 0.880228 -0.372790
N6    N     N_2   0.938708 0.413901 0.254528 -0.289910
N7    N     N_2   0.938826 0.736101 0.548543 -0.313820
N8    N     N_2   0.061314 0.580200 0.749056 -0.282597
N9    N     N_2   0.427015 0.872444 0.263543 -0.264242
O1    O     O_R   0.500010 0.316790 0.614690 -0.636197
O2    O     O_R   0.500000 0.316760 0.385350 -0.633971
O3    O     O_R   0.376780 0.500010 0.614650 -0.563331
O4    O     O_R   0.376770 0.499970 0.385310 -0.562599
O5    O     O_R   0.500000 0.683240 0.614650 -0.604392
O6    O     O_R   0.499990 0.683210 0.385310 -0.547358
O7    O     O_R   0.623230 0.500030 0.614690 -0.608133
O8    O     O_R   0.623220 0.499990 0.385350 -0.564391
Zn1   Zn    Zn3+2 0.500010 0.500020 0.653130 0.993563
Zn2   Zn    Zn3+2 0.499990 0.499980 0.346870 1.045694

loop_
_geom_bond_atom_site_label_1
_geom_bond_atom_site_label_2
_ccdc_geom_bond_type
C1    O2    A    
C16   O5    A    
C31   N9    S    
C19   H30   S    
C19   C20   S    
C25   H2    S    
C28   H15   S    
C7    C8    S    
C15   N5    S    
C28   H16   S    
C23   N7    S    
C32   C36   S    
C8    H1    S    
C29   N7    S    
C17   H23   S    
C5    C6    A    
C10   C17   S    
C1    C2    S    
C9    N3    S    
H8    N5    S    
O1    Zn1   S    
C33   H31   S    
C28   H14   S    
C31   H29   S    
C29   H18   S    
C8    C9    S    
C23   C33   S    
C9    C37   S    
O2    Zn2   S    
C23   C24   S    
C11   N1    A    
C27   H9    S    
C26   H7    S    
C5    N9    S    
C13   N4    S    
O8    Zn2   S    
C25   N3    S    
C30   H22   S    
C19   C32   S    
C25   H3    S    
C8    H33   S    
C10   N1    A    
C27   H10   S    
O5    Zn1   S    
O3    Zn1   S    
C31   H27   S    
C29   H20   S    
H26   N9    S    
C28   N6    S    
C27   N5    S    
C10   C14   A    
C6    C16   S    
N1    Zn2   S    
C26   N4    S    
C32   C34   S    
O4    Zn2   S    
C20   F1    S    
C29   H19   S    
C12   C20   S    
O7    Zn1   S    
C33   C34   S    
C7    C37   A    
C12   C35   S    
C11   F2    S    
C30   H25   S    
C26   H6    S    
C4    O3    A    
C9    H12   S    
H13   N6    S    
C27   H11   S    
C4    O4    A    
C1    O1    A    
C15   C17   S    
H21   N8    S    
C13   N2    A    
C18   C22   S    
C3    C5    A    
C6    C7    A    
C21   C35   T    
C22   C36   T    
C12   C24   S    
C25   H35   S    
C18   O7    A    
C23   C32   S    
C19   C24   S    
C24   N8    S    
C20   C34   S    
H17   N7    S    
C4    C21   S    
C11   C13   A    
C2    C37   A    
N2    Zn1   S    
C2    C3    A    
H4    N4    S    
C14   N2    A    
C30   N8    S    
C3    H32   S    
C17   F4    S    
C15   F3    S    
C30   H24   S    
C26   H5    S    
O6    Zn2   S    
C31   H28   S    
C16   O6    A    
C18   O8    A    
C14   C15   S    
C34   N6    S    
C12   C33   S    
H34   N3    S    
