data_mof_unit_43746.cif
_audit_creation_date              2012-12-10T17:53:21-0500
_audit_creation_method            fapswitch 2.2
_symmetry_space_group_name_H-M    P1
_symmetry_Int_Tables_number       1
_space_group_crystal_system       triclinic
_cell_length_a                    23.357978
_cell_length_b                    10.666714
_cell_length_c                    9.947758
_cell_angle_alpha                 89.613958
_cell_angle_beta                  88.842055
_cell_angle_gamma                 93.439029
_cell_volume                      2473.46543796

loop_
_atom_site_label
_atom_site_type_symbol
_atom_type_description
_atom_site_fract_x
_atom_site_fract_y
_atom_site_fract_z
_atom_type_partial_charge
C1    C     C_R   0.504404 0.260340 0.500835 0.851769
C2    C     C_R   0.118879 0.499477 0.629969 0.534686
C3    C     C_R   0.239456 0.589998 0.520213 -0.115311
C4    C     C_R   0.389793 0.498662 0.501085 0.858479
C5    C     C_R   0.298739 0.596514 0.515524 -0.256968
C6    C     C_R   0.327947 0.486823 0.503629 -0.224346
C7    C     C_R   0.297679 0.367923 0.495896 0.392080
C8    C     C_R   0.237785 0.361345 0.504060 0.520004
C9    C     C_R   0.208792 0.473703 0.514602 0.081018
C10   C     C_R   0.765132 0.606361 0.432226 0.459892
C11   C     C_R   0.705369 0.606870 0.431946 0.413946
C12   C     C_R   0.973459 0.445518 0.262107 0.453861
C13   C     C_R   0.672306 0.507325 0.496243 -0.253093
C14   C     C_R   0.698739 0.409975 0.560079 -0.313588
C15   C     C_R   0.758144 0.408205 0.559092 0.148380
C16   C     C_R   0.493424 0.738188 0.500498 0.867629
C17   C     C_R   0.791423 0.506137 0.495848 0.099440
C18   C     C_R   0.524578 0.108404 0.750358 -0.152828
C19   C     C_R   0.510294 0.046858 0.871500 -0.191341
C20   C     C_R   0.474655 0.937695 0.871810 -0.164648
C21   C     C_R   0.458478 0.881762 0.750390 0.140530
C22   C     C_R   0.481042 0.934871 0.626527 0.072918
C23   C     C_R   0.032380 0.435010 0.269495 -0.153739
C24   C     C_R   0.504902 0.058128 0.627102 0.063535
C25   C     C_R   0.507058 0.125812 0.503721 -0.105354
C26   C     C_R   0.500463 0.063239 0.381548 -0.214695
C27   C     C_R   0.490984 0.935531 0.380951 -0.201999
C28   C     C_R   0.610295 0.502313 0.498746 0.894847
C29   C     C_R   0.483778 0.870115 0.502712 -0.131969
C30   C     C_R   0.430082 0.325294 0.153209 -0.140322
C31   C     C_R   0.398597 0.226876 0.096657 0.079267
C32   C     C_R   0.397243 0.219824 0.959116 -0.250742
C33   C     C_R   0.425924 0.311683 0.876896 0.116458
C34   C     C_R   0.060984 0.455973 0.390389 -0.101477
C35   C     C_R   0.464562 0.409306 0.932291 0.134811
C36   C     C_R   0.465374 0.411944 0.076987 0.051965
C37   C     C_R   0.533241 0.584460 0.069070 0.158782
C38   C     C_R   0.533031 0.584271 0.925925 -0.182461
C39   C     C_R   0.880055 0.532115 0.613437 0.562125
C40   C     C_R   0.880954 0.469669 0.383101 0.536862
C41   C     C_R   0.941226 0.470694 0.380368 -0.136372
C42   C     C_R   0.970212 0.494178 0.502317 -0.063966
C43   C     C_R   0.939355 0.525087 0.619365 -0.021737
C44   C     C_R   0.030106 0.486285 0.507620 -0.056026
C45   C     C_R   0.059021 0.508379 0.629901 -0.008578
C46   C     C_R   0.027279 0.539300 0.746572 0.117018
C47   C     C_R   0.968016 0.547722 0.739842 -0.182025
C48   C     C_R   0.120396 0.450512 0.395795 0.545969
H1    H     H_    0.673089 0.334020 0.608992 0.171077
H2    H     H_    0.559967 0.653243 0.870014 0.163613
H3    H     H_    0.944515 0.571344 0.830347 0.199455
H4    H     H_    0.216990 0.675717 0.527282 0.180108
H5    H     H_    0.321872 0.687438 0.519657 0.162684
H6    H     H_    0.925053 0.505426 0.125253 0.363724
H7    H     H_    0.640343 0.709042 0.395861 0.330496
H8    H     H_    0.770146 0.223009 0.576512 0.205036
H9    H     H_    0.772226 0.302558 0.722872 0.218208
H10   H     H_    0.399240 0.760911 0.659711 0.180409
H11   H     H_    0.428870 0.704300 0.801002 0.225539
H12   H     H_    0.503222 0.112485 0.285779 0.168585
H13   H     H_    0.611560 0.664687 0.106021 0.209734
H14   H     H_    0.558058 0.764525 0.107588 0.161875
H15   H     H_    0.393686 0.089633 0.237471 0.186855
H16   H     H_    0.342289 0.072980 0.122925 0.204729
H17   H     H_    0.411558 0.215508 0.705952 0.192090
H18   H     H_    0.364362 0.323021 0.741865 0.200200
H19   H     H_    0.045530 0.652818 0.903934 0.195268
H20   H     H_    0.036280 0.498364 0.943249 0.220332
H21   H     H_    0.366375 0.272690 0.471898 0.311458
H22   H     H_    0.168058 0.251370 0.521370 0.334342
H23   H     H_    0.551710 0.193978 0.754451 0.170535
H24   H     H_    0.837459 0.701665 0.389242 0.328051
H25   H     H_    0.524224 0.087667 0.965597 0.152311
H26   H     H_    0.459065 0.896988 0.966678 0.140726
H27   H     H_    0.490831 0.888069 0.284968 0.168492
H28   H     H_    0.055971 0.413876 0.178351 0.208569
H29   H     H_    0.424728 0.331042 0.258373 0.222268
H30   H     H_    0.370016 0.146419 0.913868 0.165562
N1    N     N_R   0.852394 0.503311 0.497201 -0.346830
N2    N     N_3   0.054529 0.562599 0.872538 -0.363967
N3    N     N_R   0.147727 0.472165 0.514046 -0.362532
N4    N     N_R   0.499460 0.498800 0.142780 -0.108235
N5    N     N_R   0.499440 0.498720 0.857170 -0.122094
N6    N     N_3   0.785194 0.306545 0.621637 -0.404825
N7    N     N_3   0.413412 0.783874 0.755750 -0.441495
N8    N     N_3   0.569171 0.675203 0.137608 -0.385105
N9    N     N_3   0.365163 0.139280 0.181132 -0.390658
N10   N     N_3   0.408135 0.306841 0.741905 -0.354728
O1    O     O_R   0.500000 0.316780 0.614690 -0.615064
O2    O     O_R   0.583850 0.500050 0.614640 -0.604195
O3    O     O_R   0.583840 0.500030 0.385310 -0.587068
O4    O     O_2   0.849922 0.566296 0.723095 -0.535914
O5    O     O_3   0.949523 0.433584 0.137190 -0.730131
O6    O     O_3   0.681531 0.708039 0.371317 -0.700407
O7    O     O_3   0.324414 0.256248 0.481987 -0.718506
O8    O     O_3   0.209345 0.243976 0.501025 -0.686431
O9    O     O_3   0.796143 0.706654 0.371660 -0.682844
O10   O     O_2   0.850619 0.432863 0.274822 -0.500762
O11   O     O_2   0.150960 0.425100 0.283620 -0.519650
O12   O     O_2   0.148485 0.518104 0.743897 -0.504476
O13   O     O_R   0.500000 0.316750 0.385360 -0.648456
O14   O     O_R   0.416160 0.499970 0.614690 -0.604731
O15   O     O_R   0.416150 0.499950 0.385360 -0.629576
O16   O     O_R   0.500000 0.683250 0.614640 -0.630984
O17   O     O_R   0.500000 0.683220 0.385310 -0.600328
Zn1   Zn    Zn3+2 0.500000 0.500020 0.653130 0.943512
Zn2   Zn    Zn3+2 0.500000 0.499980 0.346870 0.961460

loop_
_geom_bond_atom_site_label_1
_geom_bond_atom_site_label_2
_ccdc_geom_bond_type
H20   N2    S    
O13   Zn2   S    
C22   C29   A    
C38   N5    A    
C27   C29   A    
C41   C42   A    
C35   C36   A    
C8    O8    S    
C23   H28   S    
O16   Zn1   S    
C7    C8    A    
C45   C46   A    
O17   Zn2   S    
C12   C23   A    
C26   C27   A    
C12   C41   A    
C18   C24   A    
C5    H5    S    
C33   N10   S    
H18   N10   S    
C30   C31   A    
C14   H1    S    
C10   C17   A    
C4    O15   A    
C17   N1    S    
C48   N3    A    
C18   C19   A    
H6    O5    S    
C30   H29   S    
C16   O16   A    
C19   C20   A    
C36   N4    A    
C8    C9    A    
C4    O14   A    
O1    Zn1   S    
C13   C28   S    
H16   N9    S    
C2    O12   S    
C13   C14   A    
C1    C25   S    
C42   C44   A    
H7    O6    S    
C27   H27   S    
C28   O2    A    
H8    N6    S    
H24   O9    S    
C2    C45   A    
C21   N7    S    
C40   N1    A    
C31   N9    S    
O3    Zn2   S    
C37   N8    S    
C19   H25   S    
C34   C44   A    
C24   C25   A    
O2    Zn1   S    
C4    C6    S    
H13   N8    S    
C35   N5    A    
C47   H3    S    
C3    C5    A    
C16   C29   S    
C39   N1    A    
C10   O9    S    
H22   O8    S    
H11   N7    S    
C37   C38   A    
C3    C9    A    
H14   N8    S    
C31   C32   A    
C23   C34   A    
H9    N6    S    
C20   H26   S    
N4    Zn2   S    
C15   N6    S    
C16   O17   A    
C11   O6    S    
C40   C41   A    
C22   C24   A    
C12   O5    S    
C34   C48   A    
C42   C43   A    
H10   N7    S    
C1    O13   A    
C39   O4    S    
C44   C45   A    
H17   N10   S    
C18   H23   S    
C15   C17   A    
C48   O11   S    
C46   C47   A    
C1    O1    A    
H15   N9    S    
H19   N2    S    
H21   O7    S    
C39   C43   A    
C3    H4    S    
C6    C7    A    
C38   H2    S    
C7    O7    S    
N5    Zn1   S    
C30   C36   A    
C32   C33   A    
C25   C26   A    
C46   N2    S    
C11   C13   A    
C5    C6    A    
C26   H12   S    
C33   C35   A    
O14   Zn1   S    
C28   O3    A    
C37   N4    A    
C10   C11   A    
C32   H30   S    
C20   C21   A    
C14   C15   A    
C40   O10   S    
C2    N3    A    
O15   Zn2   S    
C21   C22   A    
C43   C47   A    
C9    N3    S    
