data_mof_unit_57088.cif
_audit_creation_date              2012-12-10T19:53:41-0500
_audit_creation_method            fapswitch 2.2
_symmetry_space_group_name_H-M    P1
_symmetry_Int_Tables_number       1
_space_group_crystal_system       triclinic
_cell_length_a                    15.140753
_cell_length_b                    14.120793
_cell_length_c                    10.556162
_cell_angle_alpha                 88.055696
_cell_angle_beta                  89.720908
_cell_angle_gamma                 90.638341
_cell_volume                      2255.43107093

loop_
_atom_site_label
_atom_site_type_symbol
_atom_type_description
_atom_site_fract_x
_atom_site_fract_y
_atom_site_fract_z
_atom_type_partial_charge
C1    C     C_R   0.327233 0.499274 0.506351 0.851699
C2    C     C_R   0.672786 0.500537 0.502219 0.856362
C3    C     C_R   0.481391 0.107564 0.389136 -0.283982
C4    C     C_R   0.555835 0.892946 0.581685 -0.287973
C5    C     C_R   0.521612 0.102455 0.609503 -0.288166
C6    C     C_R   0.445206 0.896157 0.418099 -0.282664
C7    C     C_R   0.480287 0.206851 0.391933 0.020075
C8    C     C_R   0.553966 0.793655 0.580790 -0.005450
C9    C     C_R   0.521550 0.201811 0.606958 -0.011558
C10   C     C_R   0.446273 0.796808 0.419277 -0.005138
C11   C     C_R   0.501341 0.053116 0.499409 0.142074
C12   C     C_R   0.500826 0.946387 0.499689 0.142681
C13   C     C_R   0.500236 0.501673 0.257131 0.883348
C14   C     C_R   0.499320 0.498543 0.742936 0.859667
C15   C     C_3   0.504652 0.592109 0.031607 0.132143
C16   C     C_3   0.495015 0.409648 0.968818 0.132003
C17   C     C_3   0.574609 0.540700 0.954131 0.117044
C18   C     C_3   0.425013 0.461159 0.045670 0.111366
C19   C     C_3   0.429511 0.548387 0.953697 -0.270422
C20   C     C_3   0.570430 0.453413 0.046302 -0.273144
C21   C     C_3   0.499979 0.496468 0.877821 -0.105887
C22   C     C_3   0.499615 0.504938 0.122415 -0.113670
C23   C     C_R   0.091498 0.581507 0.501806 -0.214029
C24   C     C_R   0.908287 0.419278 0.521626 -0.211357
C25   C     C_R   0.906174 0.575749 0.423275 -0.223305
C26   C     C_R   0.095511 0.415693 0.454345 -0.228737
C27   C     C_R   0.181994 0.583490 0.522353 0.075288
C28   C     C_R   0.817198 0.418519 0.536525 0.074496
C29   C     C_R   0.816665 0.583328 0.449105 0.070251
C30   C     C_R   0.183374 0.411442 0.489736 0.082106
C31   C     C_R   0.230293 0.497810 0.509683 -0.123417
C32   C     C_R   0.769474 0.501510 0.498296 -0.109075
C33   C     C_R   0.048666 0.499090 0.465103 0.081335
C34   C     C_R   0.952486 0.496107 0.463456 0.083073
H1    H     H_    0.372328 0.586971 0.913218 0.140043
H2    H     H_    0.627666 0.415424 0.088309 0.142404
H3    H     H_    0.053350 0.644129 0.519765 0.128140
H4    H     H_    0.945681 0.360368 0.560742 0.129054
H5    H     H_    0.941386 0.635301 0.378421 0.131633
H6    H     H_    0.061380 0.350947 0.430031 0.135568
H7    H     H_    0.466695 0.074204 0.300913 0.134408
H8    H     H_    0.601232 0.927114 0.644917 0.134843
H9    H     H_    0.536532 0.065103 0.697829 0.135328
H10   H     H_    0.400106 0.932833 0.354789 0.133130
H11   H     H_    0.462889 0.247303 0.307526 0.118912
H12   H     H_    0.596451 0.753319 0.643948 0.113861
H13   H     H_    0.539011 0.238466 0.690476 0.132475
H14   H     H_    0.403689 0.758888 0.355967 0.115732
N1    N     N_R   0.500000 0.252470 0.500000 -0.090332
N2    N     N_R   0.500000 0.747530 0.500000 -0.089389
O1    O     O_R   0.369060 0.579480 0.500010 -0.619784
O2    O     O_R   0.630940 0.420520 0.499990 -0.620237
O3    O     O_R   0.630940 0.579480 0.499990 -0.626117
O4    O     O_R   0.369060 0.420520 0.500010 -0.622460
O5    O     O_R   0.499980 0.579460 0.313950 -0.634563
O6    O     O_R   0.500020 0.420540 0.686050 -0.647483
O7    O     O_R   0.500020 0.579460 0.686050 -0.625773
O8    O     O_R   0.499980 0.420540 0.313950 -0.633232
Zn1   Zn    Zn3+2 0.500000 0.606140 0.500000 0.917367
Zn2   Zn    Zn3+2 0.500000 0.393860 0.500000 0.915353
C35   C     C_3   0.503634 0.695127 0.072473 -0.399407
C36   C     C_3   0.513562 0.765731 0.959505 -0.352737
C37   C     C_3   0.492682 0.866325 0.997685 -0.910496
H15   H     H_    0.423003 0.870602 0.030227 0.260757
H16   H     H_    0.537219 0.888239 0.075002 0.266539
H17   H     H_    0.502336 0.915972 0.914770 0.256925
H18   H     H_    0.582312 0.765197 0.922993 0.218924
H19   H     H_    0.468703 0.745780 0.881704 0.239602
H20   H     H_    0.439847 0.706808 0.121780 0.204778
H21   H     H_    0.557673 0.706666 0.140789 0.209432
C38   C     C_3   0.496065 0.307369 0.926449 -0.408030
C39   C     C_3   0.492405 0.234562 0.036957 -0.350978
C40   C     C_3   0.506351 0.134631 0.990361 -0.919910
H22   H     H_    0.454427 0.116208 0.921095 0.265152
H23   H     H_    0.572281 0.129267 0.944716 0.262823
H24   H     H_    0.502716 0.082862 0.071717 0.254065
H25   H     H_    0.544650 0.250756 0.106809 0.227861
H26   H     H_    0.426930 0.236507 0.084062 0.219151
H27   H     H_    0.440243 0.295004 0.861048 0.198831
H28   H     H_    0.559058 0.298926 0.875066 0.212756
C41   C     C_3   0.659236 0.579730 0.890675 -0.413090
C42   C     C_3   0.725786 0.614576 0.987235 -0.368856
C43   C     C_3   0.811967 0.646356 0.922553 -0.887269
H29   H     H_    0.842415 0.586219 0.873787 0.263016
H30   H     H_    0.799574 0.704948 0.852197 0.257577
H31   H     H_    0.858912 0.672003 0.994582 0.247117
H32   H     H_    0.697695 0.675425 0.036435 0.226752
H33   H     H_    0.740015 0.557054 0.058471 0.221642
H34   H     H_    0.689348 0.522657 0.836344 0.184531
H35   H     H_    0.642589 0.638116 0.822316 0.197129
C44   C     C_3   0.338647 0.422140 0.103604 -0.410346
C45   C     C_3   0.272308 0.395907 0.001025 -0.340939
C46   C     C_3   0.188815 0.351220 0.059443 -0.898684
H36   H     H_    0.204678 0.282565 0.107949 0.254467
H37   H     H_    0.158851 0.399218 0.128572 0.267706
H38   H     H_    0.140094 0.337840 0.983648 0.250286
H39   H     H_    0.254003 0.460537 0.944534 0.213243
H40   H     H_    0.302056 0.344832 0.936060 0.219838
H41   H     H_    0.353182 0.359520 0.165615 0.190058
H42   H     H_    0.309598 0.477141 0.163586 0.192217
C47   C     C_3   0.220738 0.676921 0.566274 -0.378323
C48   C     C_3   0.252152 0.668318 0.704164 -0.326458
C49   C     C_3   0.293418 0.761077 0.746374 -0.878408
H43   H     H_    0.354423 0.777767 0.690769 0.277649
H44   H     H_    0.246125 0.820149 0.733460 0.256566
H45   H     H_    0.310590 0.754373 0.848353 0.241368
H46   H     H_    0.194874 0.649775 0.766866 0.209264
H47   H     H_    0.301438 0.611256 0.715772 0.221104
H48   H     H_    0.273263 0.704369 0.501144 0.220668
H49   H     H_    0.170199 0.733523 0.561751 0.175395
C50   C     C_3   0.777511 0.329267 0.601264 -0.381949
C51   C     C_3   0.745075 0.347594 0.736146 -0.342419
C52   C     C_3   0.736950 0.255701 0.816134 -0.923409
H50   H     H_    0.689918 0.205930 0.772006 0.258103
H51   H     H_    0.802352 0.221380 0.825522 0.264203
H52   H     H_    0.712863 0.271495 0.912582 0.253144
H53   H     H_    0.792333 0.395458 0.783738 0.221687
H54   H     H_    0.679545 0.381760 0.732068 0.225713
H55   H     H_    0.725072 0.296697 0.543716 0.223402
H56   H     H_    0.828193 0.272862 0.607838 0.188392
C53   C     C_3   0.778848 0.682196 0.429448 -0.373212
C54   C     C_3   0.739488 0.696804 0.297076 -0.337242
C55   C     C_3   0.704720 0.797347 0.277439 -0.891756
H57   H     H_    0.647865 0.808785 0.341519 0.280396
H58   H     H_    0.757426 0.850302 0.296234 0.258881
H59   H     H_    0.682694 0.808705 0.178074 0.241525
H60   H     H_    0.791977 0.685228 0.225534 0.216329
H61   H     H_    0.685054 0.645102 0.282110 0.234430
H62   H     H_    0.732187 0.700232 0.505783 0.217187
H63   H     H_    0.832579 0.735858 0.439591 0.175886
C56   C     C_3   0.217054 0.312747 0.523671 -0.378563
C57   C     C_3   0.242721 0.258712 0.405804 -0.322559
C58   C     C_3   0.261154 0.154931 0.439874 -0.899662
H64   H     H_    0.312764 0.149263 0.514039 0.279217
H65   H     H_    0.199994 0.118764 0.475618 0.254171
H66   H     H_    0.284251 0.118656 0.354302 0.245731
H67   H     H_    0.188138 0.261562 0.335937 0.213081
H68   H     H_    0.302333 0.291751 0.360999 0.236052
H69   H     H_    0.271349 0.313420 0.593692 0.213245
H70   H     H_    0.163363 0.272488 0.574842 0.182820

loop_
_geom_bond_atom_site_label_1
_geom_bond_atom_site_label_2
_ccdc_geom_bond_type
C35   H21   S    
C14   O6    A    
C37   H16   S    
C16   C21   S    
O5    Zn1   S    
C40   H22   S    
C50   C51   S    
C3    C11   A    
C53   H63   S    
C4    C8    A    
C13   O5    A    
C38   H27   S    
C41   C42   S    
O3    Zn1   S    
C45   H40   S    
C55   H57   S    
O4    Zn2   S    
C15   C19   S    
C47   C48   S    
N1    Zn2   S    
C36   H18   S    
C18   C44   S    
C7    H11   S    
C14   C21   S    
C50   H55   S    
C19   C21   S    
C5    C11   A    
C29   C32   A    
C3    C7    A    
C6    C12   A    
C51   H53   S    
C55   H58   S    
C57   H68   S    
C30   C56   S    
C1    C31   S    
C17   C20   S    
C2    C32   S    
C18   C19   S    
C54   H60   S    
C47   H48   S    
C51   C52   S    
C39   H26   S    
C56   H70   S    
O2    Zn2   S    
C39   H25   S    
C15   C22   S    
C57   C58   S    
C23   C33   A    
C29   C53   S    
C58   H66   S    
C24   H4    S    
C48   H47   S    
C23   C27   A    
C44   H42   S    
C4    C12   A    
C25   C34   A    
C52   H52   S    
C41   H34   S    
C5    H9    S    
C37   H17   S    
C46   H37   S    
C6    H10   S    
C40   H23   S    
C35   C36   S    
C16   C38   S    
C38   H28   S    
C45   H39   S    
C28   C50   S    
C25   C29   A    
C27   C31   A    
C28   C32   A    
C9    N1    A    
C7    N1    A    
C44   C45   S    
C55   H59   S    
C13   O8    A    
C57   H67   S    
C23   H3    S    
C27   C47   S    
C24   C34   A    
O6    Zn2   S    
C50   H56   S    
C1    O4    A    
C5    C9    A    
C36   C37   S    
C26   C33   A    
C43   H29   S    
C16   C20   S    
C33   C34   S    
C15   C35   S    
C48   H46   S    
C49   H44   S    
C46   H36   S    
C1    O1    A    
C53   C54   S    
C2    O2    A    
C41   H35   S    
C43   H30   S    
C20   C22   S    
C9    H13   S    
C46   H38   S    
C10   H14   S    
C58   H64   S    
C40   H24   S    
O7    Zn1   S    
O1    Zn1   S    
N2    Zn1   S    
C56   C57   S    
C10   N2    A    
C8    N2    A    
C52   H50   S    
C35   H20   S    
C15   C17   S    
C14   O7    A    
C3    H7    S    
C18   C22   S    
C24   C28   A    
C53   H62   S    
C39   C40   S    
C2    O3    A    
C6    C10   A    
C11   C12   S    
C26   C30   A    
C36   H19   S    
C47   H49   S    
C38   C39   S    
C19   H1    S    
C25   H5    S    
C51   H54   S    
C26   H6    S    
C30   C31   A    
C4    H8    S    
C42   H33   S    
C45   C46   S    
C13   C22   S    
C49   H45   S    
C17   C41   S    
C54   H61   S    
C48   C49   S    
C8    H12   S    
C56   H69   S    
C37   H15   S    
C20   H2    S    
C43   H31   S    
C16   C18   S    
C42   C43   S    
C49   H43   S    
C58   H65   S    
C44   H41   S    
C54   C55   S    
O8    Zn2   S    
C42   H32   S    
C52   H51   S    
C17   C21   S    
