data_mof_unit_45584.cif
_audit_creation_date              2013-03-05T16:02:25-0500
_audit_creation_method            fapswitch 2.2
_symmetry_space_group_name_H-M    P1
_symmetry_Int_Tables_number       1
_space_group_crystal_system       triclinic
_cell_length_a                    15.045624
_cell_length_b                    14.077725
_cell_length_c                    10.813059
_cell_angle_alpha                 90.656031
_cell_angle_beta                  88.8309
_cell_angle_gamma                 90.497244
_cell_volume                      2289.58554858

loop_
_atom_site_label
_atom_site_type_symbol
_atom_site_description
_atom_site_fract_x
_atom_site_fract_y
_atom_site_fract_z
_atom_type_partial_charge
O1    O     O_R   0.367860 0.580280 0.500020 -0.613336
O2    O     O_R   0.367860 0.419720 0.500020 -0.609572
C1    C     C_R   0.326925 0.499266 0.502566 0.876396
O3    O     O_R   0.500000 0.580270 0.314790 -0.587163
O4    O     O_R   0.500000 0.419730 0.314790 -0.576720
C2    C     C_R   0.498964 0.499729 0.258234 0.864777
Zn1   Zn    Zn3+2 0.500020 0.607200 0.499990 1.004589
Zn2   Zn    Zn3+2 0.500020 0.392800 0.499990 1.007860
O5    O     O_R   0.632160 0.580270 0.499960 -0.626579
O6    O     O_R   0.632160 0.419730 0.499960 -0.631713
O7    O     O_R   0.500030 0.580270 0.685200 -0.644259
O8    O     O_R   0.500030 0.419730 0.685200 -0.639203
C3    C     C_R   0.673459 0.501035 0.500134 0.868189
C4    C     C_R   0.503455 0.500696 0.742296 0.854523
C5    C     C_3   0.479766 0.603167 0.075335 0.094465
C6    C     C_3   0.426493 0.434874 0.069293 0.040974
H1    H     H_    0.410915 0.618183 0.110550 0.129516
H2    H     H_    0.364125 0.477073 0.075765 0.124590
C7    C     C_3   0.473178 0.600969 0.933111 -0.323647
C8    C     C_3   0.443269 0.420424 0.929422 -0.304477
H3    H     H_    0.401607 0.604280 0.911095 0.155595
H4    H     H_    0.378418 0.426897 0.883743 0.160745
C9    C     C_3   0.600251 0.468056 0.072663 -0.130152
C10   C     C_3   0.503742 0.499994 0.122716 -0.203480
C11   C     C_3   0.508397 0.501718 0.879362 -0.116010
C12   C     C_3   0.606396 0.483748 0.926132 -0.107463
C13   C     C_R   0.816082 0.438867 0.428511 -0.160484
C14   C     C_R   0.769740 0.504995 0.500500 -0.109323
C15   C     C_R   0.815393 0.576876 0.566147 -0.058645
C16   C     C_R   0.907411 0.567366 0.583125 0.018597
C17   C     C_R   0.954248 0.503594 0.503091 0.031263
C18   C     C_R   0.908334 0.444146 0.418666 -0.026161
C19   C     C_R   0.954371 0.618621 0.675705 -0.155397
C20   C     C_R   0.045826 0.605963 0.687551 0.266626
C21   C     C_R   0.092792 0.547193 0.602339 -0.002802
C22   C     C_R   0.046973 0.499770 0.506297 -0.003004
C23   C     C_R   0.094232 0.446879 0.414666 -0.029473
C24   C     C_R   0.048595 0.392285 0.325942 0.207648
C25   C     C_R   0.955378 0.389099 0.329440 0.214656
C26   C     C_R   0.184581 0.532786 0.610638 -0.036586
C27   C     C_R   0.231274 0.496678 0.507878 -0.117203
C28   C     C_R   0.186694 0.452676 0.411539 -0.129347
H5    H     H_    0.779089 0.386933 0.375141 0.182224
H6    H     H_    0.224960 0.421471 0.336139 0.213646
C29   C     C_R   0.564936 0.797992 0.436588 0.061151
C30   C     C_R   0.564982 0.202041 0.436733 0.021029
N1    N     N_R   0.500070 0.750030 0.500050 -0.140293
N2    N     N_R   0.500070 0.249970 0.500050 -0.134495
C31   C     C_R   0.434514 0.798103 0.562411 0.080533
C32   C     C_R   0.433193 0.202533 0.560885 0.084613
C33   C     C_R   0.427368 0.898627 0.553713 -0.150248
C34   C     C_R   0.426964 0.101403 0.554164 -0.149097
C35   C     C_R   0.496810 0.949469 0.493489 0.047479
C36   C     C_R   0.496729 0.050683 0.493770 0.052150
C37   C     C_R   0.566544 0.898807 0.433605 0.001673
C38   C     C_R   0.566452 0.101307 0.433650 0.000983
C39   C     C_R   0.353204 0.949633 0.602290 0.205031
C40   C     C_R   0.353169 0.049430 0.603206 0.215508
C41   C     C_R   0.635132 0.050333 0.371411 -0.058029
C42   C     C_R   0.635238 0.949708 0.371480 -0.051473
H7    H     H_    0.615886 0.756768 0.389425 0.160451
H8    H     H_    0.616149 0.243272 0.389931 0.140173
N3    N     N_R   0.533710 0.683495 0.123928 0.235006
O9    O     O_R   0.493249 0.751834 0.183760 -0.366699
O10   O     O_R   0.616153 0.697241 0.090290 -0.387399
N4    N     N_R   0.402814 0.346814 0.136496 0.246223
O11   O     O_R   0.321951 0.335615 0.178814 -0.327339
O12   O     O_R   0.457711 0.276942 0.148255 -0.350231
N5    N     N_R   0.091715 0.660509 0.779779 0.201063
O13   O     O_R   0.140015 0.733256 0.746985 -0.276468
O14   O     O_R   0.076673 0.644621 0.896700 -0.331059
C43   C     C_1   0.226184 0.534628 0.729872 0.277993
N6    N     N_1   0.256995 0.535326 0.826880 -0.177993
N7    N     N_R   0.096572 0.338477 0.233386 0.241800
O15   O     O_R   0.145013 0.267116 0.265578 -0.253443
O16   O     O_R   0.085016 0.354767 0.116640 -0.272929
N8    N     N_R   0.909210 0.331674 0.240203 0.224626
O17   O     O_R   0.852930 0.370485 0.166667 -0.380526
O18   O     O_R   0.931764 0.243598 0.221387 -0.278053
C44   C     C_1   0.379839 0.746319 0.648791 0.331506
N9    N     N_1   0.335891 0.706528 0.720308 -0.140117
C45   C     C_1   0.372500 0.257517 0.637077 0.350000
N10   N     N_1   0.323298 0.300926 0.698514 -0.149624
N11   N     N_R   0.272386 0.901376 0.637229 0.228763
O19   O     O_R   0.242013 0.906748 0.750569 -0.245793
O20   O     O_R   0.226108 0.857267 0.553612 -0.305684
N12   N     N_R   0.272646 0.096189 0.640964 0.218542
O21   O     O_R   0.250243 0.102522 0.757605 -0.276812
O22   O     O_R   0.219604 0.128537 0.558056 -0.293202
C46   C     C_1   0.706172 0.100755 0.306830 0.201213
N13   N     N_1   0.762870 0.140753 0.255067 -0.064892
C47   C     C_1   0.706522 0.899037 0.307530 0.238420
N14   N     N_1   0.763289 0.858583 0.256564 -0.097220
C48   C     C_1   0.511628 0.689132 0.878443 0.394589
N15   N     N_1   0.541444 0.758012 0.836530 -0.150979
C49   C     C_1   0.472594 0.322354 0.899381 0.377281
N16   N     N_1   0.495060 0.245621 0.876115 -0.145733
C50   C     C_1   0.671805 0.518985 0.139925 0.269657
N17   N     N_1   0.727966 0.557738 0.192654 -0.119918
C51   C     C_1   0.618810 0.368102 0.104360 0.282587
N18   N     N_1   0.636358 0.290677 0.128576 -0.112768
C52   C     C_1   0.665349 0.564501 0.893444 0.236106
N19   N     N_1   0.712253 0.627278 0.869202 -0.140909
C53   C     C_1   0.649771 0.403408 0.858410 0.161744
N20   N     N_1   0.683969 0.341339 0.805416 -0.130448
C54   C     C_1   0.770044 0.663851 0.602314 0.218156
N21   N     N_1   0.733770 0.733518 0.629358 -0.165701
C55   C     C_1   0.911583 0.682522 0.764272 0.329029
N22   N     N_1   0.879179 0.734255 0.835555 -0.084181

loop_
_geom_bond_atom_site_label_1
_geom_bond_atom_site_label_2
_geom_bond_distance
_ccdc_geom_bond_type
N4    O12   1.298919 A    
N12   O21   1.301119 A    
N3    O10   1.299002 A    
C26   C27   1.395709 A    
C27   C28   1.387555 A    
C35   C37   1.415438 A    
C21   C22   1.415908 A    
C40   N12   1.433621 S    
C39   C40   1.404844 A    
N1    C31   1.363654 A    
C35   C36   1.424842 A    
Zn1   O7    2.042518 S    
C15   C16   1.408018 A    
N7    O16   1.301037 A    
C30   H8    1.081082 S    
C25   N8    1.437653 S    
C22   C23   1.416056 A    
C7    H3    1.109056 S    
N11   O20   1.301225 A    
N5    O13   1.299051 A    
O4    C2    1.288030 A    
O7    C4    1.287189 A    
C18   C25   1.413110 A    
C54   N21   1.158217 T    
C55   N22   1.157660 T    
C5    H1    1.117427 S    
C20   C21   1.413836 A    
C9    C12   1.602973 S    
C23   C28   1.392575 A    
N5    O14   1.301366 A    
O5    C3    1.281581 A    
C47   N14   1.157405 T    
C12   C53   1.488510 S    
C1    C27   1.439263 S    
C31   C33   1.424487 A    
C32   C34   1.427073 A    
C9    C10   1.605354 S    
C3    C14   1.449293 S    
C33   C39   1.420538 A    
C6    C8    1.539749 S    
N2    C32   1.364737 A    
N4    O11   1.300014 A    
C8    C49   1.483480 S    
C41   C42   1.416583 A    
C6    C10   1.587994 S    
C37   C42   1.415207 A    
C52   N19   1.155287 T    
C19   C55   1.451217 S    
C28   H6    1.079914 S    
O3    Zn1   2.033886 S    
C53   N20   1.157973 T    
C34   C36   1.418598 A    
C30   N2    1.360665 A    
N8    O18   1.301015 A    
C24   C25   1.402582 A    
C36   C38   1.414480 A    
N7    O15   1.301031 A    
N11   O19   1.300833 A    
O3    C2    1.282196 A    
C43   N6    1.155344 T    
C11   C12   1.591739 S    
N8    O17   1.301250 A    
C33   C35   1.413458 A    
C41   C46   1.449712 S    
Zn1   N1    2.010708 S    
C5    C7    1.543025 S    
Zn2   N2    2.010737 S    
C23   C24   1.408333 A    
C17   C18   1.417455 A    
Zn2   O8    2.033988 S    
C2    C10   1.465707 S    
C49   N16   1.158042 T    
C19   C20   1.397674 A    
C39   N11   1.433741 S    
C20   N5    1.436059 S    
C7    C48   1.488252 S    
C34   C40   1.421285 A    
Zn2   O6    2.020711 S    
C5    C10   1.592439 S    
C8    H4    1.107494 S    
C50   N17   1.158114 T    
N12   O22   1.301076 A    
C15   C54   1.452689 S    
C6    N4    1.481277 S    
C32   C45   1.441791 S    
C24   N7    1.434971 S    
Zn1   O5    2.027173 S    
C14   C15   1.411041 A    
C26   C43   1.444508 S    
C16   C19   1.423184 A    
C13   C18   1.391304 A    
O1    Zn1   2.020984 S    
O2    Zn2   2.027444 S    
O8    C4    1.291186 A    
C44   N9    1.153979 T    
O6    C3    1.297624 A    
O4    Zn2   2.042416 S    
C38   C41   1.417431 A    
C31   C44   1.433307 S    
C9    C51   1.482292 S    
C21   C26   1.402401 A    
C12   C52   1.477473 S    
C46   N13   1.156465 T    
C16   C17   1.421210 A    
C29   H7    1.081442 S    
C51   N18   1.157871 T    
O2    C1    1.282450 A    
C4    C11   1.485375 S    
C48   N15   1.158068 T    
C7    C11   1.597655 S    
N3    O9    1.301748 A    
C13   H5    1.083389 S    
C9    C50   1.486152 S    
C29   N1    1.360552 A    
C29   C37   1.419959 A    
C6    H2    1.115506 S    
C45   N10   1.158127 T    
C8    C11   1.592490 S    
C30   C38   1.418473 A    
C13   C14   1.389692 A    
C5    N3    1.483734 S    
C17   C22   1.397763 A    
O1    C1    1.291762 A    
C42   C47   1.452242 S    
