data_mof_unit_66870.cif
_audit_creation_date              2013-03-05T15:57:22-0500
_audit_creation_method            fapswitch 2.2
_symmetry_space_group_name_H-M    P1
_symmetry_Int_Tables_number       1
_space_group_crystal_system       triclinic
_cell_length_a                    18.008524
_cell_length_b                    19.484672
_cell_length_c                    8.597767
_cell_angle_alpha                 89.849646
_cell_angle_beta                  101.238522
_cell_angle_gamma                 89.131944
_cell_volume                      2958.63410519

loop_
_atom_site_label
_atom_site_type_symbol
_atom_site_description
_atom_site_fract_x
_atom_site_fract_y
_atom_site_fract_z
_atom_type_partial_charge
P1    P     P_3+3 0.834140 0.419320 0.003900 0.574908
P2    P     P_3+3 0.834140 0.580680 0.503900 0.561866
P3    P     P_3+3 0.334140 0.919320 0.003900 0.572376
P4    P     P_3+3 0.334140 0.080680 0.503900 0.558882
O1    O     O_2   0.841960 0.394640 0.833410 -0.340579
O2    O     O_2   0.841960 0.605360 0.333410 -0.331722
O3    O     O_2   0.341960 0.894640 0.833410 -0.345124
O4    O     O_2   0.341960 0.105360 0.333410 -0.328319
O5    O     O_3   0.907950 0.463080 0.102990 -0.338697
O6    O     O_3   0.907950 0.536920 0.602990 -0.328609
O7    O     O_3   0.407950 0.963080 0.102990 -0.346185
O8    O     O_3   0.407950 0.036920 0.602990 -0.349200
O9    O     O_3   0.972780 0.329600 0.629720 -0.359129
O10   O     O_3   0.972780 0.670400 0.129720 -0.373886
O11   O     O_3   0.472780 0.829600 0.629720 -0.377009
O12   O     O_3   0.472780 0.170400 0.129720 -0.372325
O13   O     O_2   0.852081 0.281000 0.714963 -0.301835
O14   O     O_2   0.848929 0.721425 0.207500 -0.293842
O15   O     O_2   0.354148 0.774760 0.709410 -0.292460
O16   O     O_2   0.343136 0.217009 0.199702 -0.303095
O17   O     O_3   0.761500 0.477761 0.962886 -0.485390
O18   O     O_3   0.757908 0.528670 0.470707 -0.518646
O19   O     O_3   0.261850 0.978453 0.967503 -0.484170
O20   O     O_3   0.260742 0.025680 0.461184 -0.496047
O21   O     O_3   0.934062 0.190585 0.611781 -0.431427
O22   O     O_3   0.934963 0.808290 0.113652 -0.416957
O23   O     O_3   0.444732 0.689176 0.615619 -0.458892
O24   O     O_3   0.427666 0.306811 0.114577 -0.418583
H1    H     H_    0.031043 0.215267 0.771576 0.046774
H2    H     H_    0.011419 0.774246 0.309030 0.056038
H3    H     H_    0.552098 0.710153 0.744922 0.004759
H4    H     H_    0.499728 0.277751 0.319514 0.043506
C1    C     C_3   0.048973 0.126421 0.639197 0.227154
C2    C     C_3   0.051001 0.862808 0.209461 0.104006
C3    C     C_3   0.556958 0.628239 0.581086 0.259126
C4    C     C_3   0.537528 0.367379 0.217440 0.071871
H5    H     H_    0.609069 0.637785 0.536748 0.043731
H6    H     H_    0.586389 0.357884 0.311950 0.112160
H7    H     H_    0.109525 0.133958 0.641038 0.027611
H8    H     H_    0.104869 0.847828 0.285272 0.081180
H9    H     H_    0.036918 0.095295 0.736035 0.178081
H10   H     H_    0.019330 0.902888 0.259713 0.204500
H11   H     H_    0.572913 0.596842 0.686413 0.120493
H12   H     H_    0.498821 0.408264 0.243651 0.204650
P5    P     P_3+3 0.165830 0.418670 0.685610 0.569655
P6    P     P_3+3 0.165830 0.581330 0.185610 0.576614
P7    P     P_3+3 0.665830 0.918670 0.685610 0.573253
P8    P     P_3+3 0.665830 0.081330 0.185610 0.574474
P9    P     P_3+3 0.100322 0.268482 0.124028 0.629061
P10   P     P_3+3 0.094865 0.734602 0.628876 0.614695
P11   P     P_3+3 0.603043 0.771603 0.125302 0.630880
P12   P     P_3+3 0.595585 0.234085 0.628227 0.610761
O25   O     O_2   0.157990 0.394030 0.856030 -0.318066
O26   O     O_2   0.157990 0.605970 0.356030 -0.322032
O27   O     O_2   0.657990 0.894030 0.856030 -0.311347
O28   O     O_2   0.657990 0.105970 0.356030 -0.315982
O29   O     O_3   0.027110 0.329490 0.059550 -0.321566
O30   O     O_3   0.027110 0.670510 0.559550 -0.306022
O31   O     O_3   0.527110 0.829490 0.059550 -0.321827
O32   O     O_3   0.527110 0.170510 0.559550 -0.308444
O33   O     O_2   0.155998 0.274560 0.008665 -0.345645
O34   O     O_2   0.151842 0.728376 0.515718 -0.348493
O35   O     O_2   0.661718 0.783620 0.019249 -0.331169
O36   O     O_2   0.650423 0.229619 0.510303 -0.350127
O37   O     O_3   0.244986 0.468756 0.716341 -0.568404
O38   O     O_3   0.249667 0.533031 0.216385 -0.548899
O39   O     O_3   0.747370 0.966922 0.715852 -0.565981
O40   O     O_3   0.748248 0.031342 0.216876 -0.559870
O41   O     O_3   0.063380 0.186101 0.083397 -0.520529
O42   O     O_3   0.057758 0.818791 0.589349 -0.548188
O43   O     O_3   0.573919 0.688950 0.070677 -0.521185
O44   O     O_3   0.558417 0.318586 0.595612 -0.551535
C5    C     C_3   0.984805 0.185869 0.078089 0.591313
C6    C     C_3   0.981670 0.827736 0.607690 0.551377
C7    C     C_3   0.495764 0.687349 0.016522 0.616210
C8    C     C_3   0.482668 0.327249 0.616128 0.563212
H13   H     H_    0.955791 0.224903 0.991619 0.027886
H14   H     H_    0.944882 0.794433 0.521734 0.036292
H15   H     H_    0.477340 0.725445 0.920159 0.032085
H16   H     H_    0.445180 0.293800 0.532001 0.021971
C9    C     C_3   0.953825 0.116617 0.017613 -0.048072
C10   C     C_3   0.958293 0.903638 0.572644 -0.021124
C11   C     C_3   0.477410 0.616302 0.950419 -0.001640
C12   C     C_3   0.458856 0.403167 0.580840 -0.022332
H17   H     H_    0.426757 0.620540 0.862472 0.119757
H18   H     H_    0.396685 0.407069 0.565166 0.117896
H19   H     H_    0.893105 0.121052 0.016004 0.119251
H20   H     H_    0.896567 0.908463 0.565012 0.123481
H21   H     H_    0.963443 0.107132 0.897320 0.114169
H22   H     H_    0.972279 0.921013 0.460535 0.123900
H23   H     H_    0.516083 0.598564 0.877370 0.149873
H24   H     H_    0.476255 0.421422 0.472877 0.117252
C13   C     C_3   0.243284 0.467499 0.278609 0.642205
C14   C     C_3   0.231427 0.532677 0.778402 0.634194
C15   C     C_3   0.739741 0.966405 0.280023 0.641829
C16   C     C_3   0.737139 0.032950 0.771585 0.636302
H25   H     H_    0.238539 0.470951 0.404855 0.053615
H26   H     H_    0.223612 0.527323 0.902575 0.053145
H27   H     H_    0.734388 0.970411 0.405703 0.054660
H28   H     H_    0.733075 0.030665 0.898556 0.042674
C17   C     C_3   0.315308 0.428820 0.263597 0.492155
C18   C     C_3   0.301357 0.571875 0.772716 0.505224
C19   C     C_3   0.810497 0.926079 0.265903 0.501612
C20   C     C_3   0.807072 0.071457 0.753510 0.497427
H29   H     H_    0.364036 0.457208 0.329181 0.094235
H30   H     H_    0.345545 0.545524 0.857885 0.135994
H31   H     H_    0.859213 0.954336 0.330002 0.105691
H32   H     H_    0.853251 0.047777 0.838946 0.102752
Ba1   Ba    Ba6+2 0.000000 0.447380 0.844850 1.787815
Ba2   Ba    Ba6+2 0.000000 0.552620 0.344850 1.785423
Ba3   Ba    Ba6+2 0.500000 0.947380 0.844850 1.779710
Ba4   Ba    Ba6+2 0.500000 0.052620 0.344850 1.780361
C21   C     C_3   0.786806 0.539645 0.912639 0.363485
C22   C     C_3   0.776958 0.465830 0.414649 0.290748
C23   C     C_3   0.287560 0.040048 0.916658 0.348928
C24   C     C_3   0.286887 0.961168 0.427089 0.298774
H33   H     H_    0.820176 0.531554 0.818536 0.051389
H34   H     H_    0.806428 0.472192 0.313726 0.067256
H35   H     H_    0.324834 0.032104 0.829325 0.042247
H36   H     H_    0.322782 0.963689 0.335879 0.046415
H37   H     H_    0.820232 0.567437 0.015008 0.094842
H38   H     H_    0.810961 0.434919 0.512922 0.109799
H39   H     H_    0.317246 0.069606 0.020070 0.098765
H40   H     H_    0.318024 0.935611 0.536742 0.108048
C25   C     C_3   0.716564 0.580952 0.845484 0.042451
C26   C     C_3   0.703121 0.431544 0.354824 0.137244
C27   C     C_3   0.217933 0.078878 0.836897 0.068066
C28   C     C_3   0.217043 0.921674 0.363039 0.108556
H41   H     H_    0.694572 0.563384 0.723076 0.148792
H42   H     H_    0.680781 0.451296 0.233760 0.203325
H43   H     H_    0.199277 0.057509 0.716443 0.170255
H44   H     H_    0.197337 0.935719 0.236583 0.172238
H45   H     H_    0.726710 0.636545 0.845626 0.021259
H46   H     H_    0.711415 0.375157 0.352140 0.024678
H47   H     H_    0.227532 0.134374 0.831190 0.003329
H48   H     H_    0.228839 0.865948 0.373901 0.019067
O45   O     O_3   0.092100 0.536880 0.086720 -0.317287
O46   O     O_3   0.092100 0.463120 0.586720 -0.311991
O47   O     O_3   0.592100 0.036880 0.086720 -0.312293
O48   O     O_3   0.592100 0.963120 0.586720 -0.316587
P13   P     P_3+3 0.895173 0.727827 0.076189 0.639611
P14   P     P_3+3 0.895451 0.273078 0.579282 0.641013
P15   P     P_3+3 0.392556 0.225207 0.074400 0.629996
P16   P     P_3+3 0.400012 0.769195 0.576689 0.602524
C29   C     C_3   0.013144 0.195642 0.649091 0.259120
C30   C     C_3   0.009997 0.797379 0.190571 0.350618
C31   C     C_3   0.523390 0.695700 0.623927 0.223936
C32   C     C_3   0.501225 0.299562 0.201406 0.381061
H49   H     H_    0.036854 0.229400 0.568500 0.107468
H50   H     H_    0.043111 0.764603 0.122542 0.105742
H51   H     H_    0.538604 0.735661 0.544994 0.111994
H52   H     H_    0.538969 0.267090 0.143401 0.118222
C33   C     C_R   0.137639 0.680646 0.942750 -0.398134
C34   C     C_R   0.140449 0.323066 0.436390 -0.402614
C35   C     C_R   0.642063 0.178587 0.938726 -0.380288
C36   C     C_R   0.639314 0.821965 0.439598 -0.451979
C37   C     C_R   0.847543 0.329786 0.271260 0.046941
C38   C     C_R   0.855717 0.674617 0.763200 0.052502
C39   C     C_R   0.354869 0.822770 0.262876 0.079770
C40   C     C_R   0.356297 0.175546 0.760271 0.049279
C41   C     C_R   0.777615 0.227194 0.315582 -0.084232
C42   C     C_R   0.780133 0.774505 0.809722 -0.119906
C43   C     C_R   0.279792 0.724768 0.314925 -0.073639
C44   C     C_R   0.279579 0.274456 0.809273 -0.105546
C45   C     C_R   0.831821 0.278530 0.374204 0.249250
C46   C     C_R   0.836989 0.724418 0.867238 0.226715
C47   C     C_R   0.338041 0.773073 0.369217 0.215159
C48   C     C_R   0.336391 0.224008 0.865277 0.217644
C49   C     C_R   0.807374 0.336939 0.113055 0.116260
C50   C     C_R   0.811345 0.664902 0.609833 0.117609
C51   C     C_R   0.308696 0.835197 0.111681 0.126258
C52   C     C_R   0.311076 0.165252 0.608653 0.107499
C53   C     C_R   0.749729 0.283999 0.052911 -0.200904
C54   C     C_R   0.750451 0.716369 0.552292 -0.221329
C55   C     C_R   0.247715 0.784570 0.055531 -0.169901
C56   C     C_R   0.250745 0.217288 0.551564 -0.204489
C57   C     C_R   0.235873 0.726139 0.156861 -0.021535
C58   C     C_R   0.238711 0.275712 0.650616 -0.082827
C59   C     C_R   0.737500 0.225976 0.154778 -0.076809
C60   C     C_R   0.738299 0.774838 0.651866 -0.077824
C61   C     C_R   0.181321 0.671241 0.094302 0.203787
C62   C     C_R   0.183497 0.331021 0.588843 0.210703
C63   C     C_R   0.683975 0.170293 0.091871 0.196605
C64   C     C_R   0.682747 0.830108 0.590947 0.229199
C65   C     C_R   0.149393 0.733749 0.841697 0.310674
C66   C     C_R   0.152990 0.269367 0.337182 0.272448
C67   C     C_R   0.653435 0.231774 0.837752 0.315794
C68   C     C_R   0.651830 0.768707 0.339812 0.278780
C69   C     C_R   0.201886 0.786134 0.898600 0.304443
C70   C     C_R   0.203399 0.214997 0.398251 0.264802
C71   C     C_R   0.704814 0.285024 0.894795 0.316661
C72   C     C_R   0.702986 0.714322 0.397784 0.260058
H53   H     H_    0.271189 0.684480 0.395223 0.228053
H54   H     H_    0.269460 0.313926 0.890045 0.242737
H55   H     H_    0.769968 0.186178 0.395091 0.239894
H56   H     H_    0.770154 0.814368 0.888833 0.245388
H57   H     H_    0.095748 0.642941 0.897902 0.224474
H58   H     H_    0.097496 0.361255 0.390974 0.222253
H59   H     H_    0.599916 0.141027 0.894415 0.220688
H60   H     H_    0.597377 0.860750 0.394202 0.228168
Cl1   Cl    Cl    0.314074 0.343973 0.336911 -0.715572
Cl2   Cl    Cl    0.292428 0.657950 0.824565 -0.632024
Cl3   Cl    Cl    0.809279 0.842839 0.345804 -0.713502
Cl4   Cl    Cl    0.797021 0.159391 0.788962 -0.692039
Cl5   Cl    Cl    0.326920 0.425397 0.063069 -0.479143
Cl6   Cl    Cl    0.326903 0.569908 0.582414 -0.531703
Cl7   Cl    Cl    0.821098 0.919779 0.065092 -0.473253
Cl8   Cl    Cl    0.830617 0.063595 0.562914 -0.521378
Cl9   Cl    Cl    0.649438 0.565330 0.965710 -0.427278
Cl10  Cl    Cl    0.637209 0.454843 0.478201 -0.440388
Cl11  Cl    Cl    0.146217 0.067065 0.947533 -0.406311
Cl12  Cl    Cl    0.145121 0.945077 0.471120 -0.415964
Cl13  Cl    Cl    0.492351 0.578763 0.446165 -0.355365
Cl14  Cl    Cl    0.569537 0.389786 0.043353 -0.464745
Cl15  Cl    Cl    0.011777 0.079294 0.469980 -0.369089
Cl16  Cl    Cl    0.070123 0.893239 0.029290 -0.443663
N1    N     N_R   0.472433 0.565505 0.073209 0.320517
O49   O     O_R   0.409343 0.556988 0.122299 -0.289314
O50   O     O_R   0.532454 0.531489 0.141808 -0.185310
N2    N     N_R   0.488941 0.448678 0.711578 0.336357
O51   O     O_R   0.444689 0.472396 0.801805 -0.292862
O52   O     O_R   0.554248 0.476402 0.719807 -0.219202
N3    N     N_R   0.980650 0.058586 0.121347 0.336673
O53   O     O_R   0.931778 0.021340 0.173852 -0.304660
O54   O     O_R   0.050769 0.038565 0.149097 -0.154094
N4    N     N_R   0.992845 0.949145 0.699565 0.334761
O55   O     O_R   0.952694 0.975409 0.795131 -0.291125
O56   O     O_R   0.060017 0.972097 0.703797 -0.201143
N5    N     N_R   0.704751 0.342959 0.793741 0.269196
O57   O     O_R   0.665687 0.396528 0.818272 -0.224332
O58   O     O_R   0.721811 0.335734 0.654792 -0.341802
N6    N     N_R   0.702418 0.656120 0.298163 0.270583
O59   O     O_R   0.655252 0.607386 0.308604 -0.276628
O60   O     O_R   0.725401 0.663463 0.165388 -0.310254
N7    N     N_R   0.206302 0.841616 0.794113 0.267402
O61   O     O_R   0.170527 0.897826 0.812564 -0.229875
O62   O     O_R   0.225714 0.830798 0.658750 -0.336929
N8    N     N_R   0.198395 0.153996 0.308963 0.266935
O63   O     O_R   0.152405 0.107432 0.338750 -0.268220
O64   O     O_R   0.218145 0.154825 0.171986 -0.299824
Cl17  Cl    Cl    0.923379 0.384741 0.346918 -0.569031
Cl18  Cl    Cl    0.937582 0.623716 0.831824 -0.568255
Cl19  Cl    Cl    0.441716 0.865059 0.317829 -0.593212
Cl20  Cl    Cl    0.440600 0.127423 0.825089 -0.565111
N9    N     N_R   0.965528 0.199024 0.232711 0.213941
O65   O     O_R   0.910551 0.166048 0.275520 -0.365194
O66   O     O_R   0.988368 0.254454 0.307834 -0.467622
N10   N     N_R   0.969477 0.812311 0.767142 0.233059
O67   O     O_R   0.997235 0.757159 0.840795 -0.453023
O68   O     O_R   0.916291 0.845171 0.820274 -0.331096
N11   N     N_R   0.454477 0.700732 0.142656 0.246783
O69   O     O_R   0.382256 0.691771 0.116752 -0.377523
O70   O     O_R   0.489536 0.713654 0.285070 -0.414748
N12   N     N_R   0.471545 0.312022 0.776034 0.239244
O71   O     O_R   0.505054 0.260508 0.856563 -0.440604
O72   O     O_R   0.415821 0.342154 0.825745 -0.337777
Cl21  Cl    Cl    0.165954 0.420674 0.175459 -0.551697
Cl22  Cl    Cl    0.153999 0.579744 0.669523 -0.532563
Cl23  Cl    Cl    0.661751 0.921167 0.177429 -0.539230
Cl24  Cl    Cl    0.657157 0.078702 0.668093 -0.538823

loop_
_geom_bond_atom_site_label_1
_geom_bond_atom_site_label_2
_geom_bond_distance
_ccdc_geom_bond_type
O10   Ba2   2.918607 S    
P1    O17   1.704456 S    
O15   P16   1.536670 D    
C13   H25   1.107401 S    
N7    O62   1.295674 A    
Ba4   O48   2.943707 S    
P3    O19   1.707072 S    
O21   P14   1.741598 S    
C70   N8    1.411120 S    
P8    O28   1.574677 D    
O44   C8    1.416830 S    
C7    C11   1.514393 S    
C8    C12   1.546551 S    
N2    O52   1.291117 A    
C36   C64   1.392246 A    
C23   C27   1.499422 S    
N11   O69   1.290664 A    
C55   C57   1.474875 A    
C36   H60   1.077062 S    
C15   Cl23  1.756785 S    
C52   C56   1.485098 A    
C34   C66   1.394971 A    
O26   Ba2   3.027923 S    
P13   C46   1.897051 S    
C1    H7    1.099554 S    
C39   C51   1.418027 A    
P12   O32   1.780461 S    
C41   C45   1.431050 A    
P1    O1    1.575392 D    
C20   Cl4   1.753909 S    
P6    C61   1.963716 S    
C3    H5    1.097690 S    
C19   Cl7   1.778004 S    
P6    O38   1.742135 S    
P3    O3    1.575392 D    
C28   H48   1.103436 S    
H1    C29   1.110252 S    
C34   H58   1.080634 S    
P5    Ba1   3.557078 S    
N11   O70   1.290880 A    
C33   H57   1.078149 S    
C43   H53   1.076765 S    
O25   Ba1   2.998008 S    
C57   C61   1.492475 A    
C27   H43   1.108903 S    
C34   C62   1.397038 A    
P9    O29   1.767152 S    
C41   H55   1.078023 S    
O6    Ba1   2.943735 S    
Ba1   O45   2.979723 S    
C6    N10   1.461216 S    
C38   Cl18  1.766015 S    
C35   C63   1.391874 A    
P7    O39   1.732642 S    
O22   C30   1.396677 S    
C37   Cl17  1.771031 S    
C37   C49   1.416084 A    
P5    O46   1.660496 S    
O9    Ba1   2.937856 S    
P11   C68   1.882259 S    
C12   N2    1.458018 S    
C12   H18   1.102725 S    
P1    Ba1   3.567645 S    
O13   P14   1.532025 D    
C30   H50   1.109915 S    
P5    O37   1.717827 S    
O38   C13   1.398095 S    
C4    C32   1.477998 S    
O29   Ba1   2.918007 S    
P9    C66   1.892523 S    
N3    O53   1.295195 A    
P3    Ba3   3.567645 S    
C2    H10   1.098268 S    
P7    O48   1.660496 S    
C43   C57   1.432953 A    
N12   O72   1.298084 A    
N7    O61   1.288071 A    
O41   C5    1.406915 S    
P12   C67   1.897155 S    
P4    O8    1.655317 S    
O22   P13   1.738367 S    
C3    H11   1.080371 S    
C42   C60   1.418053 A    
C10   H20   1.103249 S    
P4    O4    1.574346 D    
C9    H21   1.097136 S    
C56   C58   1.462069 A    
P4    Ba4   3.554853 S    
O10   P13   1.765297 S    
P5    O25   1.573636 D    
P2    C50   1.955557 S    
C1    C29   1.496086 S    
P9    O41   1.756670 S    
N9    O65   1.299454 A    
O2    Ba2   2.994582 S    
Ba4   O47   3.032061 S    
P2    O2    1.574346 D    
P11   O43   1.738610 S    
C6    C10   1.544222 S    
C7    N11   1.451478 S    
C28   H44   1.108158 S    
C39   Cl19  1.761051 S    
N2    O51   1.296962 A    
C33   C65   1.394218 A    
C15   C19   1.512017 S    
P5    C62   1.950434 S    
H2    C30   1.108241 S    
C59   C63   1.493439 A    
C36   C68   1.391650 A    
C17   H29   1.103353 S    
C9    N3    1.455189 S    
N8    O64   1.295019 A    
O24   C32   1.392973 S    
O40   C15   1.397796 S    
C23   H39   1.111194 S    
N10   O68   1.299825 A    
P16   C47   1.911512 S    
Ba3   O47   2.979723 S    
P10   O30   1.780502 S    
O11   Ba3   2.937856 S    
Ba2   O46   2.943707 S    
O12   P15   1.771030 S    
P11   O35   1.544241 D    
O17   C21   1.392446 S    
C41   C59   1.430130 A    
C26   Cl10  1.793663 S    
C37   C45   1.400919 A    
C35   C67   1.393059 A    
C26   H42   1.106063 S    
C25   Cl9   1.766080 S    
C38   C50   1.417137 A    
P1    C49   1.970163 S    
N1    O49   1.299551 A    
C51   C55   1.496932 A    
C53   C71   1.439964 A    
C11   N1    1.461593 S    
C40   Cl20  1.766058 S    
C24   H36   1.110666 S    
Ba1   O46   3.035962 S    
C66   C70   1.415695 A    
C31   H51   1.103647 S    
C53   C59   1.473523 A    
O42   C6    1.417708 S    
N5    O57   1.290555 A    
O32   Ba4   2.937214 S    
C10   N4    1.456465 S    
P9    O33   1.547172 D    
C56   C70   1.424742 A    
C22   H34   1.109447 S    
O12   Ba4   2.918607 S    
C44   C48   1.421202 A    
C43   C47   1.430189 A    
C16   Cl24  1.765920 S    
C4    Cl14  1.761725 S    
P12   O44   1.768781 S    
P6    O26   1.574677 D    
N6    O60   1.296164 A    
O23   P16   1.745188 S    
C40   C52   1.412542 A    
P1    O5    1.678207 S    
N4    O55   1.297073 A    
O24   P15   1.730755 S    
C3    C31   1.514655 S    
O9    P14   1.775905 S    
P8    O40   1.738728 S    
O28   Ba4   3.027923 S    
Ba3   O48   3.035962 S    
C18   Cl6   1.784193 S    
C14   C18   1.491518 S    
C9    H19   1.092970 S    
C17   Cl5   1.778030 S    
C5    C9    1.521769 S    
P6    O45   1.683646 S    
C21   H33   1.108114 S    
C27   Cl11  1.764229 S    
O37   C14   1.393060 S    
P8    Ba4   3.570155 S    
C33   C61   1.394665 A    
O20   C24   1.387619 S    
C23   H35   1.110071 S    
N9    O66   1.290891 A    
P12   O36   1.548844 D    
O39   C16   1.396139 S    
P10   O34   1.549219 D    
C44   C58   1.418080 A    
C2    H8    1.093183 S    
C4    H12   1.103018 S    
P11   O31   1.763602 S    
P4    C52   1.957536 S    
C13   C17   1.517609 S    
P2    O6    1.655317 S    
C54   C60   1.466059 A    
C20   H32   1.092041 S    
C8    N12   1.457856 S    
N10   O67   1.289361 A    
C38   C46   1.402735 A    
P7    O27   1.573636 D    
C50   C54   1.485121 A    
C25   H45   1.101193 S    
O5    Ba2   2.979752 S    
C72   N6    1.421902 S    
C16   C20   1.509118 S    
N8    O63   1.295726 A    
P2    Ba2   3.554853 S    
C5    H13   1.112541 S    
C24   H40   1.110962 S    
Ba3   Ba4   4.758041 S    
O27   Ba3   2.998008 S    
O7    Ba4   2.979752 S    
O30   Ba2   2.937214 S    
C5    N9    1.460301 S    
C67   C71   1.424100 A    
Ba2   O45   3.032061 S    
C32   H52   1.109870 S    
C27   H47   1.100101 S    
P7    C64   1.954744 S    
C55   C69   1.437888 A    
P8    C63   1.968125 S    
C19   H31   1.097407 S    
C8    H16   1.108681 S    
N3    O54   1.292595 A    
C65   C69   1.423532 A    
H4    C32   1.105111 S    
C71   N5    1.422536 S    
N1    O50   1.297391 A    
C11   H23   1.078568 S    
C6    H14   1.109437 S    
N4    O56   1.289945 A    
C13   Cl21  1.766256 S    
C10   H22   1.096640 S    
C68   C72   1.417285 A    
C1    H9    1.086252 S    
C39   C47   1.406303 A    
N12   O71   1.290789 A    
P6    Ba2   3.570155 S    
C18   Cl2   1.749596 S    
H3    C31   1.106833 S    
N5    O58   1.297703 A    
C17   Cl1   1.769771 S    
P2    O18   1.698252 S    
C28   Cl12  1.789560 S    
P14   C45   1.908148 S    
O43   C7    1.394521 S    
C2    Cl16  1.754729 S    
C2    C30   1.476410 S    
C49   C53   1.495019 A    
P3    C51   1.983849 S    
C14   Cl22  1.763398 S    
O1    Ba1   3.024205 S    
P4    O20   1.698883 S    
P7    Ba3   3.557078 S    
C16   H28   1.109083 S    
C21   C25   1.504430 S    
C4    H6    1.088273 S    
N6    O59   1.298050 A    
O4    Ba4   2.994582 S    
O3    Ba3   3.024205 S    
C18   H30   1.091594 S    
C15   H27   1.106261 S    
C40   C48   1.398425 A    
P10   O42   1.768696 S    
C11   H17   1.067326 S    
C69   N7    1.416824 S    
C35   H59   1.078143 S    
C19   Cl3   1.761844 S    
P15   C48   1.883731 S    
P3    O7    1.678207 S    
O19   C23   1.392415 S    
P8    O47   1.683646 S    
C22   H38   1.111803 S    
C25   H41   1.106876 S    
O18   C22   1.379855 S    
C42   C46   1.419569 A    
C21   H37   1.111807 S    
C26   H46   1.107461 S    
C20   Cl8   1.777292 S    
O23   C31   1.412040 S    
O11   P16   1.768349 S    
C24   C28   1.496326 S    
C44   H54   1.074629 S    
C42   H56   1.069772 S    
O31   Ba3   2.918007 S    
C22   C26   1.497014 S    
C14   H26   1.108567 S    
O16   P15   1.534716 D    
O21   C29   1.402551 S    
C12   H24   1.096060 S    
Ba1   Ba2   4.758041 S    
P10   C65   1.900431 S    
C7    H15   1.108908 S    
C58   C62   1.480153 A    
C1    Cl15  1.747683 S    
O8    Ba3   2.943735 S    
C29   H49   1.102960 S    
C60   C64   1.481567 A    
O14   P13   1.533807 D    
C54   C72   1.433752 A    
C3    Cl13  1.772691 S    
