data_mof_unit_52344.cif
_audit_creation_date              2012-12-11T14:40:59-0500
_audit_creation_method            fapswitch 2.2
_symmetry_space_group_name_H-M    P1
_symmetry_Int_Tables_number       1
_space_group_crystal_system       triclinic
_cell_length_a                    6.937752
_cell_length_b                    17.801331
_cell_length_c                    18.940615
_cell_angle_alpha                 89.999768
_cell_angle_beta                  90.027922
_cell_angle_gamma                 90.030928
_cell_volume                      2339.18843669

loop_
_atom_site_label
_atom_site_type_symbol
_atom_type_description
_atom_site_fract_x
_atom_site_fract_y
_atom_site_fract_z
_atom_type_partial_charge
O1    O     O_R   0.377350 0.828520 0.186660 -0.542237
O2    O     O_R   0.622650 0.171480 0.813340 -0.542233
O3    O     O_R   0.122650 0.171480 0.686660 -0.542035
O4    O     O_R   0.877350 0.828520 0.313340 -0.542023
O5    O     O_R   0.877350 0.671480 0.313340 -0.541857
O6    O     O_R   0.122650 0.328520 0.686660 -0.541864
O7    O     O_R   0.622650 0.328520 0.813340 -0.540377
O8    O     O_R   0.377350 0.671480 0.186660 -0.540381
O9    O     O_R   0.707090 0.671930 0.178410 -0.538884
O10   O     O_R   0.292910 0.328070 0.821590 -0.538881
O11   O     O_R   0.792910 0.328070 0.678410 -0.538318
O12   O     O_R   0.207090 0.671930 0.321590 -0.538317
O13   O     O_R   0.207090 0.828070 0.321590 -0.538593
O14   O     O_R   0.792910 0.171930 0.678410 -0.538593
O15   O     O_R   0.292910 0.171930 0.821590 -0.538832
O16   O     O_R   0.707090 0.828070 0.178410 -0.538834
C1    C     C_R   0.539841 0.645551 0.161511 0.725406
C2    C     C_R   0.460159 0.354449 0.838489 0.725410
C3    C     C_R   0.960031 0.354488 0.661508 0.728355
C4    C     C_R   0.039968 0.645512 0.338493 0.728361
C5    C     C_R   0.040024 0.854483 0.338501 0.725367
C6    C     C_R   0.959975 0.145516 0.661500 0.725357
C7    C     C_R   0.460017 0.145504 0.838483 0.723829
C8    C     C_R   0.539982 0.854496 0.161517 0.723830
O17   O     O_3   0.543850 0.750000 0.294270 -0.367937
O18   O     O_3   0.456150 0.250000 0.705730 -0.367947
O19   O     O_3   0.956150 0.250000 0.794270 -0.368092
O20   O     O_3   0.043850 0.750000 0.205730 -0.368102
V1    V     V_3+5 0.818700 0.750000 0.241790 1.410323
V2    V     V_3+5 0.181300 0.250000 0.758210 1.410276
V3    V     V_3+5 0.681300 0.250000 0.741790 1.411885
V4    V     V_3+5 0.318700 0.750000 0.258210 1.411936
C9    C     C_R   0.956189 0.416111 0.608162 -0.158671
C10   C     C_R   0.043807 0.583891 0.391840 -0.158792
C11   C     C_R   0.543182 0.583979 0.108218 -0.162178
C12   C     C_R   0.456819 0.416021 0.891782 -0.162181
C13   C     C_R   0.456180 0.083872 0.891818 -0.158795
C14   C     C_R   0.543820 0.916128 0.108181 -0.158785
C15   C     C_R   0.043928 0.916089 0.391867 -0.158730
C16   C     C_R   0.956066 0.083907 0.608136 -0.158558
C17   C     C_R   0.231225 0.484755 0.451540 0.532351
C18   C     C_R   0.768753 0.515252 0.548465 0.532416
C19   C     C_R   0.271186 0.515241 0.950704 0.534309
C20   C     C_R   0.728817 0.484759 0.049296 0.534298
C21   C     C_R   0.731236 0.015305 0.048524 0.533352
C22   C     C_R   0.268766 0.984696 0.951476 0.533348
C23   C     C_R   0.768620 0.984715 0.548406 0.533404
C24   C     C_R   0.231348 0.015274 0.451601 0.533312
C25   C     C_R   0.210484 0.539208 0.397749 -0.245207
C26   C     C_R   0.789511 0.460796 0.602258 -0.245341
C27   C     C_R   0.291124 0.461357 0.897115 -0.234793
C28   C     C_R   0.708879 0.538644 0.102884 -0.234797
C29   C     C_R   0.710534 0.960861 0.102308 -0.246788
C30   C     C_R   0.289467 0.039139 0.897691 -0.246779
C31   C     C_R   0.789332 0.039196 0.602191 -0.247226
C32   C     C_R   0.210661 0.960798 0.397818 -0.247040
C33   C     C_R   0.895215 0.573923 0.440902 -0.209209
C34   C     C_R   0.104776 0.426080 0.559100 -0.209460
C35   C     C_R   0.604826 0.425576 0.941419 -0.197519
C36   C     C_R   0.395174 0.574422 0.058582 -0.197520
C37   C     C_R   0.395172 0.926062 0.059086 -0.210252
C38   C     C_R   0.604828 0.073938 0.940914 -0.210228
C39   C     C_R   0.104747 0.073952 0.559116 -0.209209
C40   C     C_R   0.895239 0.926043 0.440886 -0.208860
C41   C     C_R   0.914981 0.522150 0.497161 -0.009253
C42   C     C_R   0.085004 0.477856 0.502845 -0.009381
C43   C     C_R   0.584563 0.477627 0.997433 -0.012989
C44   C     C_R   0.415438 0.522371 0.002568 -0.012994
C45   C     C_R   0.414965 0.977837 0.002828 -0.009608
C46   C     C_R   0.585035 0.022163 0.997172 -0.009600
C47   C     C_R   0.085025 0.022160 0.502864 -0.009762
C48   C     C_R   0.914953 0.977832 0.497144 -0.009578
H1    H     H_    0.231863 0.391010 0.563242 0.180034
H2    H     H_    0.768129 0.608993 0.436756 0.180061
H3    H     H_    0.268463 0.609792 0.062002 0.175767
H4    H     H_    0.731536 0.390206 0.937999 0.175767
H5    H     H_    0.731954 0.109040 0.936811 0.179142
H6    H     H_    0.268046 0.890960 0.063189 0.179139
H7    H     H_    0.768096 0.890955 0.436706 0.180104
H8    H     H_    0.231891 0.109040 0.563290 0.180068
H9    H     H_    0.672971 0.451826 0.639206 0.131287
H10   H     H_    0.327051 0.548171 0.360810 0.131361
H11   H     H_    0.826107 0.545599 0.140144 0.138774
H12   H     H_    0.173899 0.454405 0.859854 0.138772
H13   H     H_    0.172781 0.048036 0.860752 0.131001
H14   H     H_    0.827218 0.951963 0.139249 0.130998
H15   H     H_    0.327295 0.951849 0.360915 0.130654
H16   H     H_    0.672739 0.048154 0.639109 0.130546
O21   O     O_3   0.398591 0.442240 0.459698 -0.541331
C49   C     C_3   0.475579 0.418176 0.394549 -0.263579
H17   H     H_    0.568110 0.462695 0.371299 0.145294
H18   H     H_    0.361642 0.400096 0.356703 0.112254
H19   H     H_    0.569352 0.368841 0.404484 0.163008
O22   O     O_3   0.601416 0.557791 0.540299 -0.541366
C50   C     C_3   0.523903 0.581616 0.605441 -0.263345
H20   H     H_    0.637533 0.599617 0.643444 0.112228
H21   H     H_    0.431312 0.536988 0.628474 0.145394
H22   H     H_    0.430081 0.630948 0.595557 0.163003
O23   O     O_3   0.102807 0.556499 0.955724 -0.535917
C51   C     C_3   0.106311 0.613704 0.904292 -0.293325
H23   H     H_    0.100744 0.589992 0.849990 0.127426
H24   H     H_    0.235121 0.650495 0.910577 0.128234
H25   H     H_    0.976696 0.649393 0.911318 0.170356
O24   O     O_3   0.897203 0.443507 0.044271 -0.535916
C52   C     C_3   0.893736 0.386307 0.095709 -0.293354
H26   H     H_    0.764969 0.349495 0.089415 0.128252
H27   H     H_    0.899245 0.410024 0.150009 0.127408
H28   H     H_    0.023394 0.350640 0.088695 0.170360
O25   O     O_3   0.898724 0.057790 0.040459 -0.540856
C53   C     C_3   0.973579 0.082855 0.105649 -0.270886
H29   H     H_    0.065892 0.038830 0.129795 0.146229
H30   H     H_    0.858411 0.101176 0.142833 0.110275
H31   H     H_    0.067081 0.132264 0.095546 0.161381
O26   O     O_3   0.101275 0.942213 0.959540 -0.540855
C54   C     C_3   0.026471 0.917125 0.894350 -0.270891
H32   H     H_    0.141668 0.898796 0.857182 0.110286
H33   H     H_    0.934168 0.961139 0.870183 0.146216
H34   H     H_    0.932970 0.867717 0.904459 0.161389
O27   O     O_3   0.601263 0.942124 0.540210 -0.541144
C55   C     C_3   0.523515 0.918346 0.605342 -0.264387
H35   H     H_    0.430903 0.962975 0.628295 0.145019
H36   H     H_    0.637003 0.900411 0.643410 0.110636
H37   H     H_    0.429666 0.868980 0.595463 0.163263
O28   O     O_3   0.398748 0.057832 0.459784 -0.541092
C56   C     C_3   0.475748 0.081948 0.394642 -0.264679
H38   H     H_    0.361822 0.099994 0.356795 0.110687
H39   H     H_    0.568274 0.037474 0.371380 0.144856
H40   H     H_    0.569526 0.131319 0.404590 0.163290

loop_
_geom_bond_atom_site_label_1
_geom_bond_atom_site_label_2
_ccdc_geom_bond_type
C33   H2    S    
C17   O21   S    
C9    C34   A    
C28   H11   S    
C38   H5    S    
C50   H20   S    
O14   V3    S    
C12   C35   A    
C19   C27   A    
C13   C38   A    
C20   O24   S    
C50   H22   S    
O5    C4    A    
C15   C40   A    
C52   H27   S    
O11   C3    A    
C16   C39   A    
C49   H19   S    
O20   V1    S    
C19   O23   S    
C21   O25   S    
C54   H32   S    
C38   C46   A    
C31   H16   S    
C53   H29   S    
C22   C45   A    
O13   V4    S    
C35   C43   A    
C34   C42   A    
C15   C32   A    
C19   C44   A    
C54   H33   S    
C18   C41   A    
C8    C14   S    
C29   H14   S    
O4    V1    S    
C55   H37   S    
O9    V1    S    
C14   C37   A    
C4    C10   S    
C54   H34   S    
O17   V4    S    
O15   C7    A    
O11   V3    S    
O18   V3    S    
O16   C8    A    
O12   V4    S    
O19   V2    S    
C22   C30   A    
C45   C46   A    
C17   C25   A    
O24   C52   S    
C55   H36   S    
O26   C54   S    
O5    V1    S    
C39   H8    S    
O17   V1    S    
C52   H28   S    
O7    V3    S    
C22   O26   S    
O19   V3    S    
C43   C44   A    
O8    V4    S    
O20   V4    S    
C3    C9    S    
C32   H15   S    
O16   V1    S    
C7    C13   S    
C51   H25   S    
O2    V3    S    
C25   H10   S    
O3    V2    S    
O6    C3    A    
C10   C33   A    
O10   V2    S    
C49   H18   S    
O23   C51   S    
C5    C15   S    
C37   H6    S    
O7    C2    A    
C6    C16   S    
O12   C4    A    
C51   H24   S    
O13   C5    A    
C53   H31   S    
C12   C27   A    
C18   C26   A    
C13   C30   A    
O9    C1    A    
O6    V2    S    
C39   C47   A    
O18   V2    S    
C56   H38   S    
C40   H7    S    
C24   C47   A    
C11   C28   A    
C55   H35   S    
O15   V2    S    
C23   C31   A    
C26   H9    S    
C37   C45   A    
C24   C32   A    
C10   C25   A    
C21   C46   A    
C18   O22   S    
C33   C41   A    
C20   C43   A    
C16   C31   A    
C24   O28   S    
C30   H13   S    
O27   C55   S    
C50   H21   S    
C17   C42   A    
C52   H26   S    
C36   H3    S    
O8    C1    A    
O14   C6    A    
C9    C26   A    
C47   C48   A    
O25   C53   S    
O4    C5    A    
C20   C28   A    
C49   H17   S    
C14   C29   A    
O10   C2    A    
C56   H40   S    
C35   H4    S    
C23   O27   S    
C51   H23   S    
O1    V4    S    
O22   C50   S    
C53   H30   S    
C23   C48   A    
C40   C48   A    
C21   C29   A    
C36   C44   A    
O1    C8    A    
C41   C42   A    
O2    C7    A    
C56   H39   S    
C11   C36   A    
O3    C6    A    
C1    C11   S    
O21   C49   S    
C2    C12   S    
C27   H12   S    
C34   H1    S    
O28   C56   S    
