data_mof_unit_65673.cif
_audit_creation_date              2012-12-10T19:37:33-0500
_audit_creation_method            fapswitch 2.2
_symmetry_space_group_name_H-M    P1
_symmetry_Int_Tables_number       1
_space_group_crystal_system       triclinic
_cell_length_a                    13.889055
_cell_length_b                    15.822207
_cell_length_c                    17.11947
_cell_angle_alpha                 96.473052
_cell_angle_beta                  89.935808
_cell_angle_gamma                 82.45964
_cell_volume                      3705.3059641

loop_
_atom_site_label
_atom_site_type_symbol
_atom_type_description
_atom_site_fract_x
_atom_site_fract_y
_atom_site_fract_z
_atom_type_partial_charge
C1    C     C_R   0.498928 0.510533 0.651466 0.799893
C2    C     C_R   0.501072 0.489467 0.348533 0.799894
C3    C     C_R   0.486740 0.600904 0.865076 -0.206858
C4    C     C_R   0.513260 0.399096 0.134924 -0.206857
C5    C     C_R   0.487656 0.596280 0.783328 -0.204130
C6    C     C_R   0.512344 0.403720 0.216672 -0.204129
C7    C     C_R   0.458979 0.252201 0.543072 -0.056403
C8    C     C_R   0.541020 0.747799 0.456927 -0.056404
C9    C     C_R   0.461464 0.162671 0.540856 -0.285298
C10   C     C_R   0.538534 0.837329 0.459143 -0.285298
C11   C     C_R   0.518194 0.107215 0.483017 0.339810
C12   C     C_R   0.481806 0.892785 0.516983 0.339810
C13   C     C_R   0.571103 0.144624 0.429666 -0.410643
C14   C     C_R   0.428897 0.855376 0.570334 -0.410642
C15   C     C_R   0.569282 0.234713 0.434909 0.627056
C16   C     C_R   0.430719 0.765287 0.565091 0.627056
C17   C     C_R   0.316152 0.513607 0.500608 0.815295
C18   C     C_R   0.683848 0.486393 0.499392 0.815295
C19   C     C_1   0.787309 0.478294 0.498444 -0.185151
C20   C     C_1   0.212691 0.521706 0.501556 -0.185151
C21   C     C_2   0.978314 0.464629 0.496120 -0.158324
C22   C     C_2   0.021686 0.535371 0.503880 -0.158324
C23   C     C_1   0.125577 0.528487 0.502618 0.002474
C24   C     C_1   0.874423 0.471513 0.497382 0.002474
C25   C     C_R   0.497627 0.516165 0.737523 -0.033155
C26   C     C_R   0.502373 0.483835 0.262477 -0.033155
C27   C     C_R   0.506193 0.440926 0.774589 -0.242335
C28   C     C_R   0.493807 0.559074 0.225410 -0.242335
C29   C     C_R   0.505368 0.445539 0.856106 -0.156165
C30   C     C_R   0.494631 0.554461 0.143894 -0.156165
C31   C     C_R   0.495797 0.526027 0.902204 0.386074
C32   C     C_R   0.504203 0.473973 0.097796 0.386074
Cu1   Cu    Cu3+1 0.495370 0.585120 0.503830 0.975960
Cu2   Cu    Cu3+1 0.504630 0.414880 0.496170 0.975960
H1    H     H_    0.979475 0.598708 0.511260 0.154976
H2    H     H_    0.020524 0.401292 0.488740 0.154976
H3    H     H_    0.486193 0.621722 0.259322 0.161030
H4    H     H_    0.513806 0.378278 0.740678 0.161030
H5    H     H_    0.487697 0.613893 0.117388 0.152313
H6    H     H_    0.512303 0.386107 0.882612 0.152313
H7    H     H_    0.479120 0.663102 0.899773 0.142189
H8    H     H_    0.520880 0.336898 0.100227 0.142189
H9    H     H_    0.480515 0.655315 0.756135 0.192282
H10   H     H_    0.519486 0.344685 0.243865 0.192281
H11   H     H_    0.585766 0.705993 0.412927 0.152903
H12   H     H_    0.414231 0.294007 0.587072 0.152903
H13   H     H_    0.581290 0.862384 0.416404 0.165603
H14   H     H_    0.418707 0.137616 0.583594 0.165603
H15   H     H_    0.612804 0.103553 0.383296 0.150677
H16   H     H_    0.387197 0.896447 0.616705 0.150677
N1    N     N_2   0.494947 0.534726 0.985547 -0.267484
N2    N     N_2   0.505052 0.465274 0.014453 -0.267484
N3    N     N_R   0.511590 0.287020 0.490400 -0.196893
N4    N     N_R   0.488410 0.712980 0.509600 -0.196892
N5    N     N_2   0.524107 0.015056 0.475227 -0.227344
N6    N     N_2   0.475893 0.984944 0.524773 -0.227344
O1    O     O_R   0.495670 0.579790 0.617520 -0.532860
O2    O     O_R   0.504330 0.420210 0.382480 -0.532862
O3    O     O_R   0.503490 0.436020 0.611040 -0.603669
O4    O     O_R   0.496510 0.563980 0.388960 -0.603670
O5    O     O_R   0.357690 0.582040 0.503680 -0.559336
O6    O     O_R   0.642310 0.417960 0.496320 -0.559334
O7    O     O_R   0.365510 0.438280 0.497200 -0.578764
O8    O     O_R   0.634490 0.561720 0.502800 -0.578764
O9    O     O_3   0.617967 0.271182 0.379540 -0.565852
C33   C     C_3   0.719179 0.247473 0.384854 0.049164
H17   H     H_    0.740060 0.178322 0.364149 0.128643
H18   H     H_    0.744269 0.261163 0.446271 0.149765
C34   C     C_3   0.771187 0.299046 0.332322 -0.759313
H19   H     H_    0.750751 0.368801 0.349935 0.245966
H20   H     H_    0.851017 0.282979 0.337489 0.196936
H21   H     H_    0.750804 0.283792 0.270097 0.240965
O10   O     O_3   0.382035 0.728819 0.620462 -0.565853
C35   C     C_3   0.280823 0.752527 0.615147 0.049163
H22   H     H_    0.255732 0.738837 0.553730 0.149765
H23   H     H_    0.259942 0.821677 0.635853 0.128644
C36   C     C_3   0.228816 0.700952 0.667679 -0.759313
H24   H     H_    0.249200 0.716205 0.729904 0.240966
H25   H     H_    0.148986 0.717019 0.662513 0.196935
H26   H     H_    0.249252 0.631198 0.650065 0.245965

loop_
_geom_bond_atom_site_label_1
_geom_bond_atom_site_label_2
_ccdc_geom_bond_type
C33   H18   S    
N5    N6    D    
C27   C29   A    
O10   C35   S    
C21   H2    S    
C14   H16   S    
C36   H24   S    
C22   H1    S    
C35   H23   S    
C15   N3    A    
C1    O3    A    
C2    O4    A    
C33   C34   S    
C27   H4    S    
C15   O9    S    
Cu2   O6    S    
C17   C20   S    
C18   C19   S    
C34   H20   S    
C8    H11   S    
C32   N2    S    
C17   O5    A    
C35   C36   S    
C33   H17   S    
C5    H9    S    
C6    H10   S    
C21   C22   D    
C1    C25   S    
C36   H25   S    
C35   H22   S    
C16   O10   S    
C7    H12   S    
C4    C6    A    
C8    N4    A    
C18   O6    A    
N1    N2    D    
C34   H21   S    
C1    O1    A    
C20   C23   T    
Cu1   Cu2   S    
C2    C26   S    
C12   N6    S    
C3    C31   A    
C9    C11   A    
C13   H15   S    
C10   C12   A    
C9    H14   S    
C5    C25   A    
C8    C10   A    
C12   C14   A    
Cu1   O4    S    
C13   C15   A    
Cu2   O3    S    
C14   C16   A    
C7    N3    A    
C11   N5    S    
C36   H26   S    
Cu1   N4    S    
C7    C9    A    
C3    H7    S    
Cu1   O1    S    
C31   N1    S    
C3    C5    A    
C2    O2    A    
C25   C27   A    
C26   C28   A    
C28   C30   A    
C19   C24   T    
C29   C31   A    
C17   O7    A    
C30   C32   A    
C11   C13   A    
C18   O8    A    
C6    C26   A    
C4    H8    S    
C28   H3    S    
Cu1   O8    S    
C29   H6    S    
Cu2   O7    S    
C30   H5    S    
C34   H19   S    
C16   N4    A    
C4    C32   A    
Cu2   N3    S    
Cu1   O5    S    
O9    C33   S    
C21   C24   S    
C10   H13   S    
Cu2   O2    S    
C22   C23   S    
