data_mof_unit_12604.cif
_audit_creation_date              2013-03-05T16:26:13-0500
_audit_creation_method            fapswitch 2.2
_symmetry_space_group_name_H-M    P1
_symmetry_Int_Tables_number       1
_space_group_crystal_system       triclinic
_cell_length_a                    18.627127
_cell_length_b                    18.274394
_cell_length_c                    18.503051
_cell_angle_alpha                 119.665681
_cell_angle_beta                  89.438628
_cell_angle_gamma                 61.114119
_cell_volume                      4528.3104998

loop_
_atom_site_label
_atom_site_type_symbol
_atom_site_description
_atom_site_fract_x
_atom_site_fract_y
_atom_site_fract_z
_atom_type_partial_charge
Zn1   Zn    Zn3+2 0.043370 0.413240 0.543370 1.096676
Zn2   Zn    Zn3+2 0.869870 0.586760 0.543380 1.169143
Zn3   Zn    Zn3+2 0.043360 0.413260 0.369880 1.166629
Zn4   Zn    Zn3+2 0.043390 0.586740 0.543370 1.128973
O1    O     O_3   0.000000 0.500000 0.500000 -0.586900
O2    O     O_R   0.944950 0.731580 0.615800 -0.569296
O3    O     O_R   0.115780 0.268410 0.444920 -0.620073
O4    O     O_R   0.823470 0.560720 0.615800 -0.566752
O5    O     O_R   0.115800 0.439290 0.323490 -0.585075
O6    O     O_R   0.823460 0.560740 0.444930 -0.594989
O7    O     O_R   0.115830 0.560690 0.615790 -0.633757
O8    O     O_R   0.944900 0.439310 0.323490 -0.577177
O9    O     O_R   0.115810 0.439260 0.615790 -0.623282
O10   O     O_R   0.944910 0.439280 0.615800 -0.618679
O11   O     O_R   0.115820 0.560710 0.444920 -0.584885
O12   O     O_R   0.823500 0.731590 0.615800 -0.570419
O13   O     O_R   0.115770 0.268420 0.323490 -0.554033
C1    C     C_R   0.860372 0.780056 0.642134 0.927106
C2    C     C_R   0.137042 0.221111 0.360573 0.950367
C3    C     C_R   0.861764 0.500442 0.640937 0.932273
C4    C     C_R   0.140473 0.500114 0.360138 0.909381
C5    C     C_R   0.861499 0.498994 0.359091 0.941362
C6    C     C_R   0.138568 0.501514 0.641866 0.841914
C7    C     C_R   0.172600 0.659671 0.725538 0.332434
C8    C     C_R   0.139127 0.756181 0.800087 -0.293846
C9    C     C_R   0.179186 0.763815 0.863703 0.307780
C10   C     C_R   0.256734 0.674968 0.843116 0.266076
C11   C     C_R   0.260853 0.582706 0.792759 -0.082972
C12   C     C_R   0.211739 0.578319 0.735157 -0.040312
C13   C     C_R   0.310334 0.496764 0.796949 -0.044356
C14   C     C_R   0.301093 0.414210 0.749825 -0.065009
C15   C     C_R   0.230091 0.428935 0.719273 -0.011565
C16   C     C_R   0.193443 0.502977 0.699585 -0.060800
C17   C     C_R   0.359355 0.317388 0.732875 0.263072
C18   C     C_R   0.328291 0.258195 0.726869 0.241453
C19   C     C_R   0.245336 0.286693 0.717326 0.221419
C20   C     C_R   0.198734 0.369644 0.711313 -0.218220
H1    H     H_    0.097532 0.822732 0.800154 0.217687
H2    H     H_    0.134610 0.391566 0.707754 0.249516
C21   C     C_R   0.228899 0.056885 0.339490 -0.107535
C22   C     C_R   0.186885 0.111028 0.305332 -0.195392
C23   C     C_R   0.196021 0.054410 0.215952 0.283307
C24   C     C_R   0.270017 0.952394 0.160452 0.313177
C25   C     C_R   0.304629 0.895022 0.197259 -0.180869
C26   C     C_R   0.275608 0.952091 0.290567 -0.005139
C27   C     C_3   0.316077 0.960377 0.363279 0.328884
C28   C     C_3   0.264215 0.076878 0.412976 0.142808
H3    H     H_    0.213953 0.120214 0.476841 0.163216
C29   C     C_R   0.180968 0.580677 0.306149 -0.051154
C30   C     C_R   0.201900 0.493986 0.302890 -0.170292
C31   C     C_R   0.278019 0.398565 0.234459 0.228894
C32   C     C_R   0.332606 0.396578 0.177747 0.208615
C33   C     C_R   0.311686 0.488133 0.189791 -0.171224
C34   C     C_R   0.234961 0.576477 0.251142 -0.113886
C35   C     C_3   0.213481 0.680808 0.311595 0.415138
C36   C     C_3   0.154712 0.687651 0.376807 0.299340
C37   C     C_R   0.815699 0.953785 0.689353 -0.085273
C38   C     C_R   0.803488 0.892522 0.704449 -0.125131
C39   C     C_R   0.734040 0.945070 0.782310 0.223402
C40   C     C_R   0.686817 0.054102 0.842514 0.184127
C41   C     C_R   0.695294 0.110620 0.814835 -0.160080
C42   C     C_R   0.766478 0.056745 0.742590 -0.120232
C43   C     C_3   0.812075 0.068527 0.685825 0.467379
C44   C     C_3   0.869140 0.948590 0.624472 0.380098
C45   C     C_R   0.719630 0.565694 0.337035 -0.093633
C46   C     C_R   0.808676 0.494391 0.299900 -0.169485
C47   C     C_R   0.843292 0.421346 0.206737 0.323885
C48   C     C_R   0.786041 0.409135 0.159009 0.302564
C49   C     C_R   0.696810 0.491025 0.195328 -0.166720
C50   C     C_R   0.665682 0.568201 0.285602 -0.059148
C51   C     C_3   0.617391 0.682374 0.334962 0.384793
C52   C     C_3   0.670268 0.679450 0.398418 0.293384
C53   C     C_R   0.741931 0.491846 0.678047 -0.138097
C54   C     C_R   0.809549 0.499675 0.698731 -0.149429
C55   C     C_R   0.823514 0.508248 0.776959 0.226010
C56   C     C_R   0.764662 0.514499 0.834034 0.294259
C57   C     C_R   0.694726 0.506776 0.809286 -0.137634
C58   C     C_R   0.684832 0.499290 0.731435 -0.071743
C59   C     C_3   0.628592 0.500655 0.672534 0.280050
C60   C     C_3   0.698609 0.486226 0.610493 0.440857
Zn5   Zn    Zn3+2 0.456670 0.586670 0.956580 1.101511
Zn6   Zn    Zn3+2 0.456680 0.586650 0.130080 1.165696
Zn7   Zn    Zn3+2 0.630180 0.413150 0.956570 1.127764
Zn8   Zn    Zn3+2 0.456650 0.413170 0.956580 1.140753
O14   O     O_3   0.500040 0.499910 0.999960 -0.581397
O15   O     O_R   0.384230 0.439200 0.055040 -0.613620
O16   O     O_R   0.555130 0.560630 0.884160 -0.628228
O17   O     O_R   0.384270 0.731490 0.176470 -0.582394
O18   O     O_R   0.676550 0.268320 0.884150 -0.584306
O19   O     O_R   0.555150 0.560600 0.176460 -0.580598
O20   O     O_R   0.384220 0.439220 0.884170 -0.610061
O21   O     O_R   0.676580 0.439170 0.055020 -0.604148
O22   O     O_R   0.384230 0.560650 0.884170 -0.636119
O23   O     O_R   0.384260 0.731500 0.055040 -0.593988
O24   O     O_R   0.555100 0.268330 0.884160 -0.551624
O25   O     O_R   0.384250 0.560620 0.176470 -0.580011
O26   O     O_R   0.676570 0.439190 0.884150 -0.585104
C61   C     C_R   0.365467 0.493794 0.138307 0.913882
C62   C     C_R   0.639083 0.500727 0.860093 0.938102
C63   C     C_R   0.361496 0.780963 0.140357 0.962542
C64   C     C_R   0.639112 0.220974 0.863024 0.983687
C65   C     C_R   0.639742 0.497608 0.139975 0.912303
C66   C     C_R   0.361730 0.498601 0.857904 0.793333
S1    S     S_3+6 0.198805 0.218039 0.705329 0.181807
O27   O     O_2   0.159735 0.247690 0.794521 -0.110045
O28   O     O_2   0.128426 0.242573 0.664931 -0.249310
O29   O     O_3   0.274053 0.092119 0.640695 -0.363789
H4    H     H_    0.303158 0.080476 0.587429 0.381720
S2    S     S_3+6 0.344280 0.932666 0.080909 0.192239
O30   O     O_2   0.317076 0.914422 0.000824 -0.141960
O31   O     O_2   0.343876 0.027279 0.120491 -0.146446
O32   O     O_3   0.446349 0.835160 0.051893 -0.469554
H5    H     H_    0.468673 0.792863 0.986700 0.417205
N1    N     N_R   0.286323 0.933185 0.414092 0.218258
O33   O     O_R   0.329126 0.909234 0.462124 -0.193449
O34   O     O_R   0.205588 0.962309 0.432338 -0.257489
N2    N     N_R   0.410213 0.909721 0.333803 0.248740
O35   O     O_R   0.450099 0.874856 0.254848 -0.268643
O36   O     O_R   0.448174 0.927930 0.392668 -0.204096
S3    S     S_3+6 0.324726 0.132277 0.418401 0.110476
O37   O     O_2   0.385265 0.077825 0.328724 -0.138556
O38   O     O_2   0.264455 0.242802 0.453911 -0.301034
O39   O     O_3   0.381781 0.125001 0.487247 -0.481415
H6    H     H_    0.403576 0.167689 0.495959 0.416347
S4    S     S_3+6 0.306542 0.283593 0.222459 0.154892
O40   O     O_2   0.254454 0.247756 0.172468 -0.168720
O41   O     O_2   0.401136 0.200228 0.173307 -0.123161
O42   O     O_3   0.282864 0.304812 0.321671 -0.528980
H7    H     H_    0.318556 0.328440 0.351427 0.363548
N3    N     N_R   0.413567 0.304491 0.115230 0.244570
O43   O     O_R   0.482211 0.279645 0.139370 -0.241860
O44   O     O_R   0.417378 0.241908 0.036914 -0.250270
N4    N     N_R   0.286927 0.683974 0.338354 0.235909
O45   O     O_R   0.292586 0.759113 0.356926 -0.196403
O46   O     O_R   0.347108 0.612576 0.344295 -0.275351
S5    S     S_3+6 0.163770 0.753597 0.265647 0.117787
O47   O     O_2   0.127182 0.864110 0.332767 -0.152428
O48   O     O_2   0.230386 0.714790 0.186923 -0.342577
O49   O     O_3   0.083782 0.741373 0.233585 -0.476379
H8    H     H_    0.057714 0.786443 0.213193 0.409789
N5    N     N_R   0.185165 0.695983 0.451957 0.255193
O50   O     O_R   0.183516 0.777073 0.506512 -0.174819
O51   O     O_R   0.239366 0.613591 0.447192 -0.297839
S6    S     S_3+6 0.216473 0.638396 0.627348 0.177213
O52   O     O_2   0.142322 0.682632 0.597907 -0.193461
O53   O     O_2   0.261441 0.691884 0.642855 -0.107632
O54   O     O_3   0.287499 0.512879 0.550076 -0.462999
H9    H     H_    0.260379 0.494618 0.504335 0.371008
N6    N     N_R   0.062669 0.764082 0.401958 0.253283
O55   O     O_R   0.010633 0.736109 0.373878 -0.261676
O56   O     O_R   0.034754 0.859359 0.442363 -0.201352
S7    S     S_3+6 0.699962 0.877921 0.800752 0.151899
O57   O     O_2   0.774579 0.796336 0.804330 -0.236177
O58   O     O_2   0.624826 0.946118 0.884062 -0.138230
O59   O     O_3   0.667473 0.823357 0.717259 -0.410551
H10   H     H_    0.623364 0.879950 0.714608 0.392475
N7    N     N_R   0.647108 0.102423 0.934632 0.252490
O60   O     O_R   0.589743 0.200149 0.986488 -0.336890
O61   O     O_R   0.685193 0.055293 0.971070 -0.228653
S8    S     S_3+6 0.738812 0.133971 0.644313 0.156620
O62   O     O_2   0.672490 0.242089 0.719313 -0.262063
O63   O     O_2   0.788683 0.133738 0.579706 -0.143914
O64   O     O_3   0.687995 0.077340 0.595028 -0.449037
H11   H     H_    0.673120 0.093289 0.551162 0.437806
S9    S     S_3+6 0.868446 0.128344 0.737039 0.163915
O65   O     O_2   0.915112 0.089999 0.788796 -0.234468
O66   O     O_2   0.931614 0.107851 0.667232 -0.155503
O67   O     O_3   0.800698 0.254370 0.804887 -0.455465
H12   H     H_    0.838666 0.278733 0.824599 0.416842
N8    N     N_R   0.857231 0.903034 0.538168 0.241952
O68   O     O_R   0.867044 0.927712 0.485665 -0.198715
O69   O     O_R   0.843865 0.831298 0.509832 -0.306481
S10   S     S_3+6 0.979681 0.880005 0.619823 0.152845
O70   O     O_2   0.022588 0.771662 0.543722 -0.225706
O71   O     O_2   0.027481 0.921194 0.606849 -0.144396
O72   O     O_3   0.984092 0.884656 0.712765 -0.526646
H13   H     H_    0.029743 0.896883 0.728237 0.408550
S11   S     S_3+6 0.949605 0.370774 0.146611 0.172540
O73   O     O_2   0.014937 0.280572 0.146187 -0.166304
O74   O     O_2   0.957424 0.338782 0.053331 -0.162737
O75   O     O_3   0.971123 0.460416 0.194444 -0.478388
H14   H     H_    0.034306 0.423571 0.166865 0.395463
S12   S     S_3+6 0.824991 0.287211 0.061421 0.143628
O76   O     O_2   0.848586 0.284306 0.981709 -0.183825
O77   O     O_2   0.903638 0.205656 0.061500 -0.179640
O78   O     O_3   0.747345 0.264191 0.056868 -0.527298
H15   H     H_    0.769641 0.201231 0.997409 0.396928
S13   S     S_3+6 0.642037 0.715332 0.264913 0.127289
O79   O     O_2   0.591810 0.704879 0.201886 -0.290246
O80   O     O_2   0.619373 0.822226 0.318170 -0.098400
O81   O     O_3   0.748477 0.635036 0.206256 -0.515342
H16   H     H_    0.755063 0.649939 0.162825 0.431464
N9    N     N_R   0.524241 0.737922 0.378069 0.242673
O82   O     O_R   0.486912 0.823028 0.455778 -0.204032
O83   O     O_R   0.482605 0.694815 0.348794 -0.238290
N10   N     N_R   0.718419 0.726648 0.406971 0.235379
O84   O     O_R   0.677414 0.825247 0.458507 -0.193782
O85   O     O_R   0.798324 0.674088 0.357827 -0.296161
N11   N     N_R   0.622531 0.713729 0.484846 0.259962
O86   O     O_R   0.577907 0.678232 0.489808 -0.210925
O87   O     O_R   0.619411 0.784634 0.557458 -0.247525
N12   N     N_R   0.895368 0.512971 0.799518 0.243566
O88   O     O_R   0.904643 0.581749 0.805552 -0.347265
O89   O     O_R   0.953334 0.446393 0.811342 -0.246701
S14   S     S_3+6 0.772441 0.545873 0.940240 0.125582
O90   O     O_2   0.830998 0.449349 0.934136 -0.238302
O91   O     O_2   0.809374 0.609118 0.973551 -0.149905
O92   O     O_3   0.673845 0.613414 0.013164 -0.525428
H17   H     H_    0.679350 0.575201 0.038620 0.374716
N13   N     N_R   0.618129 0.415938 0.633156 0.206661
O93   O     O_R   0.579191 0.402944 0.574335 -0.189978
O94   O     O_R   0.648008 0.352567 0.655663 -0.325379
N14   N     N_R   0.545501 0.599501 0.713938 0.229474
O95   O     O_R   0.523373 0.673146 0.795351 -0.282380
O96   O     O_R   0.500437 0.619326 0.665186 -0.165645
S15   S     S_3+6 0.765119 0.363331 0.505691 0.121556
O97   O     O_2   0.842319 0.354281 0.465955 -0.360358
O98   O     O_2   0.796715 0.278094 0.517104 -0.174961
O99   O     O_3   0.706259 0.353997 0.437192 -0.423122
H18   H     H_    0.749068 0.295838 0.377892 0.405248
N15   N     N_R   0.670002 0.572382 0.603534 0.240290
O100  O     O_R   0.635336 0.664089 0.673841 -0.232863
O101  O     O_R   0.691326 0.555379 0.527209 -0.251775
S16   S     S_3+6 0.152166 0.883601 0.947724 0.163592
O102  O     O_2   0.055926 0.951885 0.994804 -0.204519
O103  O     O_2   0.200633 0.871333 0.009419 -0.229621
O104  O     O_3   0.180628 0.931832 0.904594 -0.414183
H19   H     H_    0.134983 0.006437 0.941117 0.423960
S17   S     S_3+6 0.349800 0.670110 0.811706 0.189752
O105  O     O_2   0.329999 0.735628 0.778447 -0.093209
O106  O     O_2   0.379660 0.708171 0.889264 -0.203388
O107  O     O_3   0.427725 0.549069 0.730576 -0.478382
H20   H     H_    0.471595 0.525314 0.757242 0.360088
S18   S     S_3+6 0.470454 0.255605 0.678866 0.116535
O108  O     O_2   0.520634 0.252762 0.741158 -0.244555
O109  O     O_2   0.506846 0.148367 0.602308 -0.161402
O110  O     O_3   0.481832 0.317188 0.640580 -0.469135
H21   H     H_    0.504844 0.353818 0.680878 0.386926
S19   S     S_3+6 0.391950 0.154114 0.735807 0.166214
O111  O     O_2   0.440826 0.056274 0.645471 -0.142989
O112  O     O_2   0.455767 0.166667 0.780992 -0.232788
O113  O     O_3   0.328792 0.147807 0.795010 -0.430747
H22   H     H_    0.368362 0.105982 0.814130 0.413650
S20   S     S_3+6 0.103899 0.093157 0.182021 0.159506
O114  O     O_2   0.127989 0.088020 0.101354 -0.135676
O115  O     O_2   0.077472 0.020923 0.160630 -0.210888
O116  O     O_3   0.017100 0.210888 0.258925 -0.504337
H23   H     H_    0.993776 0.204231 0.302108 0.358421

loop_
_geom_bond_atom_site_label_1
_geom_bond_atom_site_label_2
_geom_bond_distance
_ccdc_geom_bond_type
C21   C28   1.474122 S    
C57   C58   1.400771 A    
C35   C36   1.537033 S    
C48   S12   1.783614 S    
C21   C22   1.368027 A    
N7    O60   1.300706 A    
C12   C16   1.416228 A    
C59   N13   1.464026 S    
C53   C54   1.372109 A    
C41   C64   1.455989 S    
S19   O111  1.502910 D    
S15   O99   1.682692 S    
C51   S13   1.811533 S    
C55   C56   1.437699 A    
S16   O102  1.503932 D    
O22   C66   1.270906 A    
N2    O36   1.296410 A    
S1    O28   1.503805 D    
S11   O73   1.499051 D    
N6    O55   1.302475 A    
O39   H6    0.991012 S    
C60   S15   1.814616 S    
O75   H14   0.990656 S    
S3    O37   1.503291 D    
Zn7   O21   1.965178 S    
O17   C63   1.294919 A    
C2    C22   1.447477 S    
C9    C10   1.406748 A    
S9    O65   1.501940 D    
N12   O89   1.301136 A    
C32   C33   1.414265 A    
S13   O81   1.683066 S    
Zn1   O1    1.960878 S    
C11   C12   1.408811 A    
Zn8   O15   1.959352 S    
S17   O107  1.679757 S    
N5    O51   1.300893 A    
C13   C14   1.420397 A    
Zn6   O17   1.959873 S    
C51   N9    1.465264 S    
N8    O68   1.300135 A    
C29   C34   1.371614 A    
O8    C5    1.291771 A    
S20   O114  1.498484 D    
O9    C6    1.278026 A    
S13   O80   1.501604 D    
C17   C18   1.415732 A    
C22   C23   1.401821 A    
O7    C6    1.288254 A    
O104  H19   0.997577 S    
C7    C12   1.410905 A    
C5    C46   1.478032 S    
Zn3   O8    1.979615 S    
O54   H9    0.987191 S    
O13   C2    1.279372 A    
C60   N15   1.473385 S    
C34   C35   1.479702 S    
N11   O86   1.303287 A    
C1    C38   1.484105 S    
O19   C65   1.311944 A    
O64   H11   0.990482 S    
C48   C49   1.425919 A    
N9    O83   1.300602 A    
O25   C61   1.294758 A    
C13   C66   1.484756 S    
S4    O42   1.681964 S    
C53   C58   1.353570 A    
C7    C8    1.383680 A    
O72   H13   0.989949 S    
C50   C51   1.510261 S    
Zn8   O20   1.971853 S    
Zn2   O12   1.950542 S    
N9    O82   1.300680 A    
S3    O39   1.681547 S    
O21   C65   1.300562 A    
S10   O71   1.496360 D    
C46   C47   1.427597 A    
C39   C40   1.440520 A    
N7    O61   1.301337 A    
N15   O101  1.297749 A    
O110  H21   0.988532 S    
O42   H7    0.990338 S    
Zn7   O26   1.942807 S    
N6    O56   1.300001 A    
C49   C50   1.405128 A    
S18   O109  1.502132 D    
C43   S8    1.798795 S    
S6    O54   1.685409 S    
O2    C1    1.309013 A    
C4    C30   1.476096 S    
O26   C62   1.301258 A    
C55   N12   1.435250 S    
S3    O38   1.500918 D    
O113  H22   0.990526 S    
O15   C61   1.273685 A    
O16   C62   1.300779 A    
S14   O91   1.503428 D    
C21   C26   1.379363 A    
Zn7   O18   1.950542 S    
Zn6   O25   1.945459 S    
N12   O88   1.301278 A    
C27   N1    1.468481 S    
C47   C48   1.421340 A    
C31   S4    1.789812 S    
C28   H3    1.111649 S    
O10   C3    1.289628 A    
C37   C42   1.353555 A    
C18   S19   1.785286 S    
Zn8   O14   1.949652 S    
S6    O53   1.502477 D    
C54   C55   1.417618 A    
S12   O78   1.682580 S    
O20   C66   1.294638 A    
O99   H18   0.989480 S    
C49   C65   1.487674 S    
C58   C59   1.519826 S    
O92   H17   0.988618 S    
C6    C16   1.485138 S    
C8    C9    1.384555 A    
S10   O70   1.493651 D    
Zn6   O19   1.979661 S    
O6    C5    1.315072 A    
C31   C32   1.428994 A    
C27   N2    1.463683 S    
Zn6   O14   1.977077 S    
C40   C41   1.426028 A    
S18   O110  1.682251 S    
S5    O49   1.682102 S    
C57   C62   1.471303 S    
N3    O44   1.300730 A    
S12   O76   1.502869 D    
S8    O64   1.681601 S    
N15   O100  1.303012 A    
Zn3   O5    1.945608 S    
C8    H1    1.080526 S    
C20   H2    1.075573 S    
S12   O77   1.503373 D    
Zn5   O22   1.966367 S    
S11   O74   1.501971 D    
C14   C15   1.400904 A    
S7    O59   1.680364 S    
O23   C63   1.301159 A    
O29   H4    0.990491 S    
S15   O97   1.504979 D    
C42   C43   1.501327 S    
C30   C31   1.429977 A    
C14   C17   1.412676 A    
C3    C54   1.448217 S    
C37   C44   1.487828 S    
S19   O112  1.502594 D    
O12   C1    1.288672 A    
O4    C3    1.301174 A    
C15   C20   1.411398 A    
C56   C57   1.432482 A    
Zn4   O7    1.972108 S    
N11   O87   1.299967 A    
S1    O29   1.678373 S    
Zn5   O16   1.965487 S    
O78   H15   0.991484 S    
C36   N5    1.472343 S    
N10   O85   1.300946 A    
O67   H12   0.989949 S    
Zn7   O14   2.005824 S    
C10   S17   1.769565 S    
N13   O93   1.301162 A    
S9    O67   1.664820 S    
O3    C2    1.288995 A    
C24   C25   1.428654 A    
C9    S16   1.735968 S    
S4    O40   1.502575 D    
C59   C60   1.557893 S    
S2    O32   1.684638 S    
Zn4   O2    1.978806 S    
Zn1   O9    1.966474 S    
S18   O108  1.496100 D    
C17   S18   1.772359 S    
S16   O104  1.683523 S    
C10   C11   1.426633 A    
C56   S14   1.783817 S    
S5    O48   1.502115 D    
S4    O41   1.502123 D    
S7    O58   1.503011 D    
S14   O92   1.682224 S    
C40   N7    1.444459 S    
C36   N6    1.460917 S    
S14   O90   1.501826 D    
C27   C28   1.539170 S    
C19   C20   1.400471 A    
O18   C64   1.281098 A    
Zn1   O3    1.967981 S    
C38   C39   1.437012 A    
Zn2   O4    1.942911 S    
C25   C26   1.419621 A    
S15   O98   1.503198 D    
N10   O84   1.301775 A    
Zn3   O1    1.977076 S    
C47   S11   1.784461 S    
S16   O103  1.498789 D    
S1    O27   1.502376 D    
C52   N10   1.479353 S    
C26   C27   1.526345 S    
N1    O34   1.302976 A    
O49   H8    0.990619 S    
C11   C13   1.430222 A    
C33   C34   1.364737 A    
Zn1   O10   1.965587 S    
C33   C61   1.449376 S    
C45   C52   1.500864 S    
N13   O94   1.297519 A    
S17   O105  1.501820 D    
S20   O116  1.682691 S    
C19   S1    1.775730 S    
S6    O52   1.493287 D    
C32   N3    1.425233 S    
C15   C16   1.424753 A    
Zn4   O11   1.959308 S    
S2    O31   1.503247 D    
N3    O43   1.300627 A    
C44   S10   1.792903 S    
N14   O96   1.301584 A    
C51   C52   1.544504 S    
S17   O106  1.501300 D    
C29   C36   1.517845 S    
C35   N4    1.477002 S    
N2    O35   1.300852 A    
S8    O62   1.499931 D    
C52   N11   1.477431 S    
Zn5   O23   1.968029 S    
C25   C63   1.499280 S    
O5    C4    1.288432 A    
C37   C38   1.391916 A    
N4    O45   1.299278 A    
O11   C4    1.293467 A    
N8    O69   1.301132 A    
C7    S6    1.756303 S    
N14   O95   1.302079 A    
Zn4   O1    1.949650 S    
C23   S20   1.768448 S    
O107  H20   0.988366 S    
S10   O72   1.684107 S    
C53   C60   1.482194 S    
S20   O115  1.501952 D    
Zn3   O13   1.959872 S    
S19   O113  1.681680 S    
O32   H5    0.991031 S    
N1    O33   1.295727 A    
C45   C46   1.387267 A    
C44   N8    1.470284 S    
C41   C42   1.384076 A    
O81   H16   0.990954 S    
C39   S7    1.785484 S    
S11   O75   1.683356 S    
C43   S9    1.816184 S    
C43   C44   1.576394 S    
Zn2   O1    2.005675 S    
O24   C64   1.302065 A    
C59   N14   1.466687 S    
S7    O57   1.502169 D    
S9    O66   1.502905 D    
C29   C30   1.404863 A    
C23   C24   1.422849 A    
S2    O30   1.500871 D    
O59   H10   0.988486 S    
N4    O46   1.304763 A    
C28   S3    1.819205 S    
S5    O47   1.502132 D    
C18   C19   1.417384 A    
C24   S2    1.778396 S    
C45   C50   1.391043 A    
N5    O50   1.300225 A    
Zn8   O24   1.978858 S    
S13   O79   1.498434 D    
Zn5   O14   1.961027 S    
C35   S5    1.815054 S    
O116  H23   0.991200 S    
S8    O63   1.503800 D    
Zn2   O6    1.965281 S    
