data_mof_unit_31265.cif
_audit_creation_date              2012-12-10T17:22:25-0500
_audit_creation_method            fapswitch 2.2
_symmetry_space_group_name_H-M    P1
_symmetry_Int_Tables_number       1
_space_group_crystal_system       triclinic
_cell_length_a                    20.054801
_cell_length_b                    20.003158
_cell_length_c                    19.920843
_cell_angle_alpha                 111.234369
_cell_angle_beta                  106.659904
_cell_angle_gamma                 109.448874
_cell_volume                      6224.18682772

loop_
_atom_site_label
_atom_site_type_symbol
_atom_type_description
_atom_site_fract_x
_atom_site_fract_y
_atom_site_fract_z
_atom_type_partial_charge
C1    C     C_R   0.379689 0.379377 0.500633 0.729915
C2    C     C_3   0.809736 0.499149 0.808722 -0.110962
C3    C     C_3   0.851656 0.567276 0.783479 -0.070737
C4    C     C_3   0.751597 0.526396 0.840753 -0.381597
C5    C     C_R   0.394049 0.394294 0.658170 0.218102
C6    C     C_R   0.402810 0.400954 0.738089 -0.062041
C7    C     C_R   0.335149 0.335352 0.738437 -0.065416
C8    C     C_R   0.265412 0.265742 0.658064 -0.154502
C9    C     C_R   0.257637 0.257351 0.578674 0.018131
C10   C     C_R   0.321866 0.321886 0.578907 0.022733
C11   C     C_R   0.188154 0.186659 0.500007 -0.145359
C12   C     C_R   0.618417 0.498363 0.619293 0.794677
C13   C     C_R   0.178017 0.177804 0.421120 0.030071
C14   C     C_R   0.243075 0.243360 0.420783 -0.012724
C15   C     C_R   0.313346 0.313699 0.500215 -0.132296
C16   C     C_R   0.105456 0.101068 0.343857 -0.126478
C17   C     C_R   0.097500 0.097690 0.262231 0.163327
C18   C     C_R   0.163828 0.163716 0.264153 -0.209316
C19   C     C_R   0.236951 0.237884 0.340933 0.166640
C20   C     C_R   0.233966 0.497710 0.394995 -0.108022
C21   C     C_R   0.160678 0.499572 0.400359 0.143312
C22   C     C_R   0.095459 0.501131 0.334138 -0.136004
C23   C     C_R   0.620327 0.617035 0.500489 0.862205
C24   C     C_R   0.105155 0.498379 0.263444 -0.187943
C25   C     C_R   0.176616 0.499425 0.255802 0.070525
C26   C     C_R   0.241347 0.499340 0.320762 0.029681
C27   C     C_R   0.184040 0.499572 0.183836 -0.135847
C28   C     C_R   0.256258 0.499766 0.177148 0.062783
C29   C     C_R   0.320881 0.499939 0.241867 0.046226
C30   C     C_R   0.312941 0.501067 0.313358 -0.162974
C31   C     C_R   0.265158 0.497928 0.105628 -0.262688
C32   C     C_R   0.336995 0.499614 0.097274 0.225413
C33   C     C_R   0.401993 0.498499 0.163187 -0.078050
C34   C     C_R   0.381767 0.503956 0.380824 0.812123
C35   C     C_R   0.394360 0.499715 0.235239 -0.110844
C36   C     C_R   0.603503 0.765071 0.501058 -0.090468
C37   C     C_R   0.595851 0.836801 0.500167 -0.096568
C38   C     C_R   0.661826 0.902457 0.497918 -0.056235
C39   C     C_R   0.733291 0.893193 0.500673 -0.128478
C40   C     C_R   0.742184 0.821655 0.499695 0.065153
C41   C     C_R   0.677347 0.756970 0.500451 0.033235
C42   C     C_R   0.814278 0.814388 0.500609 -0.124996
C43   C     C_R   0.822496 0.742992 0.499951 0.039368
C44   C     C_R   0.763219 0.674431 0.499884 -0.042376
C45   C     C_3   0.678494 0.407645 0.656339 -0.010402
C46   C     C_R   0.686885 0.684104 0.499846 -0.144273
C47   C     C_R   0.894106 0.734936 0.501604 -0.158064
C48   C     C_R   0.905709 0.663475 0.497707 -0.094029
C49   C     C_R   0.847467 0.594555 0.493911 -0.153043
C50   C     C_R   0.790937 0.607975 0.504745 0.343920
C51   C     C_R   0.000854 0.382071 0.880677 0.770508
C52   C     C_R   0.878397 0.501572 0.878877 0.842897
C53   C     C_R   0.994694 0.620129 0.114630 0.777840
C54   C     C_R   0.116495 0.498194 0.115817 0.751955
C55   C     C_R   0.001345 0.878344 0.381472 0.823187
C56   C     C_3   0.750541 0.404180 0.725279 0.308965
C57   C     C_R   0.124340 0.125158 0.504302 0.817914
C58   C     C_R   0.996829 0.117123 0.617184 0.693626
C59   C     C_R   0.881913 0.882305 0.501623 0.675824
C60   C     C_R   0.996108 0.395337 0.733397 0.117629
C61   C     C_R   0.995828 0.402016 0.661321 -0.049781
C62   C     C_R   0.998431 0.337053 0.595658 0.164151
C63   C     C_R   0.000546 0.264423 0.602782 0.117466
C64   C     C_R   0.999177 0.257058 0.676414 -0.026305
C65   C     C_R   0.997629 0.322097 0.741000 -0.033640
C66   C     C_R   0.998297 0.185857 0.684575 -0.069263
C67   C     C_3   0.780537 0.568644 0.711507 -0.141647
C68   C     C_R   0.999681 0.177770 0.756347 -0.017299
C69   C     C_R   0.998341 0.242841 0.820829 -0.013460
C70   C     C_R   0.999192 0.314267 0.812576 -0.097104
C71   C     C_R   0.001281 0.104476 0.764652 -0.181106
C72   C     C_R   0.001336 0.097472 0.836789 0.157738
C73   C     C_R   0.998788 0.162648 0.901569 0.201707
C74   C     C_R   0.997732 0.235056 0.894103 0.069222
C75   C     C_R   0.155696 0.762369 0.259871 0.217121
C76   C     C_R   0.232233 0.836824 0.333292 -0.256771
C77   C     C_R   0.233606 0.903224 0.399875 -0.040164
C78   C     C_3   0.677813 0.524106 0.770852 -0.184571
C79   C     C_R   0.154296 0.894414 0.390873 0.111936
C80   C     C_R   0.075170 0.821676 0.317801 -0.002619
C81   C     C_R   0.075725 0.756680 0.252948 -0.003820
C82   C     C_R   0.997039 0.812501 0.310378 -0.162403
C83   C     C_R   0.916243 0.743588 0.239189 -0.010809
C84   C     C_R   0.917085 0.678277 0.174059 -0.005692
C85   C     C_R   0.996074 0.686496 0.182553 -0.133103
C86   C     C_R   0.835446 0.738319 0.233540 -0.101872
C87   C     C_R   0.756008 0.666526 0.161329 -0.088357
C88   C     C_R   0.757107 0.598637 0.096005 -0.082400
C89   C     C_3   0.687824 0.499860 0.686899 -0.083666
C90   C     C_R   0.838040 0.606087 0.102493 0.080146
H1    H     H_    0.792159 0.590711 0.898426 0.204282
H2    H     H_    0.156732 0.157024 0.204170 0.148309
H3    H     H_    0.217218 0.219865 0.658679 0.190472
H4    H     H_    0.615886 0.359038 0.633551 0.220510
H5    H     H_    0.056479 0.495966 0.217271 0.201672
H6    H     H_    0.218352 0.494302 0.056297 0.172258
H7    H     H_    0.780592 0.943048 0.503838 0.197127
H8    H     H_    0.943531 0.781618 0.502825 0.206675
H9    H     H_    0.292026 0.844101 0.341167 0.144312
H10   H     H_    0.891652 0.549616 0.760352 0.170842
H11   H     H_    0.722447 0.482883 0.859096 0.284729
O1    O     O_R   0.408690 0.356690 0.448570 -0.617044
O2    O     O_R   0.049540 0.460090 0.906170 -0.628845
O3    O     O_R   0.853530 0.448360 0.905250 -0.633877
O4    O     O_R   0.956970 0.551730 0.905180 -0.644389
O5    O     O_R   0.945170 0.540000 0.088470 -0.667004
O6    O     O_R   0.048600 0.643370 0.088400 -0.606392
O7    O     O_R   0.037740 0.448360 0.089460 -0.662003
O8    O     O_R   0.141170 0.551730 0.089390 -0.657553
O9    O     O_R   0.948510 0.908450 0.356890 -0.601322
O10   O     O_R   0.052500 0.908420 0.460860 -0.601853
O11   O     O_R   0.039610 0.091640 0.448030 -0.597713
O12   O     O_R   0.408090 0.460090 0.551440 -0.593083
O13   O     O_R   0.143600 0.091610 0.551990 -0.619907
O14   O     O_R   0.947500 0.091600 0.539170 -0.594620
O15   O     O_R   0.051490 0.091570 0.643140 -0.611759
O16   O     O_R   0.856400 0.908420 0.448030 -0.592274
O17   O     O_R   0.960390 0.908390 0.552000 -0.593938
O18   O     O_R   0.592400 0.448300 0.540670 -0.643240
O19   O     O_R   0.591800 0.551700 0.643540 -0.647023
O20   O     O_R   0.591910 0.539910 0.448560 -0.597144
O21   O     O_R   0.591310 0.643310 0.551430 -0.642251
O22   O     O_R   0.408200 0.448300 0.356460 -0.644464
O23   O     O_R   0.407600 0.551700 0.459330 -0.589723
O24   O     O_R   0.946100 0.356720 0.906240 -0.608717
Zn1   Zn    Zn3+2 0.500400 0.430960 0.431310 0.882293
Zn2   Zn    Zn3+2 0.499600 0.569040 0.568690 1.087120
Zn3   Zn    Zn3+2 0.928290 0.431030 0.997370 0.921407
Zn4   Zn    Zn3+2 0.066410 0.569060 0.997270 0.898805
Zn5   Zn    Zn3+2 0.930570 0.000030 0.430590 1.003235
Zn6   Zn    Zn3+2 0.069430 0.999990 0.569430 1.003921
N1    N     N_2   0.683834 0.390226 0.579435 -0.281971
H12   H     H_    0.725702 0.418047 0.566195 0.265009
C91   C     C_3   0.613462 0.301297 0.493538 -0.713476
H13   H     H_    0.630885 0.290273 0.440839 0.211153
H14   H     H_    0.556776 0.301726 0.470230 0.251475
H15   H     H_    0.597255 0.243816 0.496830 0.220678
C92   C     C_2   0.796897 0.665553 0.746481 0.430503
H16   H     H_    0.808724 0.691210 0.709605 0.115871
O25   O     O_2   0.805061 0.717261 0.809909 -0.609414
N2    N     N_2   0.913053 0.654523 0.860370 -0.270368
H17   H     H_    0.888932 0.682279 0.893824 0.243241
C93   C     C_3   0.003052 0.705510 0.890523 -0.347142
H18   H     H_    0.036485 0.766921 0.948353 0.178202
H19   H     H_    0.013944 0.710959 0.839811 0.148278
H20   H     H_    0.025676 0.672553 0.843153 0.058981
N3    N     N_2   0.461414 0.459654 0.662001 -0.298381
H21   H     H_    0.483434 0.436445 0.619529 0.223844
C94   C     C_3   0.506722 0.551880 0.729612 -0.535532
H22   H     H_    0.543590 0.576765 0.708522 0.339061
H23   H     H_    0.555400 0.565143 0.788200 0.285909
H24   H     H_    0.468093 0.579244 0.740564 0.230117
C95   C     C_2   0.483508 0.480824 0.829858 0.350784
H25   H     H_    0.470334 0.502744 0.878062 0.073375
O26   O     O_2   0.553616 0.521313 0.855657 -0.635167
C96   C     C_2   0.344820 0.344113 0.826858 0.420188
H26   H     H_    0.401051 0.392105 0.881306 0.055390
O27   O     O_2   0.295715 0.296555 0.836512 -0.534234
C97   C     C_2   0.039689 0.016180 0.339791 0.465893
H27   H     H_    0.975670 0.987233 0.294601 0.101987
O28   O     O_2   0.049169 0.001567 0.384527 -0.626518
N4    N     N_2   0.024353 0.024051 0.178067 -0.291490
H28   H     H_    0.977475 0.977045 0.174558 0.215043
C98   C     C_3   0.014888 0.010186 0.095726 -0.784159
H29   H     H_    0.956933 0.955043 0.041539 0.251248
H30   H     H_    0.068498 0.009665 0.090790 0.232247
H31   H     H_    0.020258 0.064452 0.095773 0.229877
N5    N     N_2   0.299112 0.307224 0.337877 -0.249482
H32   H     H_    0.331448 0.374975 0.383085 0.230054
C99   C     C_3   0.323352 0.282022 0.269706 -0.570472
H33   H     H_    0.378241 0.331560 0.276915 0.233381
H34   H     H_    0.270242 0.252774 0.208652 0.183310
H35   H     H_    0.342610 0.235308 0.267209 0.190701
C100  C     C_2   0.482606 0.499135 0.158695 0.327552
H36   H     H_    0.485578 0.489922 0.107124 0.136448
O29   O     O_2   0.545456 0.509143 0.206178 -0.603353
C101  C     C_2   0.300892 0.497796 0.472854 0.478140
H37   H     H_    0.326729 0.461020 0.456387 0.066521
O30   O     O_2   0.330250 0.541884 0.548083 -0.524658
N6    N     N_2   0.154573 0.502399 0.474871 -0.323714
H38   H     H_    0.199171 0.505954 0.522026 0.267310
C102  C     C_3   0.080539 0.499591 0.489330 -0.449557
H39   H     H_    0.099022 0.566687 0.534179 0.219955
H40   H     H_    0.031753 0.441286 0.427271 0.196871
H41   H     H_    0.041720 0.538220 0.492612 0.005913
C103  C     C_2   0.016051 0.501351 0.337057 0.438681
H42   H     H_    0.075735 0.509429 0.388778 0.105264
O31   O     O_2   0.952296 0.491733 0.291306 -0.556765
N7    N     N_2   0.342861 0.498489 0.022462 -0.292328
H43   H     H_    0.297272 0.494694 0.976041 0.207567
C104  C     C_3   0.420602 0.499535 0.008322 -0.541132
H44   H     H_    0.407102 0.510964 0.953634 0.170182
H45   H     H_    0.471201 0.474434 0.007747 0.125998
H46   H     H_    0.472403 0.566086 0.061778 0.190097
C105  C     C_2   0.474559 0.510598 0.301384 0.550124
H47   H     H_    0.498322 0.468999 0.284792 0.137113
O32   O     O_2   0.500072 0.548632 0.368762 -0.659264
C106  C     C_2   0.847686 0.515086 0.499049 0.504753
H48   H     H_    0.901070 0.515494 0.506302 0.063579
O33   O     O_2   0.800301 0.451887 0.493289 -0.618241
N8    N     N_2   0.706990 0.337709 0.744200 -0.279629
H49   H     H_    0.666186 0.341790 0.766839 0.267180
C107  C     C_3   0.719792 0.263857 0.729369 -0.585548
H50   H     H_    0.684403 0.221663 0.746501 0.208950
H51   H     H_    0.786547 0.287286 0.765860 0.246879
H52   H     H_    0.698386 0.222948 0.662598 0.228297
C108  C     C_2   0.525371 0.696071 0.491956 0.548450
H53   H     H_    0.511787 0.640089 0.460616 0.164518
O34   O     O_2   0.483862 0.701987 0.527161 -0.460205
C109  C     C_2   0.515003 0.843303 0.497885 0.412512
H54   H     H_    0.513859 0.898293 0.502681 0.030450
O35   O     O_2   0.452855 0.793174 0.490323 -0.496015
C110  C     C_2   0.655300 0.983111 0.498455 0.388435
H55   H     H_    0.600096 0.984227 0.492528 0.041742
O36   O     O_2   0.706364 0.044486 0.505327 -0.556079
C111  C     C_2   0.985000 0.657325 0.501624 0.448622
H56   H     H_    0.984159 0.603312 0.495632 0.030475
O37   O     O_2   0.046142 0.708463 0.508754 -0.554804
N9    N     N_2   0.689640 0.504331 0.481711 -0.160835
H57   H     H_    0.686277 0.545786 0.539849 0.288539
C112  C     C_3   0.644301 0.438108 0.421432 -0.512186
H58   H     H_    0.602570 0.398201 0.432010 0.251925
H59   H     H_    0.686104 0.422392 0.407125 0.252308
H60   H     H_    0.614350 0.441936 0.367143 0.193792
N10   N     N_2   0.002097 0.154922 0.976668 -0.279728
H61   H     H_    0.037956 0.204953 0.037386 0.207274
C113  C     C_3   0.953915 0.071437 0.966655 -0.699201
H62   H     H_    0.949818 0.084432 0.024221 0.198216
H63   H     H_    0.982069 0.035953 0.966583 0.252600
H64   H     H_    0.890589 0.032732 0.917943 0.242488
N11   N     N_2   0.997826 0.466754 0.797748 -0.261986
H65   H     H_    0.961884 0.455588 0.826021 0.254112
C114  C     C_3   0.041833 0.554734 0.820641 -0.605544
H66   H     H_    0.046729 0.590135 0.873898 0.265070
H67   H     H_    0.005315 0.569408 0.771639 0.291616
H68   H     H_    0.107517 0.579228 0.840939 0.188581
C115  C     C_2   0.997656 0.480639 0.654420 0.432105
H69   H     H_    0.034200 0.501124 0.627630 0.095182
O38   O     O_2   0.964403 0.523472 0.673287 -0.692133
N12   N     N_2   0.803033 0.378178 0.690134 -0.301501
H70   H     H_    0.864529 0.414884 0.725337 0.204936
C116  C     C_3   0.767651 0.314082 0.600853 -0.552384
H71   H     H_    0.812469 0.305684 0.581594 0.213551
H72   H     H_    0.753599 0.343793 0.561155 0.225122
H73   H     H_    0.712464 0.256599 0.573099 0.228552
N13   N     N_2   0.986725 0.348765 0.523600 -0.329814
H74   H     H_    0.967622 0.318047 0.470691 0.309533
C117  C     C_3   0.953994 0.385262 0.490741 -1.002758
H75   H     H_    0.951156 0.378730 0.436718 0.219629
H76   H     H_    0.988591 0.446409 0.528878 0.294360
H77   H     H_    0.887546 0.354551 0.470018 0.287654
N14   N     N_2   0.000482 0.199957 0.531555 -0.251281
H78   H     H_    0.035990 0.173012 0.542023 0.256151
C118  C     C_3   0.954896 0.174478 0.444504 -0.534662
H79   H     H_    0.958062 0.127209 0.397048 0.211707
H80   H     H_    0.991039 0.226434 0.438870 0.178361
H81   H     H_    0.888815 0.152134 0.421875 0.213041
C119  C     C_2   0.992025 0.025105 0.696572 0.549964
H82   H     H_    0.956203 0.012666 0.640638 0.061132
O39   O     O_2   0.026776 0.985320 0.702866 -0.532364
N15   N     N_2   0.002684 0.022741 0.844900 -0.250444
H83   H     H_    0.955706 0.962193 0.798504 0.217871
C120  C     C_3   0.071725 0.037062 0.925597 -0.488416
H84   H     H_    0.064295 0.974103 0.911222 0.187644
H85   H     H_    0.089211 0.075490 0.008907 0.141444
H86   H     H_    0.133280 0.067761 0.926397 0.211759
N16   N     N_2   0.003515 0.300507 0.966102 -0.265703
H87   H     H_    0.041176 0.359911 0.985298 0.248842
C121  C     C_3   0.955688 0.283133 0.010000 -0.503265
H88   H     H_    0.958384 0.333872 0.060971 0.230887
H89   H     H_    0.979788 0.261827 0.046085 0.169317
H90   H     H_    0.890639 0.235862 0.965905 0.199711
C122  C     C_2   0.666696 0.515967 0.013145 0.517998
H91   H     H_    0.612772 0.515715 0.010570 0.030146
O40   O     O_2   0.650782 0.453015 0.951891 -0.524686
N17   N     N_2   0.159380 0.692363 0.197604 -0.231727
H92   H     H_    0.113002 0.624522 0.167849 0.254233
C123  C     C_3   0.227588 0.717996 0.174588 -0.524576
H93   H     H_    0.221480 0.667779 0.118779 0.239950
H94   H     H_    0.287703 0.746907 0.228554 0.187335
H95   H     H_    0.230375 0.764788 0.155229 0.174200
C124  C     C_2   0.324373 0.984823 0.479796 0.386745
H96   H     H_    0.378298 0.982521 0.479995 0.077475
O41   O     O_2   0.342785 0.050773 0.539098 -0.552074
N18   N     N_2   0.160970 0.965807 0.454120 -0.240203
H97   H     H_    0.132230 0.985030 0.423612 0.276591
C125  C     C_3   0.198006 0.983326 0.548470 -0.236132
H98   H     H_    0.195691 0.030296 0.597570 0.197848
H99   H     H_    0.260356 0.996936 0.578880 0.179437
H100  H     H_    0.167843 0.926312 0.552260 0.160586
C126  C     C_2   0.794752 0.544639 0.630289 0.299938
H101  H     H_    0.828825 0.510411 0.628893 0.190591
O42   O     O_2   0.785819 0.567450 0.583450 -0.685745
C127  C     C_2   0.831631 0.804003 0.307362 0.605811
H102  H     H_    0.879525 0.828901 0.374600 0.052351
O43   O     O_2   0.784421 0.830693 0.295405 -0.476498
C128  C     C_2   0.667732 0.655730 0.150437 0.472672
H103  H     H_    0.611838 0.603541 0.098158 -0.000036
O44   O     O_2   0.656714 0.703859 0.198626 -0.497965
C129  C     C_2   0.829660 0.539221 0.026391 0.479314
H104  H     H_    0.804946 0.466964 0.997779 0.173032
O45   O     O_2   0.788620 0.546966 0.984657 -0.685358
C130  C     C_2   0.685315 0.617698 0.810978 0.475829
H105  H     H_    0.740193 0.661605 0.862155 0.158799
O46   O     O_2   0.638943 0.645331 0.795747 -0.623642
C131  C     C_2   0.589649 0.450306 0.741703 0.378832
H106  H     H_    0.564963 0.476296 0.750651 0.173847
O47   O     O_2   0.553239 0.374264 0.707913 -0.591581

loop_
_geom_bond_atom_site_label_1
_geom_bond_atom_site_label_2
_ccdc_geom_bond_type
C79   N18   S    
C120  H86   S    
C66   C68   A    
C107  H50   S    
C48   C111  S    
C54   O7    A    
C34   O22   A    
C5    N3    S    
O5    Zn3   S    
C75   N17   S    
C93   H20   S    
C60   N11   S    
C128  O44   D    
C73   C74   A    
C2    C4    S    
C126  H101  S    
C3    N2    S    
C43   C44   A    
C91   H15   S    
C27   C54   S    
C7    C8    A    
C130  O46   D    
C110  H55   S    
C129  H104  S    
C76   H9    S    
C95   H25   S    
C107  H51   S    
C72   N15   S    
N18   H97   S    
C47   H8    S    
C99   H34   S    
C11   C13   A    
C5    C6    A    
C28   C29   A    
C126  O42   D    
C111  O37   D    
C112  H60   S    
C10   C15   A    
N2    C93   S    
C97   H27   S    
C38   C39   A    
C80   C81   A    
C105  O32   D    
N5    C99   S    
C62   N13   S    
C57   O11   A    
C99   H33   S    
C51   O2    A    
C93   H18   S    
C12   O18   A    
C115  O38   D    
C67   C126  S    
C50   N9    S    
C67   C89   S    
C121  H88   S    
C108  O34   D    
C99   H35   S    
C93   H19   S    
C18   C19   A    
C128  H103  S    
O21   Zn2   S    
N7    C104  S    
C67   C92   S    
C102  H39   S    
C118  H80   S    
O17   Zn6   S    
N3    H21   S    
C33   C35   A    
C100  H36   S    
N2    H17   S    
C3    H10   S    
C58   C66   S    
C21   N6    S    
C7    C96   S    
C83   C84   A    
C45   C56   S    
C129  O45   D    
C16   C17   A    
C101  O30   D    
C123  H95   S    
O24   Zn3   S    
C116  H72   S    
C41   C46   A    
C97   O28   D    
C24   C25   A    
C106  H48   S    
C1    C15   S    
C51   C70   S    
C77   C124  S    
C95   O26   D    
C29   C30   A    
C45   C89   S    
C9    C10   A    
O18   Zn1   S    
C117  H77   S    
C35   C105  S    
C4    H1    S    
C55   O10   A    
N17   H92   S    
C40   C42   A    
C125  H99   S    
C69   C70   A    
C59   O16   A    
C130  H105  S    
C12   O19   A    
C13   C14   A    
C16   C97   S    
C58   O15   A    
N8    C107  S    
C94   H23   S    
C98   H29   S    
C36   C41   A    
N7    H43   S    
C1    O12   A    
O6    Zn4   S    
O2    Zn4   S    
C45   H4    S    
C53   O5    A    
C44   C46   A    
C17   C18   A    
C23   O21   A    
N4    C98   S    
C49   C106  S    
C98   H31   S    
C78   C89   S    
C78   C130  S    
C107  H52   S    
N13   C117  S    
O19   Zn2   S    
C116  H73   S    
C28   C31   A    
C117  H76   S    
C30   C34   S    
C63   C64   A    
C108  H53   S    
C51   O24   A    
C47   C48   A    
N5    H32   S    
C12   C89   S    
C120  H84   S    
C111  H56   S    
C23   O20   A    
C92   H16   S    
C94   H24   S    
N9    H57   S    
N15   C120  S    
C86   C87   A    
C8    C9    A    
O22   Zn1   S    
O4    Zn4   S    
C56   N8    S    
C118  H81   S    
C25   C26   A    
C78   C131  S    
O7    Zn3   S    
C104  H44   S    
C54   O8    A    
C60   C61   A    
C71   C119  S    
C36   C108  S    
C96   H26   S    
C22   C103  S    
C87   C88   A    
C119  O39   D    
C75   C76   A    
C104  H45   S    
O13   Zn6   S    
C4    C78   S    
C37   C38   A    
C2    C52   S    
N1    H12   S    
N9    C112  S    
C112  H58   S    
C114  H67   S    
C74   N16   S    
C53   O6    A    
C131  O47   D    
C113  H62   S    
O3    Zn3   S    
C4    H11   S    
C113  H64   S    
C62   C63   A    
N12   C116  S    
C131  H106  S    
C124  H96   S    
C77   C79   A    
C69   C74   A    
N11   C114  S    
C84   C85   A    
C55   C82   S    
C125  H100  S    
O16   Zn5   S    
C9    C11   A    
C6    C7    A    
C88   C122  S    
C2    C56   S    
O23   Zn2   S    
O12   Zn2   S    
C80   C82   A    
C40   C41   A    
C113  H63   S    
C88   C90   A    
C52   O4    A    
C49   C50   A    
C59   O17   A    
C109  O35   D    
C121  H89   S    
C125  H98   S    
O8    Zn4   S    
C58   O14   A    
C123  H94   S    
C24   H5    S    
C25   C27   A    
C42   C43   A    
C33   C100  S    
C103  O31   D    
C39   C40   A    
C117  H75   S    
N14   C118  S    
N4    H28   S    
C114  H66   S    
C84   C90   A    
C90   C129  S    
C120  H85   S    
N13   H74   S    
C52   O3    A    
C34   O23   A    
N6    C102  S    
C102  H40   S    
N3    C94   S    
C14   C15   A    
C14   C19   A    
C56   N12   S    
C31   C32   A    
C3    C67   S    
C8    H3    S    
N17   C123  S    
C72   C73   A    
O1    Zn1   S    
C42   C59   S    
C87   C128  S    
C63   N14   S    
C91   H14   S    
N16   H87   S    
C26   C30   A    
C20   C101  S    
C92   O25   D    
C73   N10   S    
C75   C81   A    
C122  O40   D    
C105  H47   S    
C60   C65   A    
C44   C50   A    
C29   C35   A    
C91   H13   S    
C124  O41   D    
C86   C127  S    
N8    H49   S    
O10   Zn6   S    
C112  H59   S    
C18   H2    S    
C64   C65   A    
C118  H79   S    
C98   H30   S    
C2    C3    S    
C13   C16   A    
C110  O36   D    
C61   C115  S    
C5    C10   A    
N18   C125  S    
C11   C57   S    
C94   H22   S    
C32   C33   A    
C127  O43   D    
C76   C77   A    
N16   C121  S    
C127  H102  S    
O15   Zn6   S    
C20   C26   A    
C36   C37   A    
C68   C71   A    
C48   C49   A    
C115  H69   S    
C116  H71   S    
C96   O27   D    
N12   H70   S    
N10   C113  S    
N10   H61   S    
C32   N7    S    
O9    Zn5   S    
C22   C24   A    
C109  H54   S    
C61   C62   A    
C68   C69   A    
C114  H68   S    
C100  O29   D    
C37   C109  S    
C104  H46   S    
C6    C95   S    
C39   H7    S    
C17   N4    S    
C101  H37   S    
C79   C80   A    
C55   O9    A    
O20   Zn1   S    
C83   C86   A    
C71   C72   A    
C20   C21   A    
C57   O13   A    
C45   N1    S    
N1    C91   S    
C82   C83   A    
C19   N5    S    
C121  H90   S    
C119  H82   S    
N11   H65   S    
C23   C46   S    
N15   H83   S    
C123  H93   S    
N14   H78   S    
C53   C85   S    
C38   C110  S    
O11   Zn5   S    
C103  H42   S    
C21   C22   A    
C43   C47   A    
C1    O1    A    
C102  H41   S    
C106  O33   D    
C81   C85   A    
N6    H38   S    
C65   C70   A    
C64   C66   A    
C31   H6    S    
C27   C28   A    
O14   Zn5   S    
C122  H91   S    
