data_mof_unit_43199.cif
_audit_creation_date              2012-12-10T17:52:24-0500
_audit_creation_method            fapswitch 2.2
_symmetry_space_group_name_H-M    P1
_symmetry_Int_Tables_number       1
_space_group_crystal_system       triclinic
_cell_length_a                    19.083447
_cell_length_b                    10.947561
_cell_length_c                    10.116965
_cell_angle_alpha                 92.618941
_cell_angle_beta                  92.9502
_cell_angle_gamma                 95.630508
_cell_volume                      2097.8830035

loop_
_atom_site_label
_atom_site_type_symbol
_atom_type_description
_atom_site_fract_x
_atom_site_fract_y
_atom_site_fract_z
_atom_type_partial_charge
C1    C     C_R   0.505056 0.261483 0.498224 0.903904
C2    C     C_R   0.296637 0.562202 0.499489 -0.202908
C3    C     C_R   0.933747 0.531343 0.522875 0.351918
C4    C     C_R   0.075200 0.553874 0.516597 0.343646
C5    C     C_R   0.822810 0.626827 0.538723 0.267085
C6    C     C_R   0.750139 0.621086 0.516423 0.211867
C7    C     C_R   0.710385 0.506530 0.502131 -0.240503
C8    C     C_R   0.743401 0.400834 0.468366 0.275367
C9    C     C_R   0.817517 0.405439 0.482194 0.087645
C10   C     C_R   0.856898 0.519151 0.521791 -0.111485
C11   C     C_R   0.569302 0.148232 0.726564 0.306959
C12   C     C_R   0.368101 0.519290 0.498781 0.908848
C13   C     C_R   0.566320 0.101447 0.851739 0.054736
C14   C     C_R   0.561339 0.973851 0.859922 0.230257
C15   C     C_R   0.558077 0.900962 0.741959 0.257245
C16   C     C_R   0.533049 0.948060 0.621869 -0.091784
C17   C     C_R   0.538027 0.076771 0.615180 -0.078410
C18   C     C_R   0.515582 0.129995 0.496839 -0.075647
C19   C     C_R   0.493526 0.053595 0.383890 0.189255
C20   C     C_R   0.476322 0.929037 0.397714 0.143259
C21   C     C_R   0.503273 0.873618 0.509839 -0.099702
C22   C     C_R   0.371052 0.388112 0.099265 0.224803
C23   C     C_R   0.500884 0.739704 0.503439 0.897638
C24   C     C_R   0.312415 0.364324 0.004174 0.125392
C25   C     C_R   0.326146 0.343661 0.872571 0.205925
C26   C     C_R   0.393383 0.370046 0.834765 -0.193338
C27   C     C_R   0.444184 0.441214 0.916492 -0.014180
C28   C     C_R   0.440084 0.443708 0.059238 0.066485
C29   C     C_R   0.555616 0.551445 0.079504 0.111086
C30   C     C_R   0.558103 0.539424 0.938961 0.343612
C31   C     C_R   0.634035 0.501356 0.501562 1.031498
C32   C     C_R   0.268676 0.599754 0.620879 0.165688
C33   C     C_R   0.194906 0.594625 0.629020 0.145644
C34   C     C_R   0.151505 0.566370 0.512000 -0.071081
C35   C     C_R   0.181347 0.560403 0.387791 0.243375
C36   C     C_R   0.254446 0.566300 0.381719 0.163104
H1    H     H_    0.404245 0.336938 0.738027 0.239556
N1    N     N_R   0.036806 0.630630 0.449343 -0.088702
N2    N     N_R   0.967133 0.618592 0.451296 -0.093617
N3    N     N_R   0.972210 0.454838 0.590992 -0.144543
N4    N     N_R   0.042024 0.465423 0.587203 -0.134113
N5    N     N_R   0.499340 0.498800 0.142780 -0.120755
N6    N     N_R   0.499320 0.498720 0.857170 -0.142293
O1    O     O_R   0.500000 0.316780 0.614690 -0.637321
O2    O     O_R   0.499990 0.316750 0.385360 -0.634857
O3    O     O_R   0.398140 0.500000 0.614700 -0.628916
O4    O     O_R   0.398130 0.499970 0.385370 -0.591613
O5    O     O_R   0.500010 0.683250 0.614640 -0.612001
O6    O     O_R   0.500000 0.683220 0.385310 -0.608146
O7    O     O_R   0.601870 0.500030 0.614630 -0.516573
O8    O     O_R   0.601860 0.500000 0.385300 -0.626299
Zn1   Zn    Zn3+2 0.500000 0.500020 0.653130 1.014010
Zn2   Zn    Zn3+2 0.500000 0.499980 0.346870 0.973460
C37   C     C_3   0.316234 0.657592 0.736904 -0.762091
H2    H     H_    0.370094 0.688046 0.707943 0.243327
H3    H     H_    0.296590 0.743632 0.775112 0.229129
H4    H     H_    0.318478 0.593274 0.818125 0.262146
Br1   Br    Br    0.649964 0.261141 0.704690 -0.379228
C38   C     C_3   0.575089 0.187762 0.972392 -0.735218
H5    H     H_    0.589149 0.284189 0.947498 0.259669
H6    H     H_    0.523428 0.186405 0.016957 0.212621
H7    H     H_    0.616651 0.162049 0.043609 0.300221
Br2   Br    Br    0.579461 0.901055 0.025642 -0.505583
Br3   Br    Br    0.630237 0.793621 0.737221 -0.302893
C39   C     C_3   0.421696 0.860130 0.300215 -0.754997
H8    H     H_    0.387571 0.793489 0.353548 0.250461
H9    H     H_    0.385740 0.922832 0.255656 0.239623
H10   H     H_    0.447399 0.812710 0.219287 0.286972
C40   C     C_3   0.617115 0.621107 0.157935 -0.587715
H11   H     H_    0.644700 0.691697 0.098918 0.272244
H12   H     H_    0.599118 0.672556 0.244016 0.276828
H13   H     H_    0.656358 0.557541 0.187126 0.249017
C41   C     C_3   0.357418 0.313524 0.217101 -0.813533
H14   H     H_    0.316611 0.347568 0.278930 0.257818
H15   H     H_    0.339011 0.216654 0.185046 0.206657
H16   H     H_    0.403501 0.310799 0.276373 0.286165
C42   C     C_3   0.236764 0.335100 0.041646 -0.674589
H17   H     H_    0.227766 0.364659 0.144611 0.261778
H18   H     H_    0.201001 0.384364 0.977860 0.269517
H19   H     H_    0.221239 0.234694 0.028007 0.249707
Br4   Br    Br    0.255725 0.273350 0.740381 -0.513947
C43   C     C_3   0.164260 0.623051 0.761543 -0.729398
H20   H     H_    0.106040 0.611596 0.759563 0.248589
H21   H     H_    0.183849 0.561833 0.836579 0.261811
H22   H     H_    0.179985 0.720158 0.795068 0.241340
Br5   Br    Br    0.651937 0.539259 0.878063 -0.363172
Br6   Br    Br    0.122737 0.538587 0.224768 -0.423481
Br7   Br    Br    0.294563 0.612419 0.218279 -0.517804
Br8   Br    Br    0.873980 0.783418 0.595148 -0.308929
Br9   Br    Br    0.709671 0.766465 0.461431 -0.361431
Br10  Br    Br    0.687368 0.259831 0.381092 -0.447916
C44   C     C_3   0.855056 0.292649 0.450889 -0.648101
H23   H     H_    0.883357 0.265894 0.541926 0.254694
H24   H     H_    0.819595 0.210963 0.414282 0.283687
H25   H     H_    0.893291 0.312664 0.373696 0.233598
C45   C     C_3   0.492764 0.100049 0.246741 -0.815694
H26   H     H_    0.493557 0.025003 0.170859 0.274655
H27   H     H_    0.444104 0.141500 0.224018 0.218769
H28   H     H_    0.540563 0.164195 0.236452 0.290193

loop_
_geom_bond_atom_site_label_1
_geom_bond_atom_site_label_2
_ccdc_geom_bond_type
C16   C21   A    
C29   N5    A    
C41   H14   S    
C35   C36   A    
C2    C12   S    
C7    C8    A    
C42   H17   S    
C36   Br7   S    
C26   C27   A    
C18   C19   A    
N5    Zn2   S    
C5    C6    A    
N6    Zn1   S    
C23   O6    A    
C4    N4    A    
C15   C16   A    
C45   H28   S    
O3    Zn1   S    
C2    C32   A    
C34   C35   A    
C40   H12   S    
C35   Br6   S    
C19   C20   A    
C8    C9    A    
C39   H9    S    
C45   H27   S    
O7    Zn1   S    
C15   Br3   S    
C30   Br5   S    
C11   Br1   S    
C33   C43   S    
O4    Zn2   S    
O1    Zn1   S    
O2    Zn2   S    
C38   H5    S    
C22   C28   A    
C13   C14   A    
C25   Br4   S    
C41   H15   S    
C12   O4    A    
C9    C44   S    
C32   C37   S    
C33   C34   A    
C29   C40   S    
C42   H18   S    
C37   H3    S    
C38   H6    S    
C7    C31   S    
C20   C39   S    
C24   C25   A    
C12   O3    A    
C16   C17   A    
C25   C26   A    
C6    Br9   S    
C44   H25   S    
O8    Zn2   S    
C40   H13   S    
C29   C30   A    
C1    O1    A    
C39   H10   S    
C45   H26   S    
C44   H24   S    
C17   C18   A    
C1    C18   S    
C8    Br10  S    
N3    N4    A    
C4    N1    A    
C3    N3    A    
C39   H8    S    
C43   H21   S    
C21   C23   S    
C41   H16   S    
C22   C24   A    
C30   N6    A    
C31   O7    A    
C9    C10   A    
C42   H19   S    
C2    C36   A    
C37   H2    S    
C11   C17   A    
C38   H7    S    
C23   O5    A    
C31   O8    A    
C26   H1    S    
C6    C7    A    
C13   C38   S    
C43   H22   S    
C32   C33   A    
C5    C10   A    
C3    C10   S    
C11   C13   A    
C1    O2    A    
N1    N2    A    
O6    Zn2   S    
C14   Br2   S    
C28   N5    A    
C44   H23   S    
C4    C34   S    
C40   H11   S    
C3    N2    A    
C27   N6    A    
C24   C42   S    
O5    Zn1   S    
C20   C21   A    
C43   H20   S    
C27   C28   A    
C14   C15   A    
C22   C41   S    
C5    Br8   S    
C19   C45   S    
C37   H4    S    
