data_mof_unit_10822.cif
_audit_creation_date              2013-03-05T16:23:19-0500
_audit_creation_method            fapswitch 2.2
_symmetry_space_group_name_H-M    P1
_symmetry_Int_Tables_number       1
_space_group_crystal_system       triclinic
_cell_length_a                    27.05082
_cell_length_b                    10.636894
_cell_length_c                    9.891996
_cell_angle_alpha                 88.157511
_cell_angle_beta                  91.134857
_cell_angle_gamma                 89.541853
_cell_volume                      2844.15462319

loop_
_atom_site_label
_atom_site_type_symbol
_atom_site_description
_atom_site_fract_x
_atom_site_fract_y
_atom_site_fract_z
_atom_type_partial_charge
O1    O     O_R   0.500000 0.313960 0.616610 -0.572508
O2    O     O_R   0.500000 0.686040 0.383390 -0.573656
O3    O     O_R   0.500020 0.313950 0.383350 -0.633902
O4    O     O_R   0.499980 0.686050 0.616650 -0.638742
C1    C     C_R   0.501253 0.257865 0.502076 0.886194
C2    C     C_R   0.498918 0.742233 0.497902 0.883289
O5    O     O_R   0.428750 0.500030 0.616610 -0.632830
O6    O     O_R   0.571250 0.499970 0.383390 -0.606413
O7    O     O_R   0.428770 0.500020 0.383360 -0.594634
O8    O     O_R   0.571230 0.499980 0.616640 -0.601075
C3    C     C_R   0.405408 0.504142 0.498910 0.858687
C4    C     C_R   0.594103 0.502551 0.500629 0.841136
Zn1   Zn    Zn3+2 0.499990 0.500010 0.655740 0.964905
Zn2   Zn    Zn3+2 0.500010 0.499990 0.344260 0.977716
C5    C     C_R   0.166310 0.427224 0.390919 0.499904
C6    C     C_R   0.817818 0.732482 0.427779 0.508322
O9    O     O_2   0.185851 0.313085 0.366886 -0.549786
O10   O     O_2   0.795790 0.826295 0.493483 -0.562150
N1    N     N_R   0.195481 0.518880 0.441923 -0.347670
N2    N     N_R   0.792077 0.626802 0.397868 -0.347118
C7    C     C_R   0.177242 0.636533 0.465328 0.544294
C8    C     C_R   0.811365 0.536801 0.317425 0.540332
C9    C     C_R   0.268844 0.505401 0.595725 0.219664
C10   C     C_R   0.734516 0.504084 0.541266 0.204969
C11   C     C_R   0.320187 0.532171 0.606702 0.113097
C12   C     C_R   0.685150 0.460174 0.553058 0.108384
C13   C     C_R   0.327814 0.477030 0.369734 -0.234805
C14   C     C_R   0.656626 0.648056 0.424329 -0.274875
C15   C     C_R   0.277012 0.478872 0.354018 -0.131142
C16   C     C_R   0.704786 0.680781 0.397505 -0.135357
C17   C     C_R   0.247277 0.494829 0.465295 0.256955
C18   C     C_R   0.743715 0.607626 0.451254 0.256257
C19   C     C_R   0.095758 0.569446 0.394439 -0.084746
C20   C     C_R   0.890537 0.637858 0.334509 -0.087707
C21   C     C_R   0.116220 0.451300 0.363855 0.000595
C22   C     C_R   0.867812 0.740016 0.396534 0.000878
C23   C     C_R   0.085951 0.357800 0.312136 -0.118041
C24   C     C_R   0.896112 0.844632 0.429203 -0.113007
C25   C     C_R   0.126102 0.662869 0.450723 -0.121125
C26   C     C_R   0.861521 0.540878 0.281090 -0.125594
C27   C     C_R   0.350560 0.505866 0.493873 -0.123122
C28   C     C_R   0.646258 0.536629 0.497112 -0.079184
H1    H     H_    0.349241 0.458206 0.281424 0.196168
H2    H     H_    0.626922 0.705940 0.380308 0.164600
H3    H     H_    0.260572 0.468757 0.254252 0.169148
H4    H     H_    0.711890 0.760613 0.330148 0.172523
H5    H     H_    0.100252 0.264404 0.294598 0.203153
H6    H     H_    0.879009 0.929593 0.464636 0.196719
C29   C     C_R   0.965210 0.526890 0.272626 -0.050053
C30   C     C_R   0.022630 0.704197 0.417034 -0.047186
C31   C     C_R   0.971265 0.724754 0.392453 0.092754
C32   C     C_R   0.015735 0.502259 0.302529 0.096448
C33   C     C_R   0.942525 0.630234 0.332066 0.058322
C34   C     C_R   0.044811 0.593484 0.368779 0.060137
C35   C     C_R   0.936194 0.453451 0.184335 0.084649
C36   C     C_R   0.051804 0.782883 0.499688 0.077778
C37   C     C_R   0.884208 0.453636 0.195168 0.201833
C38   C     C_R   0.103662 0.773923 0.498160 0.208871
O11   O     O_2   0.782306 0.441353 0.279768 -0.524473
O12   O     O_2   0.209023 0.726186 0.502949 -0.529962
C39   C     C_R   0.036417 0.382367 0.284082 -0.168618
C40   C     C_R   0.947333 0.838818 0.420604 -0.163393
H7    H     H_    0.013932 0.304153 0.254073 0.179050
H8    H     H_    0.967919 0.923221 0.439427 0.178997
C41   C     C_3   0.506430 0.032087 0.628926 0.221225
C42   C     C_3   0.494230 0.968289 0.370756 0.220978
C43   C     C_3   0.542753 0.950254 0.550505 -0.270508
C44   C     C_3   0.457915 0.050092 0.449014 -0.262684
H9    H     H_    0.577656 0.906990 0.591225 0.168028
H10   H     H_    0.423015 0.093131 0.407991 0.169695
C45   C     C_3   0.498386 0.877707 0.494291 -0.139407
C46   C     C_3   0.502151 0.122512 0.505466 -0.143736
C47   C     C_3   0.462489 0.958331 0.572500 0.135473
C48   C     C_3   0.538091 0.042206 0.427204 0.124420
C49   C     C_3   0.488822 0.391459 0.050412 0.163238
C50   C     C_3   0.511064 0.608750 0.949596 0.154944
C51   C     C_3   0.531673 0.419720 0.956320 0.227015
C52   C     C_3   0.468204 0.580396 0.044068 0.220791
N3    N     N_3   0.499960 0.500030 0.863290 -0.106422
N4    N     N_3   0.500040 0.499970 0.136710 -0.107691
C53   C     C_3   0.457318 0.471146 0.949315 -0.205519
C54   C     C_3   0.542550 0.529118 0.050736 -0.187946
H11   H     H_    0.421261 0.445951 0.902428 0.155807
H12   H     H_    0.578617 0.554189 0.097845 0.171638
I1    I     I_    0.523226 0.064761 0.832634 -0.419757
I2    I     I_    0.479090 0.935720 0.166323 -0.410192
C55   C     C_3   0.417542 0.911773 0.650318 -0.391463
C56   C     C_3   0.387289 0.021405 0.702382 -0.790185
H13   H     H_    0.410290 0.079892 0.769471 0.279801
H14   H     H_    0.372461 0.081187 0.616629 0.251129
H15   H     H_    0.355686 0.985093 0.761173 0.255114
H16   H     H_    0.394010 0.856205 0.581538 0.211618
H17   H     H_    0.429685 0.849679 0.736947 0.225857
C57   C     C_3   0.582016 0.093857 0.348578 -0.364679
C58   C     C_3   0.617107 0.989507 0.307602 -0.820912
H18   H     H_    0.634319 0.942359 0.398761 0.246910
H19   H     H_    0.597014 0.919054 0.247463 0.275412
H20   H     H_    0.646972 0.030473 0.245119 0.270664
H21   H     H_    0.568720 0.146731 0.256575 0.233079
H22   H     H_    0.602167 0.160057 0.413360 0.203300
I3    I     I_    0.599043 0.329904 0.905221 -0.352759
I4    I     I_    0.401586 0.671124 0.102899 -0.369099
C59   C     C_3   0.469452 0.263380 0.097468 -0.316086
C60   C     C_3   0.418148 0.268670 0.159124 -0.821516
H23   H     H_    0.419626 0.309959 0.259639 0.287050
H24   H     H_    0.391738 0.323332 0.092694 0.242064
H25   H     H_    0.403607 0.171848 0.171712 0.262302
H26   H     H_    0.465560 0.205955 0.007138 0.240423
H27   H     H_    0.496370 0.216164 0.167218 0.239730
C61   C     C_3   0.530765 0.736318 0.901735 -0.329653
C62   C     C_3   0.582056 0.729881 0.839767 -0.786964
H28   H     H_    0.608352 0.674826 0.906162 0.250624
H29   H     H_    0.580578 0.688487 0.739355 0.290946
H30   H     H_    0.596892 0.826390 0.827017 0.255319
H31   H     H_    0.503792 0.784205 0.832382 0.241609
H32   H     H_    0.535101 0.793683 0.991849 0.242525
C63   C     C_3   0.674640 0.328389 0.608956 -0.429634
C64   C     C_3   0.695429 0.227971 0.517671 -0.794787
H33   H     H_    0.682101 0.245210 0.411730 0.271990
H34   H     H_    0.736387 0.227500 0.518487 0.276282
H35   H     H_    0.683007 0.133567 0.553411 0.260706
H36   H     H_    0.689704 0.315405 0.713570 0.244337
H37   H     H_    0.634434 0.311052 0.615480 0.229018
C65   C     C_3   0.339618 0.601568 0.729795 -0.442190
C66   C     C_3   0.311799 0.725679 0.748900 -0.784793
H38   H     H_    0.312758 0.785221 0.654724 0.280660
H39   H     H_    0.272721 0.711359 0.775977 0.274646
H40   H     H_    0.329764 0.776977 0.832319 0.262114
H41   H     H_    0.337824 0.540377 0.822516 0.211661
H42   H     H_    0.378339 0.630911 0.720545 0.242000
C67   C     C_3   0.777603 0.443909 0.622308 -0.441219
C68   C     C_3   0.797516 0.532795 0.728260 -0.773221
H43   H     H_    0.812019 0.620097 0.680233 0.271422
H44   H     H_    0.767824 0.557601 0.798981 0.270236
H45   H     H_    0.828224 0.485922 0.787039 0.278642
H46   H     H_    0.767353 0.356559 0.677836 0.235149
H47   H     H_    0.807849 0.416951 0.554745 0.227849
C69   C     C_3   0.236738 0.486563 0.719672 -0.458724
C70   C     C_3   0.217930 0.351714 0.731850 -0.786963
H48   H     H_    0.192443 0.330716 0.646649 0.286170
H49   H     H_    0.249488 0.284131 0.733560 0.263889
H50   H     H_    0.197435 0.338742 0.827397 0.261849
H51   H     H_    0.257230 0.503181 0.815200 0.224186
H52   H     H_    0.204887 0.552976 0.715521 0.235500
I5    I     I_    0.842620 0.326319 0.073291 -0.229197
I6    I     I_    0.143877 0.931532 0.574801 -0.188901
I7    I     I_    0.968924 0.378066 0.006914 -0.279953
I8    I     I_    0.021326 0.868939 0.674783 -0.274130

loop_
_geom_bond_atom_site_label_1
_geom_bond_atom_site_label_2
_geom_bond_distance
_ccdc_geom_bond_type
C42   C44   1.543118 S    
C55   C56   1.528035 S    
Zn1   N3    2.053106 S    
C37   I5    2.151455 S    
C52   I4    2.137121 S    
C48   C57   1.529105 S    
C9    C69   1.525412 S    
C51   I3    2.128162 S    
C58   H18   1.109950 S    
C52   C53   1.542805 S    
C12   C63   1.521296 S    
O7    Zn2   1.973024 S    
N1    C17   1.435177 S    
C60   H24   1.109241 S    
C58   H20   1.110245 S    
C5    N1    1.362312 A    
C19   C25   1.414835 A    
O1    C1    1.298251 A    
C50   C52   1.529350 S    
N1    C7    1.369841 A    
C10   C12   1.423958 A    
C69   H51   1.105910 S    
C1    C46   1.439047 S    
C32   C39   1.407210 A    
C70   H50   1.110556 S    
C52   N4    1.489926 S    
C13   C15   1.379849 A    
C42   C48   1.534468 S    
C41   C47   1.535149 S    
C14   C28   1.400086 A    
O4    Zn1   2.004070 S    
C39   H7    1.080287 S    
C61   C62   1.529841 S    
C47   C55   1.529156 S    
C40   H8    1.079549 S    
C64   H33   1.110612 S    
C62   H28   1.109229 S    
C68   H43   1.107603 S    
C41   C43   1.544304 S    
C66   H40   1.110013 S    
C4    C28   1.460279 S    
C50   N3    1.488407 S    
C59   H26   1.102276 S    
Zn2   N4    2.053107 S    
C23   H5    1.083653 S    
C49   N4    1.487186 S    
C24   H6    1.083379 S    
C6    N2    1.364472 A    
C51   C54   1.541883 S    
C55   H16   1.110037 S    
C49   C59   1.525632 S    
O2    C2    1.298395 A    
C31   C40   1.408907 A    
C5    C21   1.396018 A    
C60   H23   1.099946 S    
C53   H11   1.110189 S    
C32   C34   1.422088 A    
C51   N3    1.489635 S    
C2    C45   1.440266 S    
C7    O12   1.345462 S    
N4    C54   1.472829 S    
C67   H46   1.104185 S    
C50   C54   1.531030 S    
C8    O11   1.346446 S    
N3    C53   1.475419 S    
C49   C53   1.531348 S    
C44   C47   1.541279 S    
C29   C35   1.419714 A    
C25   C38   1.421100 A    
C14   H2    1.084124 S    
C30   C36   1.421574 A    
C15   H3    1.083274 S    
C44   C46   1.533977 S    
C43   H9    1.109733 S    
C64   H35   1.110648 S    
C9    C17   1.413584 A    
C36   I8    2.159650 S    
O5    C3    1.312755 A    
C63   H36   1.108706 S    
C10   C18   1.420505 A    
C67   H47   1.108396 S    
O7    C3    1.318781 A    
C13   C27   1.406381 A    
C35   I7    2.155873 S    
C42   C45   1.533434 S    
C7    C25   1.412922 A    
C56   H15   1.108499 S    
C57   H22   1.106781 S    
O6    C4    1.304532 A    
C29   C32   1.413313 A    
C8    C26   1.411070 A    
C38   I6    2.155671 S    
C30   C31   1.419810 A    
C65   H42   1.100047 S    
C62   H29   1.099499 S    
C43   C48   1.541234 S    
C30   C34   1.418050 A    
C49   C51   1.526636 S    
O3    Zn2   2.004072 S    
O8    C4    1.314111 A    
C46   C48   1.527506 S    
C56   H14   1.110214 S    
C54   H12   1.110988 S    
C35   C37   1.412430 A    
C66   H38   1.110375 S    
C20   C26   1.411036 A    
O4    C2    1.300394 A    
O1    Zn1   2.028670 S    
C11   C27   1.432384 A    
C67   C68   1.527102 S    
C61   H32   1.101214 S    
C12   C28   1.417305 A    
C45   C47   1.528411 S    
N2    C18   1.434094 S    
C19   C34   1.416159 A    
C5    O9    1.350272 S    
O6    Zn2   1.958059 S    
C26   C37   1.422134 A    
C21   C23   1.396594 A    
C16   H4    1.083165 S    
C6    O10   1.349365 S    
N2    C8    1.370900 A    
O3    C1    1.299761 A    
O8    Zn1   1.973027 S    
C42   I2    2.095650 S    
C23   C39   1.384098 A    
C70   H48   1.107753 S    
C58   H19   1.110539 S    
C41   I1    2.097396 S    
C41   C46   1.532036 S    
C50   C61   1.526310 S    
C59   H27   1.100218 S    
C22   C24   1.398457 A    
C63   H37   1.107378 S    
C15   C17   1.390094 A    
C69   H52   1.109083 S    
C63   C64   1.531363 S    
C6    C22   1.395570 A    
C16   C18   1.391136 A    
C70   H49   1.111130 S    
C10   C67   1.526082 S    
C57   H21   1.106720 S    
C68   H45   1.110088 S    
C29   C33   1.405604 A    
C55   H17   1.107914 S    
C14   C16   1.379780 A    
C19   C21   1.413214 A    
C20   C22   1.407927 A    
C36   C38   1.405683 A    
C65   H41   1.109569 S    
C3    C27   1.483494 S    
C62   H30   1.109530 S    
C43   C45   1.536576 S    
C9    C11   1.422734 A    
C57   C58   1.524694 S    
O2    Zn2   2.028668 S    
C11   C65   1.530516 S    
C64   H34   1.107795 S    
C69   C70   1.527667 S    
C13   H1    1.081026 S    
O5    Zn1   1.958053 S    
C56   H13   1.109485 S    
C20   C33   1.408721 A    
C68   H44   1.111252 S    
C59   C60   1.528311 S    
C66   H39   1.106154 S    
C44   H10   1.109705 S    
C31   C33   1.415915 A    
C61   H31   1.101918 S    
C60   H25   1.109526 S    
C65   C66   1.533163 S    
C24   C40   1.390877 A    
