data_mof_unit_18630.cif
_audit_creation_date              2012-12-10T18:58:11-0500
_audit_creation_method            fapswitch 2.2
_symmetry_space_group_name_H-M    P1
_symmetry_Int_Tables_number       1
_space_group_crystal_system       triclinic
_cell_length_a                    11.069924
_cell_length_b                    10.859235
_cell_length_c                    9.569409
_cell_angle_alpha                 90.36364
_cell_angle_beta                  103.20437
_cell_angle_gamma                 90.724308
_cell_volume                      1119.79398097

loop_
_atom_site_label
_atom_site_type_symbol
_atom_type_description
_atom_site_fract_x
_atom_site_fract_y
_atom_site_fract_z
_atom_type_partial_charge
C1    C     C_R   0.498538 0.262401 0.499230 0.794144
C2    C     C_R   0.488355 0.129148 0.495859 -0.130722
C3    C     C_R   0.476155 0.063130 0.366416 -0.222282
C4    C     C_R   0.475119 0.934669 0.366456 -0.214167
C5    C     C_R   0.487159 0.870799 0.496249 -0.092681
C6    C     C_R   0.484295 0.937476 0.620551 0.082720
C7    C     C_3   0.569514 0.932387 0.765604 -0.481421
C8    C     C_3   0.571760 0.072172 0.765613 -0.015866
C9    C     C_R   0.604716 0.531035 0.101276 0.162648
C10   C     C_R   0.402866 0.450013 0.048153 0.578184
C11   C     C_R   0.401367 0.455503 0.898534 -0.199152
C12   C     C_R   0.262616 0.499610 0.441292 0.761927
C13   C     C_R   0.605692 0.528209 0.954636 0.235854
C14   C     C_3   0.680038 0.644446 0.967696 -0.476407
C15   C     C_3   0.675752 0.649651 0.125162 -0.467316
C16   C     C_R   0.498161 0.737662 0.499679 0.797107
C17   C     C_R   0.737290 0.501102 0.558815 0.852475
C18   C     C_2   0.126823 0.498007 0.407046 0.324385
C19   C     C_2   0.067011 0.506010 0.514383 -0.269347
C20   C     C_2   0.872644 0.503238 0.592667 -0.382917
C21   C     C_2   0.932094 0.508053 0.485982 -0.127620
C22   C     C_R   0.484877 0.064653 0.620591 0.133659
Cu1   Cu    Cu3+1 0.499990 0.499980 0.640670 0.932475
Cu2   Cu    Cu3+1 0.500010 0.500020 0.359330 0.986455
H1    H     H_    0.880329 0.511427 0.375307 0.208329
H2    H     H_    0.664074 0.112715 0.763109 0.160207
H3    H     H_    0.320696 0.422658 0.820562 0.160860
H4    H     H_    0.774709 0.629155 0.950481 0.203983
H5    H     H_    0.628494 0.718729 0.903503 0.207247
H6    H     H_    0.768605 0.640312 0.198171 0.207080
H7    H     H_    0.619755 0.726995 0.151697 0.202938
H8    H     H_    0.118258 0.509920 0.625780 0.154550
H9    H     H_    0.923562 0.499902 0.704058 0.160679
H10   H     H_    0.473538 0.110014 0.266529 0.160936
H11   H     H_    0.470946 0.886135 0.266196 0.162374
H12   H     H_    0.521905 0.891895 0.845375 0.204283
H13   H     H_    0.660820 0.892051 0.762930 0.171632
N1    N     N_R   0.500780 0.500930 0.148120 -0.230546
N2    N     N_R   0.500790 0.500890 0.852210 -0.208439
O1    O     O_R   0.500000 0.319640 0.618810 -0.581323
O2    O     O_R   0.500010 0.319680 0.381230 -0.571354
O3    O     O_R   0.320680 0.500000 0.575130 -0.623012
O4    O     O_R   0.320690 0.500040 0.337550 -0.484855
O5    O     O_R   0.499990 0.680320 0.618770 -0.573885
O6    O     O_R   0.500000 0.680360 0.381190 -0.588946
O7    O     O_R   0.679310 0.499960 0.662450 -0.578885
O8    O     O_R   0.679320 0.500000 0.424870 -0.584422
O9    O     O_3   0.303556 0.398239 0.093035 -0.529817
C23   C     C_3   0.287792 0.273725 0.048353 -0.367359
H14   H     H_    0.377474 0.224695 0.067461 0.152639
H15   H     H_    0.238199 0.266017 0.933777 0.152417
H16   H     H_    0.230154 0.225625 0.112031 0.180233
O10   O     O_3   0.062930 0.493976 0.264428 -0.562149
C24   C     C_3   0.034825 0.369791 0.224178 -0.263124
H17   H     H_    0.115713 0.308661 0.260481 0.149388
H18   H     H_    0.007012 0.363695 0.105350 0.190771
H19   H     H_    0.955612 0.335482 0.267064 0.144460
C25   C     C_3   0.513370 0.128652 0.880758 -0.861898
H20   H     H_    0.511767 0.230092 0.870649 0.253805
H21   H     H_    0.417047 0.093360 0.870901 0.231808
H22   H     H_    0.569794 0.105787 0.988812 0.227261

loop_
_geom_bond_atom_site_label_1
_geom_bond_atom_site_label_2
_ccdc_geom_bond_type
C16   O6    A    
C2    C22   A    
C8    C22   S    
Cu1   Cu2   S    
C15   H7    S    
C6    C7    S    
C13   C14   S    
C8    H2    S    
C7    H12   S    
C16   O5    A    
Cu2   N1    S    
C1    O1    A    
C11   H3    S    
C10   N1    A    
C23   H16   S    
C14   H4    S    
C25   H22   S    
C12   O3    A    
C2    C3    A    
C7    H13   S    
C4    H11   S    
C7    C8    S    
Cu1   O7    S    
O10   C24   S    
C20   C21   D    
C11   N2    A    
Cu2   O2    S    
Cu1   O3    S    
Cu1   N2    S    
Cu2   O6    S    
C1    O2    A    
O9    C23   S    
C19   C21   S    
C18   C19   D    
C12   O4    A    
C10   O9    S    
C5    C6    A    
C24   H18   S    
C13   N2    A    
C10   C11   A    
C20   H9    S    
C14   H5    S    
C25   H21   S    
Cu1   O1    S    
C6    C22   A    
C17   C20   S    
C17   O7    A    
C3    C4    A    
C15   H6    S    
C1    C2    S    
C12   C18   S    
C23   H14   S    
Cu2   O4    S    
C21   H1    S    
C24   H17   S    
C9    N1    A    
C5    C16   S    
C9    C13   A    
C18   O10   S    
C3    H10   S    
C8    C25   S    
C25   H20   S    
C14   C15   S    
Cu2   O8    S    
C19   H8    S    
Cu1   O5    S    
C17   O8    A    
C9    C15   S    
C4    C5    A    
C23   H15   S    
C24   H19   S    
