data_mof_unit_67214.cif
_audit_creation_date              2013-03-05T16:01:24-0500
_audit_creation_method            fapswitch 2.2
_symmetry_space_group_name_H-M    P1
_symmetry_Int_Tables_number       1
_space_group_crystal_system       triclinic
_cell_length_a                    20.321719
_cell_length_b                    20.640659
_cell_length_c                    8.582681
_cell_angle_alpha                 89.7214
_cell_angle_beta                  92.272257
_cell_angle_gamma                 90.249898
_cell_volume                      3597.13255734

loop_
_atom_site_label
_atom_site_type_symbol
_atom_site_description
_atom_site_fract_x
_atom_site_fract_y
_atom_site_fract_z
_atom_type_partial_charge
P1    P     P_3+3 0.136530 0.426510 0.931350 0.475190
P2    P     P_3+3 0.136530 0.573490 0.431350 0.527714
P3    P     P_3+3 0.636530 0.926510 0.931350 0.479446
P4    P     P_3+3 0.636530 0.073490 0.431350 0.535519
O1    O     O_2   0.130070 0.404060 0.104920 -0.342863
O2    O     O_2   0.130070 0.595940 0.604920 -0.347949
O3    O     O_2   0.630070 0.904060 0.104920 -0.367997
O4    O     O_2   0.630070 0.095940 0.604920 -0.354276
O5    O     O_3   0.075780 0.466370 0.861070 -0.410953
O6    O     O_3   0.075780 0.533630 0.361070 -0.303369
O7    O     O_3   0.575780 0.966370 0.861070 -0.423989
O8    O     O_3   0.575780 0.033630 0.361070 -0.320945
O9    O     O_3   0.022320 0.344950 0.359800 -0.324687
O10   O     O_3   0.022320 0.655050 0.859800 -0.344330
O11   O     O_3   0.522320 0.844950 0.359800 -0.336102
O12   O     O_3   0.522320 0.155050 0.859800 -0.354305
O13   O     O_2   0.129369 0.293190 0.249543 -0.368628
O14   O     O_2   0.136456 0.697171 0.762922 -0.353208
O15   O     O_2   0.629347 0.793105 0.249003 -0.358998
O16   O     O_2   0.635947 0.197769 0.761519 -0.362609
O17   O     O_3   0.206150 0.478524 0.914154 -0.563661
O18   O     O_3   0.212165 0.533229 0.427497 -0.628527
O19   O     O_3   0.706304 0.978385 0.914105 -0.560289
O20   O     O_3   0.712120 0.033230 0.427236 -0.635131
O21   O     O_3   0.045382 0.208658 0.337595 -0.650487
O22   O     O_3   0.053345 0.788123 0.810244 -0.555482
O23   O     O_3   0.545545 0.708774 0.339326 -0.658671
O24   O     O_3   0.552556 0.288424 0.811094 -0.579227
C1    C     C_3   0.080056 0.113970 0.487424 0.797380
C2    C     C_3   0.082545 0.889423 0.929785 0.873284
C3    C     C_3   0.580257 0.615172 0.492721 0.896840
C4    C     C_3   0.582158 0.388776 0.935553 1.033383
H1    H     H_    0.121494 0.123026 0.408150 -0.048393
H2    H     H_    0.131893 0.870171 0.904480 -0.049065
H3    H     H_    0.621064 0.623608 0.411390 -0.095508
H4    H     H_    0.631521 0.369411 0.910832 -0.132569
P5    P     P_3+3 0.863410 0.426100 0.379280 0.406804
P6    P     P_3+3 0.863410 0.573900 0.879280 0.452588
P7    P     P_3+3 0.363410 0.926100 0.379280 0.450894
P8    P     P_3+3 0.363410 0.073900 0.879280 0.410728
P9    P     P_3+3 0.912295 0.288755 0.929297 0.408659
P10   P     P_3+3 0.912659 0.710431 0.426785 0.450890
P11   P     P_3+3 0.411973 0.789035 0.929474 0.470511
P12   P     P_3+3 0.412559 0.210242 0.427049 0.501216
O25   O     O_2   0.869860 0.403670 0.205810 -0.352775
O26   O     O_2   0.869860 0.596330 0.705810 -0.366418
O27   O     O_2   0.369860 0.903670 0.205810 -0.376400
O28   O     O_2   0.369860 0.096330 0.705810 -0.342480
O29   O     O_3   0.977590 0.344880 0.951200 -0.450259
O30   O     O_3   0.977590 0.655120 0.451200 -0.329212
O31   O     O_3   0.477590 0.844880 0.951200 -0.469622
O32   O     O_3   0.477590 0.155120 0.451200 -0.342901
O33   O     O_2   0.870502 0.293379 0.075309 -0.384294
O34   O     O_2   0.864687 0.698013 0.558392 -0.401160
O35   O     O_2   0.369890 0.794039 0.074905 -0.377641
O36   O     O_2   0.367035 0.201358 0.565258 -0.400901
O37   O     O_3   0.794904 0.476938 0.359674 -0.564335
O38   O     O_3   0.793413 0.524336 0.872589 -0.579279
O39   O     O_3   0.296087 0.978779 0.369527 -0.572401
O40   O     O_3   0.293288 0.024459 0.869979 -0.599918
O41   O     O_3   0.948251 0.212038 0.949233 -0.495517
O42   O     O_3   0.944550 0.786755 0.475132 -0.492599
O43   O     O_3   0.447016 0.711985 0.950021 -0.497611
O44   O     O_3   0.447108 0.286866 0.461693 -0.541695
C5    C     C_3   0.016855 0.219537 0.939291 0.518299
C6    C     C_3   0.992468 0.803375 0.368553 0.348015
C7    C     C_3   0.515779 0.718682 0.943315 0.498041
C8    C     C_3   0.495056 0.299953 0.351445 0.527347
H5    H     H_    0.037680 0.247511 0.039965 0.159153
H6    H     H_    0.027384 0.762991 0.349604 0.090580
H7    H     H_    0.536052 0.746309 0.045061 0.168559
H8    H     H_    0.509342 0.257310 0.281545 0.041062
H9    H     H_    0.029418 0.243642 0.828964 -0.001994
H10   H     H_    0.967953 0.818029 0.256185 0.129664
H11   H     H_    0.529640 0.742813 0.833858 0.005954
H12   H     H_    0.475584 0.337818 0.269954 0.132737
C9    C     C_3   0.049407 0.154179 0.940985 -0.936170
C10   C     C_3   0.032185 0.860500 0.432704 -0.790578
C11   C     C_3   0.547205 0.652756 0.946259 -0.986761
C12   C     C_3   0.557180 0.325707 0.434636 -0.836482
H13   H     H_    0.045912 0.132270 0.057069 0.236581
H14   H     H_    0.056420 0.847444 0.546373 0.296099
H15   H     H_    0.539909 0.629629 0.059813 0.244766
H16   H     H_    0.579131 0.287475 0.511500 0.272158
H17   H     H_    0.024174 0.122950 0.852391 0.292519
H18   H     H_    0.999535 0.902780 0.448539 0.269094
H19   H     H_    0.523720 0.622838 0.852589 0.294321
H20   H     H_    0.545595 0.368825 0.505294 0.282041
C13   C     C_3   0.808274 0.465167 0.805856 0.426015
C14   C     C_3   0.813828 0.538896 0.312200 0.491368
C15   C     C_3   0.308690 0.965293 0.803969 0.456662
C16   C     C_3   0.310612 0.032771 0.278389 0.483991
H21   H     H_    0.819572 0.473005 0.681806 0.107315
H22   H     H_    0.847319 0.536451 0.213430 0.110831
H23   H     H_    0.321130 0.973274 0.680781 0.127598
H24   H     H_    0.316116 0.017169 0.156781 0.122399
H25   H     H_    0.849795 0.441798 0.872503 0.132907
H26   H     H_    0.838590 0.564632 0.411729 0.118951
H27   H     H_    0.349719 0.941916 0.872403 0.110700
H28   H     H_    0.356264 0.057236 0.323332 0.104190
C17   C     C_3   0.748731 0.420630 0.814572 -1.051336
C18   C     C_3   0.751901 0.575910 0.260118 -1.055414
C19   C     C_3   0.249093 0.920628 0.809307 -1.025263
C20   C     C_3   0.253616 0.080436 0.283545 -1.078933
H29   H     H_    0.702691 0.448157 0.792700 0.283990
H30   H     H_    0.739689 0.566861 0.135011 0.263451
H31   H     H_    0.203010 0.948460 0.792248 0.272023
H32   H     H_    0.206330 0.054404 0.295802 0.263972
H33   H     H_    0.749841 0.381833 0.726291 0.247970
H34   H     H_    0.758770 0.628566 0.278247 0.242151
H35   H     H_    0.249478 0.883807 0.716175 0.245290
H36   H     H_    0.249444 0.109246 0.174650 0.246045
H37   H     H_    0.748463 0.397822 0.931694 0.250766
H38   H     H_    0.709515 0.560023 0.328170 0.258121
H39   H     H_    0.249464 0.895271 0.923449 0.240287
H40   H     H_    0.261497 0.113984 0.383302 0.257015
Ba1   Ba    Ba6+2 0.999980 0.452130 0.155200 1.566135
Ba2   Ba    Ba6+2 0.999980 0.547870 0.655200 1.235490
Ba3   Ba    Ba6+2 0.499980 0.952130 0.155200 1.479192
Ba4   Ba    Ba6+2 0.499980 0.047870 0.655200 1.569152
C21   C     C_3   0.240464 0.501006 0.050112 0.447412
C22   C     C_3   0.217296 0.480613 0.529070 0.480501
C23   C     C_3   0.740517 0.001203 0.049930 0.417825
C24   C     C_3   0.717275 0.980647 0.528812 0.494707
H41   H     H_    0.216363 0.487235 0.157710 0.110142
H42   H     H_    0.184697 0.483996 0.629043 0.144711
H43   H     H_    0.716490 0.987406 0.157598 0.114278
H44   H     H_    0.684506 0.983882 0.628527 0.147678
C25   C     C_3   0.314153 0.478154 0.053117 0.471516
C26   C     C_3   0.289417 0.473065 0.583977 0.625203
C27   C     C_3   0.814411 0.978850 0.053125 0.504479
C28   C     C_3   0.789319 0.973386 0.584330 0.506976
H45   H     H_    0.323322 0.457312 0.938641 0.205980
H46   H     H_    0.319986 0.468470 0.480033 0.047773
H47   H     H_    0.823787 0.958123 0.938678 0.204312
H48   H     H_    0.820087 0.968593 0.480739 0.071305
O45   O     O_3   0.924190 0.533610 0.949240 -0.428221
O46   O     O_3   0.924190 0.466390 0.449240 -0.439159
O47   O     O_3   0.424190 0.033610 0.949240 -0.444611
O48   O     O_3   0.424190 0.966390 0.449240 -0.434259
P13   P     P_3+3 0.084707 0.714402 0.882371 0.496493
P14   P     P_3+3 0.082436 0.283640 0.384852 0.518124
P15   P     P_3+3 0.584494 0.214623 0.882002 0.513661
P16   P     P_3+3 0.582663 0.783849 0.384965 0.515732
C29   C     C_3   0.031842 0.172263 0.473413 0.810242
C30   C     C_3   0.037632 0.829664 0.933837 0.792589
C31   C     C_3   0.531630 0.673052 0.475915 0.827443
C32   C     C_3   0.536698 0.329413 0.935504 1.041563
H49   H     H_    0.036678 0.201343 0.581983 -0.083165
H50   H     H_    0.045329 0.807794 0.052004 -0.806965
H51   H     H_    0.535753 0.702753 0.583637 -0.081439
H52   H     H_    0.543978 0.306771 0.052542 -0.507938
H53   H     H_    0.102389 0.159734 0.916572 0.249805
H54   H     H_    0.071068 0.873504 0.351435 0.233179
H55   H     H_    0.600951 0.657501 0.929872 0.260443
H56   H     H_    0.593769 0.339596 0.347851 0.218555
C33   C     C_R   0.233192 0.295417 0.015655 -0.184087
C34   C     C_R   0.235289 0.699610 0.511571 -0.107786
C35   C     C_R   0.733683 0.795951 0.015287 -0.011337
C36   C     C_R   0.735203 0.199604 0.511533 -0.149440
C37   C     C_R   0.151840 0.347107 0.822916 0.104136
C38   C     C_R   0.147690 0.654149 0.326927 0.187948
C39   C     C_R   0.651949 0.847244 0.822895 0.147337
C40   C     C_R   0.647715 0.154113 0.326691 0.144831
C41   C     C_R   0.118897 0.340812 0.676939 0.346374
C42   C     C_R   0.110969 0.663294 0.185954 0.260273
C43   C     C_R   0.619098 0.840992 0.676826 0.279301
C44   C     C_R   0.611014 0.163286 0.185639 0.324057
C45   C     C_R   0.129925 0.288555 0.576715 0.109639
C46   C     C_R   0.126609 0.712719 0.080167 0.111383
C47   C     C_R   0.630352 0.788891 0.576462 0.115668
C48   C     C_R   0.626812 0.212592 0.079534 0.062320
C49   C     C_R   0.177410 0.242450 0.619417 -0.298581
C50   C     C_R   0.177161 0.756475 0.119150 -0.341909
C51   C     C_R   0.678083 0.742991 0.618925 -0.321108
C52   C     C_R   0.677759 0.255967 0.118111 -0.239993
C53   C     C_R   0.211040 0.244861 0.765624 0.067596
C54   C     C_R   0.210646 0.753792 0.265439 0.104081
C55   C     C_R   0.711468 0.745250 0.765477 0.102361
C56   C     C_R   0.711125 0.253359 0.264593 0.016543
C57   C     C_R   0.198457 0.296705 0.870019 -0.035914
C58   C     C_R   0.197681 0.701693 0.369680 -0.035635
C59   C     C_R   0.698726 0.797002 0.869931 -0.128014
C60   C     C_R   0.697814 0.201539 0.369301 -0.002038
C61   C     C_R   0.795045 0.696954 0.948766 0.012089
C62   C     C_R   0.793699 0.301335 0.449370 -0.021098
C63   C     C_R   0.294754 0.196655 0.948611 -0.039119
C64   C     C_R   0.293593 0.801516 0.449695 0.023704
C65   C     C_R   0.780412 0.746833 0.055941 -0.026642
C66   C     C_R   0.780542 0.249425 0.554786 0.030648
C67   C     C_R   0.279693 0.246116 0.056526 0.187418
C68   C     C_R   0.280610 0.749452 0.554820 -0.020907
C69   C     C_R   0.846692 0.650844 0.988973 0.258767
C70   C     C_R   0.841463 0.350390 0.494639 0.251456
C71   C     C_R   0.346534 0.150704 0.988726 0.196853
C72   C     C_R   0.341536 0.850460 0.494825 0.191572
C73   C     C_R   0.883162 0.658973 0.129642 -0.477318
C74   C     C_R   0.869557 0.346641 0.645425 -0.538140
C75   C     C_R   0.382459 0.158346 0.130241 -0.395613
C76   C     C_R   0.369686 0.846638 0.645445 -0.650779
C77   C     C_R   0.866700 0.706244 0.236932 0.203387
C78   C     C_R   0.860305 0.294568 0.745677 0.298688
C79   C     C_R   0.365060 0.204655 0.239057 0.182828
C80   C     C_R   0.360276 0.794652 0.745686 0.306329
C81   C     C_R   0.814230 0.748281 0.202372 -0.205476
C82   C     C_R   0.815043 0.246177 0.700967 -0.223518
C83   C     C_R   0.312710 0.246830 0.204096 -0.348047
C84   C     C_R   0.315135 0.746181 0.700898 -0.153955
C85   C     C_R   0.758311 0.696346 0.805908 -0.161681
C86   C     C_R   0.758702 0.301632 0.304535 -0.100804
C87   C     C_R   0.257930 0.195970 0.805807 -0.185943
C88   C     C_R   0.258173 0.802129 0.305390 -0.098564
H57   H     H_    0.188236 0.204564 0.537771 0.155465
H58   H     H_    0.190792 0.792408 0.034322 0.149551
H59   H     H_    0.689211 0.705331 0.536915 0.156231
H60   H     H_    0.691743 0.291621 0.032967 0.140968
H61   H     H_    0.800506 0.782742 0.289722 0.198900
H62   H     H_    0.807316 0.205768 0.779278 0.208267
H63   H     H_    0.298909 0.281295 0.291389 0.219633
H64   H     H_    0.307441 0.705757 0.779188 0.207321
H65   H     H_    0.922725 0.625808 0.160293 0.202643
H66   H     H_    0.896448 0.387255 0.689548 0.098075
H67   H     H_    0.422437 0.125547 0.160054 0.180431
H68   H     H_    0.396574 0.887218 0.689681 0.128501
H69   H     H_    0.224991 0.333212 0.098240 0.229705
H70   H     H_    0.229589 0.659604 0.591045 0.216842
H71   H     H_    0.725606 0.833879 0.097649 0.213511
H72   H     H_    0.729307 0.159746 0.591305 0.235720
H73   H     H_    0.766712 0.658527 0.723070 0.187647
H74   H     H_    0.767849 0.339729 0.221788 0.162376
H75   H     H_    0.266141 0.158033 0.722947 0.187977
H76   H     H_    0.266952 0.840506 0.223094 0.154085
O49   O     O_3   0.966626 0.148037 0.463522 -0.636509
C89   C     C_3   0.921725 0.198247 0.430356 -0.149244
H77   H     H_    0.871740 0.178108 0.442194 0.167865
H78   H     H_    0.924883 0.215253 0.307869 0.207673
H79   H     H_    0.929390 0.239302 0.511979 0.120717
O50   O     O_3   0.971547 0.849628 0.915114 -0.631230
C90   C     C_3   0.929496 0.795602 0.923013 -0.077106
H80   H     H_    0.927360 0.769274 0.810367 0.211361
H81   H     H_    0.879773 0.813466 0.945982 0.173926
H82   H     H_    0.944449 0.761903 0.018780 0.097267
O51   O     O_3   0.466570 0.648406 0.465015 -0.649308
C91   C     C_3   0.421506 0.698134 0.428322 -0.123188
H83   H     H_    0.371521 0.677914 0.439804 0.163218
H84   H     H_    0.425144 0.714151 0.305199 0.203351
H85   H     H_    0.428592 0.739899 0.508054 0.110488
O52   O     O_3   0.470869 0.350106 0.915631 -0.656946
C92   C     C_3   0.428135 0.296908 0.929623 -0.140117
H86   H     H_    0.427532 0.266809 0.822634 0.202356
H87   H     H_    0.378115 0.315836 0.944336 0.182318
H88   H     H_    0.441107 0.266828 0.033381 0.124348
Br1   Br    Br    0.240012 0.595354 0.029548 -0.541287
Br2   Br    Br    0.197330 0.405999 0.407726 -0.524188
Br3   Br    Br    0.739643 0.095495 0.028581 -0.538444
Br4   Br    Br    0.697818 0.905946 0.407254 -0.520728
Br5   Br    Br    0.335931 0.405864 0.189512 -0.712446
Br6   Br    Br    0.322933 0.551099 0.684202 -0.497173
Br7   Br    Br    0.836816 0.906716 0.189416 -0.701507
Br8   Br    Br    0.822607 0.051670 0.683782 -0.485358
O53   O     O_3   0.361079 0.528902 0.072682 -0.551398
C93   C     C_3   0.366949 0.550200 0.228789 -0.048141
H89   H     H_    0.387563 0.599799 0.227851 0.192489
H90   H     H_    0.401129 0.518694 0.298323 0.168845
H91   H     H_    0.319171 0.552826 0.286312 0.159923
O54   O     O_3   0.294787 0.419689 0.687877 -0.675962
C94   C     C_3   0.338229 0.372558 0.633467 -0.089416
H92   H     H_    0.390070 0.389443 0.648879 0.198218
H93   H     H_    0.326963 0.359237 0.510232 0.180941
H94   H     H_    0.331571 0.327532 0.701270 0.170538
O55   O     O_3   0.860995 0.029898 0.072835 -0.577255
C95   C     C_3   0.866600 0.051276 0.228923 0.009105
H95   H     H_    0.886451 0.101169 0.227849 0.188661
H96   H     H_    0.901294 0.020289 0.298433 0.162502
H97   H     H_    0.818812 0.053205 0.286564 0.147595
O56   O     O_3   0.794531 0.920299 0.689009 -0.633547
C96   C     C_3   0.838012 0.873030 0.635646 -0.111120
H98   H     H_    0.889838 0.889867 0.651808 0.201915
H99   H     H_    0.827100 0.859575 0.512309 0.185878
H100  H     H_    0.831010 0.828155 0.703785 0.176093
O57   O     O_3   0.106001 0.111348 0.642323 -0.683993
C97   C     C_3   0.156256 0.064677 0.657954 -0.242214
H101  H     H_    0.199431 0.078586 0.590345 0.145857
H102  H     H_    0.138547 0.015683 0.622837 0.217179
H103  H     H_    0.172550 0.062257 0.782599 0.202959
O58   O     O_3   0.082291 0.920969 0.077011 -0.689834
C98   C     C_3   0.146309 0.940746 0.125829 -0.369907
H104  H     H_    0.164236 0.980440 0.050313 0.194750
H105  H     H_    0.180882 0.899635 0.130262 0.149598
H106  H     H_    0.145228 0.958411 0.247206 0.209388
O59   O     O_3   0.607319 0.614418 0.646784 -0.681558
C99   C     C_3   0.658009 0.568157 0.662954 -0.293012
H107  H     H_    0.700726 0.581889 0.593192 0.140005
H108  H     H_    0.640507 0.518802 0.630444 0.225309
H109  H     H_    0.674921 0.566577 0.787271 0.201807
O60   O     O_3   0.581323 0.419107 0.084401 -0.691009
C100  C     C_3   0.645256 0.438351 0.135160 -0.408808
H110  H     H_    0.664058 0.477481 0.059319 0.199097
H111  H     H_    0.679238 0.396812 0.140766 0.155297
H112  H     H_    0.643921 0.456391 0.256241 0.227801
O61   O     O_3   0.047148 0.054409 0.453564 -0.608863
C101  C     C_3   0.038976 0.045096 0.291623 -0.198148
H113  H     H_    0.085513 0.052219 0.230296 0.117277
H114  H     H_    0.000588 0.077715 0.242129 0.177220
H115  H     H_    0.021613 0.994885 0.270435 0.225231
O62   O     O_3   0.063796 0.930547 0.801951 -0.662289
C102  C     C_3   0.025047 0.983539 0.845883 0.036969
H116  H     H_    0.005590 0.008304 0.738905 0.199173
H117  H     H_    0.055913 0.018660 0.913636 0.134303
H118  H     H_    0.982204 0.968452 0.914086 0.198960
O63   O     O_3   0.547547 0.555080 0.464196 -0.614428
C103  C     C_3   0.539674 0.543007 0.303295 -0.213349
H119  H     H_    0.585898 0.550456 0.240753 0.122824
H120  H     H_    0.500563 0.574000 0.251056 0.166390
H121  H     H_    0.523597 0.492013 0.287314 0.226481
O64   O     O_3   0.564429 0.430978 0.809045 -0.702924
C104  C     C_3   0.526176 0.484092 0.854324 -0.032560
H122  H     H_    0.506897 0.509413 0.747951 0.210504
H123  H     H_    0.557424 0.518657 0.922837 0.136801
H124  H     H_    0.483199 0.469095 0.922223 0.207603
O65   O     O_3   0.080699 0.391040 0.622013 -0.580592
C105  C     C_3   0.015649 0.377146 0.657148 0.035753
H125  H     H_    0.997776 0.408722 0.747320 0.174094
H126  H     H_    0.003249 0.325024 0.672367 0.005961
H127  H     H_    0.985322 0.392938 0.561163 0.198311
O66   O     O_3   0.059437 0.622382 0.149643 -0.660716
C106  C     C_3   0.081823 0.573164 0.052427 0.208758
H128  H     H_    0.111906 0.536733 0.115324 0.112848
H129  H     H_    0.110719 0.589838 0.953436 0.137696
H130  H     H_    0.037600 0.550909 0.000333 0.212039
O67   O     O_3   0.580691 0.891088 0.621992 -0.598155
C107  C     C_3   0.515717 0.876966 0.657442 0.215959
H131  H     H_    0.497813 0.908700 0.747272 0.143725
H132  H     H_    0.503625 0.824787 0.673810 -0.047615
H133  H     H_    0.485183 0.892483 0.561396 0.170456
O68   O     O_3   0.559400 0.122458 0.149490 -0.663898
C108  C     C_3   0.581710 0.073180 0.052348 0.111681
H134  H     H_    0.611876 0.036800 0.115226 0.131577
H135  H     H_    0.610474 0.089824 0.953098 0.143106
H136  H     H_    0.537471 0.050876 0.000516 0.212911

loop_
_geom_bond_atom_site_label_1
_geom_bond_atom_site_label_2
_geom_bond_distance
_ccdc_geom_bond_type
C105  H126  1.112139 S    
C17   H37   1.108127 S    
O59   C99   1.409995 S    
P9    O41   1.751621 S    
C11   H19   1.107820 S    
C108  H134  1.097610 S    
P11   O43   1.750634 S    
O28   Ba4   2.880916 S    
O61   C101  1.407242 S    
P12   O44   1.749587 S    
C97   H101  1.107022 S    
P7    O27   1.571899 D    
C88   H76   1.077730 S    
C105  H127  1.060005 S    
O55   C95   1.412636 S    
C28   O56   1.415268 S    
C1    H1    1.117943 S    
C91   H83   1.104326 S    
C30   H50   1.113729 S    
C66   C82   1.414211 A    
C80   C84   1.399268 A    
C95   H95   1.104527 S    
P2    O18   1.752022 S    
P12   C79   1.850860 S    
C98   H105  1.103572 S    
C2    C30   1.532303 S    
O66   C106  1.406246 S    
P4    O8    1.581691 S    
C34   H70   1.077259 S    
C3    C31   1.556254 S    
C26   H46   1.111788 S    
C89   H78   1.110873 S    
P9    O29   1.762654 S    
O18   C22   1.390993 S    
C41   C45   1.407115 A    
C5    C9    1.504824 S    
O37   C14   1.397314 S    
C39   C59   1.454697 A    
O3    Ba3   2.876992 S    
C40   C44   1.408926 A    
C7    C11   1.505358 S    
O42   C6    1.402604 S    
C43   C47   1.406260 A    
O64   C104  1.411648 S    
C89   H79   1.108627 S    
C41   O65   1.368538 S    
C62   C66   1.430152 A    
C104  H124  1.111055 S    
C49   H57   1.081668 S    
C33   C67   1.424848 A    
C18   H38   1.107323 S    
C34   C68   1.418722 A    
C10   H14   1.107896 S    
C31   O51   1.414344 S    
C8    H8    1.113590 S    
O62   C102  1.411976 S    
C54   C88   1.419314 A    
O9    P14   1.769229 S    
C56   C86   1.419068 A    
C54   C58   1.425869 A    
C25   H45   1.097474 S    
O60   C100  1.409908 S    
C63   C87   1.410578 A    
C61   C85   1.410052 A    
P5    O25   1.571899 D    
C108  H136  1.088443 S    
C106  H129  1.104564 S    
C46   C50   1.396613 A    
P8    O28   1.567291 D    
P7    O48   1.585814 S    
C13   C17   1.520400 S    
C15   C19   1.520876 S    
O68   C108  1.406224 S    
C51   C55   1.406121 A    
P6    C69   1.889093 S    
C21   Br1   1.954563 S    
C91   H85   1.108605 S    
C99   H108  1.110809 S    
C2    O62   1.424800 S    
C12   H20   1.110694 S    
C64   C88   1.407638 A    
C6    H6    1.113729 S    
C79   C83   1.399936 A    
C95   H97   1.108177 S    
O38   C13   1.390876 S    
P3    O7    1.584243 S    
C16   C20   1.525085 S    
C11   H55   1.110612 S    
O41   C5    1.407942 S    
P5    Ba1   3.477079 S    
O65   C105  1.395746 S    
O1    Ba1   2.876992 S    
C19   H31   1.105199 S    
P9    C78   1.865879 S    
Ba2   O46   2.848818 S    
P5    O37   1.749272 S    
C56   C60   1.425559 A    
P8    O40   1.748577 S    
O21   P14   1.760268 S    
P2    C38   1.903872 S    
C28   Br8   1.937832 S    
P16   C47   1.877714 S    
C81   H61   1.081324 S    
C92   H86   1.110807 S    
Ba3   O48   3.024403 S    
O44   C8    1.409281 S    
P15   C48   1.870712 S    
C73   H65   1.081889 S    
O12   Ba4   2.854755 S    
O53   C93   1.412511 S    
C94   H94   1.104778 S    
C3    O59   1.411846 S    
C4    O64   1.424786 S    
C6    H10   1.109120 S    
C14   H26   1.110438 S    
C16   H24   1.103818 S    
C103  H119  1.109974 S    
C24   C28   1.529336 S    
O22   C30   1.414376 S    
C14   C18   1.525680 S    
C9    H53   1.110353 S    
O29   Ba1   2.852862 S    
C30   O50   1.409351 S    
C74   C78   1.390322 A    
O31   Ba3   2.852862 S    
C42   O66   1.369624 S    
Ba4   O48   2.848818 S    
O49   C89   1.404452 S    
P10   O42   1.746464 S    
C76   C80   1.389405 A    
P12   O32   1.752998 S    
C9    H17   1.107953 S    
C38   C42   1.408479 A    
C96   H98   1.111279 S    
O5    Ba2   2.846489 S    
C100  H111  1.102940 S    
O7    Ba4   2.846489 S    
C26   Br6   1.937926 S    
C71   C75   1.401290 A    
C101  H114  1.103573 S    
C2    H2    1.110113 S    
C107  H131  1.088593 S    
C20   H36   1.105919 S    
P1    Ba1   3.480871 S    
C3    O63   1.422341 S    
C22   C26   1.529989 S    
P6    Ba2   3.483704 S    
C31   H51   1.112008 S    
C21   H41   1.097980 S    
C43   O67   1.368594 S    
O8    Ba3   2.848704 S    
C23   H43   1.097925 S    
C28   H48   1.112067 S    
C90   H81   1.102518 S    
C67   C83   1.409698 A    
P9    O33   1.545039 D    
P3    Ba3   3.480871 S    
P10   O30   1.754214 S    
P11   O35   1.544886 D    
C42   C46   1.406116 A    
P5    O46   1.585814 S    
C7    H11   1.106883 S    
O25   Ba1   2.871422 S    
C92   H88   1.106993 S    
O30   Ba2   2.842712 S    
C62   C70   1.443503 A    
O14   P13   1.541348 D    
C32   H52   1.110660 S    
C94   H92   1.111305 S    
C61   C65   1.424113 A    
C93   H89   1.104558 S    
C33   H69   1.074533 S    
C8    H12   1.109978 S    
C97   H102  1.110953 S    
C103  H121  1.108277 S    
C64   C68   1.430207 A    
C102  H118  1.110810 S    
C36   C66   1.418639 A    
O6    Ba1   2.848704 S    
Ba1   Ba2   4.733200 S    
C70   C74   1.395560 A    
P7    Ba3   3.477079 S    
O11   Ba3   2.844572 S    
C13   H21   1.108973 S    
C37   C41   1.403235 A    
P6    O26   1.567291 D    
C15   H23   1.108166 S    
C52   C56   1.405446 A    
O56   C96   1.409390 S    
C97   H103  1.108204 S    
C95   H96   1.108576 S    
C96   H100  1.104699 S    
P11   C80   1.863648 S    
C77   C81   1.399389 A    
C15   H27   1.111251 S    
C48   C52   1.396671 A    
P8    C71   1.886231 S    
C84   H64   1.083462 S    
O15   P16   1.543461 D    
C29   O49   1.414001 S    
C90   H80   1.110632 S    
C107  H133  1.061010 S    
C12   H16   1.109766 S    
C93   H91   1.108221 S    
P2    Ba2   3.474346 S    
C16   H28   1.110814 S    
C87   H75   1.078280 S    
P1    O1    1.568251 D    
P3    O3    1.568251 D    
C1    C29   1.556171 S    
P4    O20   1.751340 S    
C17   H33   1.106023 S    
O51   C91   1.404826 S    
O26   Ba2   2.880916 S    
C19   H35   1.105910 S    
C104  H123  1.108403 S    
P6    O38   1.747766 S    
C65   C81   1.408664 A    
O22   P13   1.752945 S    
C50   C54   1.405148 A    
C23   Br3   1.954074 S    
C24   Br4   1.897311 S    
C24   H44   1.107472 S    
C105  H125  1.088541 S    
P1    C37   1.921268 S    
C75   C79   1.395962 A    
O16   P15   1.541433 D    
C33   C57   1.411094 A    
C25   O53   1.419515 S    
C108  H135  1.104619 S    
C14   H22   1.109422 S    
C4    O60   1.426130 S    
C6    C10   1.519080 S    
O24   C32   1.413592 S    
C102  H116  1.108627 S    
O12   P15   1.764746 S    
P1    O5    1.584243 S    
C72   C76   1.394767 A    
C10   H54   1.105876 S    
C36   H72   1.077080 S    
C50   H58   1.079743 S    
C51   H59   1.081796 S    
C19   H39   1.108221 S    
O67   C107  1.395913 S    
P12   O36   1.542723 D    
C98   H104  1.111319 S    
C9    H13   1.096879 S    
P7    O39   1.750443 S    
O23   P16   1.759520 S    
C86   H74   1.077511 S    
C98   H106  1.106449 S    
O24   P15   1.755088 S    
P14   C45   1.878293 S    
C27   Br7   1.933698 S    
P8    Ba4   3.483704 S    
C62   C86   1.407457 A    
C3    H3    1.117446 S    
C18   H34   1.106145 S    
C75   H67   1.081877 S    
C89   H77   1.104089 S    
C4    H4    1.110072 S    
C20   H32   1.107309 S    
O52   C92   1.404630 S    
O50   C90   1.404959 S    
C23   C27   1.572009 S    
C21   C25   1.571184 S    
Ba1   O46   3.024403 S    
C22   Br2   1.896783 S    
O9    Ba1   2.844572 S    
Ba3   Ba4   4.733200 S    
C4    C32   1.531303 S    
P7    C72   1.905883 S    
C25   Br5   1.933995 S    
Ba3   O47   2.846598 S    
P5    C70   1.906593 S    
C106  H128  1.097510 S    
P10   O34   1.540859 D    
C11   H15   1.098184 S    
C94   H93   1.108957 S    
P11   O31   1.763659 S    
C5    H5    1.110314 S    
P13   C46   1.869032 S    
P6    O45   1.588399 S    
C103  H120  1.102430 S    
C7    H7    1.109827 S    
O39   C16   1.395681 S    
C26   O54   1.415863 S    
C44   C48   1.406922 A    
C27   O55   1.419620 S    
C1    O57   1.411503 S    
C2    O58   1.424509 S    
O13   P14   1.543092 D    
C29   H49   1.111705 S    
C1    O61   1.422657 S    
C8    C12   1.520706 S    
O63   C103  1.407210 S    
P1    O17   1.782652 S    
C100  H110  1.110826 S    
C35   C65   1.424804 A    
P3    O19   1.783472 S    
O20   C24   1.390517 S    
P4    O4    1.572863 D    
C82   H62   1.083436 S    
C101  H115  1.106891 S    
C99   H107  1.108967 S    
C74   H66   1.061826 S    
C107  H132  1.113119 S    
C38   C58   1.447391 A    
C27   H47   1.097184 S    
O58   C98   1.410133 S    
C53   C57   1.429385 A    
P8    O47   1.588399 S    
C32   O52   1.409702 S    
C5    H9    1.105817 S    
C91   H84   1.110861 S    
O10   Ba2   2.854755 S    
P4    C40   1.904251 S    
C73   C77   1.395653 A    
C35   H71   1.074799 S    
Ba2   O45   3.020704 S    
C63   C67   1.424139 A    
C10   H18   1.110716 S    
O27   Ba3   2.871422 S    
O10   P13   1.764916 S    
C37   C57   1.455096 A    
C68   C84   1.413691 A    
P2    O2    1.572863 D    
C12   H56   1.108978 S    
C55   C59   1.428970 A    
C17   H29   1.105928 S    
O43   C7    1.407031 S    
C92   H87   1.102710 S    
C76   H68   1.061558 S    
C93   H90   1.108501 S    
O57   C97   1.409047 S    
C47   C51   1.395661 A    
C13   H25   1.111034 S    
C102  H117  1.108289 S    
C22   H42   1.107271 S    
C39   C43   1.403017 A    
C44   O68   1.369523 S    
C40   C60   1.446984 A    
C49   C53   1.405885 A    
C52   H60   1.079707 S    
Ba4   O47   3.020704 S    
C85   H73   1.077116 S    
C34   C58   1.412434 A    
O32   Ba4   2.842712 S    
C96   H99   1.109306 S    
C100  H112  1.106980 S    
P2    O6    1.581691 S    
O4    Ba4   2.867577 S    
O40   C15   1.390854 S    
O19   C23   1.415048 S    
C101  H113  1.109293 S    
C45   C49   1.395602 A    
C63   C71   1.449888 A    
C99   H109  1.108279 S    
Ba1   O45   2.846598 S    
C61   C69   1.450258 A    
C106  H130  1.088617 S    
C55   C85   1.422758 A    
C83   H63   1.081490 S    
P3    C39   1.919340 S    
C53   C87   1.422777 A    
C20   H40   1.110001 S    
C69   C73   1.401782 A    
C36   C60   1.412563 A    
C18   H30   1.108984 S    
C90   H82   1.108260 S    
O17   C21   1.414609 S    
C104  H122  1.108572 S    
O54   C94   1.410120 S    
O11   P16   1.769406 S    
C64   C72   1.443993 A    
O23   C31   1.419140 S    
C78   C82   1.399523 A    
P4    Ba4   3.474346 S    
P10   C77   1.847936 S    
O21   C29   1.419139 S    
C35   C59   1.411044 A    
O2    Ba2   2.867577 S    
