data_mof_unit_59536.cif
_audit_creation_date              2012-12-11T17:41:40-0500
_audit_creation_method            fapswitch 2.2
_symmetry_space_group_name_H-M    P1
_symmetry_Int_Tables_number       1
_space_group_crystal_system       triclinic
_cell_length_a                    7.170329
_cell_length_b                    23.915368
_cell_length_c                    26.207938
_cell_angle_alpha                 90.0
_cell_angle_beta                  90.000011
_cell_angle_gamma                 89.999949
_cell_volume                      4494.16490259

loop_
_atom_site_label
_atom_site_type_symbol
_atom_type_description
_atom_site_fract_x
_atom_site_fract_y
_atom_site_fract_z
_atom_type_partial_charge
O1    O     O_R   0.607880 0.800910 0.198150 -0.536983
O2    O     O_R   0.392120 0.199090 0.801850 -0.539630
O3    O     O_R   0.392120 0.199090 0.698150 -0.536983
O4    O     O_R   0.607880 0.800910 0.301850 -0.539630
O5    O     O_R   0.107880 0.699090 0.301850 -0.536983
O6    O     O_R   0.892120 0.300910 0.698150 -0.539631
O7    O     O_R   0.892120 0.300910 0.801850 -0.536983
O8    O     O_R   0.107880 0.699090 0.198150 -0.539630
O9    O     O_R   0.278160 0.807580 0.301500 -0.534714
O10   O     O_R   0.721840 0.192420 0.698500 -0.537570
O11   O     O_R   0.721840 0.192420 0.801500 -0.534714
O12   O     O_R   0.278160 0.807580 0.198500 -0.537570
O13   O     O_R   0.778160 0.692420 0.198500 -0.534714
O14   O     O_R   0.221840 0.307580 0.801500 -0.537570
O15   O     O_R   0.221840 0.307580 0.698500 -0.534714
O16   O     O_R   0.778160 0.692420 0.301500 -0.537570
C1    C     C_R   0.447723 0.820345 0.319420 0.695089
C2    C     C_R   0.552001 0.177830 0.682201 0.701763
C3    C     C_R   0.552276 0.179654 0.819420 0.695089
C4    C     C_R   0.447999 0.822170 0.182201 0.701763
C5    C     C_R   0.947724 0.679654 0.180580 0.695087
C6    C     C_R   0.052001 0.322171 0.817799 0.701763
C7    C     C_R   0.052276 0.320346 0.680580 0.695087
C8    C     C_R   0.947999 0.677829 0.317799 0.701764
O17   O     O_3   0.441370 0.714400 0.250000 -0.375680
O18   O     O_3   0.558630 0.285600 0.750000 -0.375680
O19   O     O_3   0.941370 0.785600 0.250000 -0.375679
O20   O     O_3   0.058630 0.214400 0.750000 -0.375679
V1    V     V_3+5 0.166530 0.756600 0.250000 1.368917
V2    V     V_3+5 0.833470 0.243400 0.750000 1.368917
V3    V     V_3+5 0.666530 0.743400 0.250000 1.368918
V4    V     V_3+5 0.333470 0.256600 0.750000 1.368917
C9    C     C_R   0.172714 0.439883 0.590214 -0.182619
C10   C     C_R   0.828348 0.590328 0.434575 -0.180672
C11   C     C_R   0.827285 0.560117 0.090214 -0.182621
C12   C     C_R   0.171650 0.409671 0.934576 -0.180671
C13   C     C_R   0.672708 0.060116 0.909784 -0.182623
C14   C     C_R   0.328345 0.909671 0.065424 -0.180672
C15   C     C_R   0.327291 0.939884 0.409784 -0.182624
C16   C     C_R   0.671653 0.090329 0.565424 -0.180671
H1    H     H_    0.288637 0.468281 0.584531 0.123824
H2    H     H_    0.712230 0.586568 0.460818 0.122493
H3    H     H_    0.711363 0.531719 0.084531 0.123825
H4    H     H_    0.287767 0.413430 0.960819 0.122494
H5    H     H_    0.788625 0.031714 0.915465 0.123829
H6    H     H_    0.212226 0.913431 0.039182 0.122493
H7    H     H_    0.211372 0.968284 0.415466 0.123828
H8    H     H_    0.787771 0.086569 0.539181 0.122494
C17   C     C_R   0.184050 0.399633 0.628891 -0.206165
C18   C     C_R   0.815292 0.628026 0.393877 -0.203423
C19   C     C_R   0.815951 0.600367 0.128891 -0.206166
C20   C     C_R   0.184707 0.371974 0.893877 -0.203423
C21   C     C_R   0.684044 0.100365 0.871107 -0.206170
C22   C     C_R   0.315290 0.871974 0.106123 -0.203425
C23   C     C_R   0.315955 0.899634 0.371107 -0.206170
C24   C     C_R   0.684709 0.128026 0.606123 -0.203426
H9    H     H_    0.308169 0.398528 0.652421 0.142479
H10   H     H_    0.689893 0.652960 0.390188 0.133120
H11   H     H_    0.691832 0.601471 0.152421 0.142480
H12   H     H_    0.310105 0.347038 0.890189 0.133119
H13   H     H_    0.808159 0.101467 0.847575 0.142480
H14   H     H_    0.189891 0.847040 0.109812 0.133121
H15   H     H_    0.191840 0.898532 0.347576 0.142480
H16   H     H_    0.810107 0.152961 0.609811 0.133120
C25   C     C_R   0.037370 0.361763 0.637606 -0.119976
C26   C     C_R   0.962778 0.634509 0.359032 -0.115122
C27   C     C_R   0.962630 0.638237 0.137606 -0.119975
C28   C     C_R   0.037222 0.365491 0.859032 -0.115123
C29   C     C_R   0.537371 0.138238 0.862394 -0.119972
C30   C     C_R   0.462777 0.865490 0.140967 -0.115123
C31   C     C_R   0.462629 0.861762 0.362394 -0.119972
C32   C     C_R   0.537223 0.134510 0.640968 -0.115124
C33   C     C_R   0.877458 0.364540 0.604987 0.159992
C34   C     C_R   0.124843 0.600367 0.365249 0.153202
C35   C     C_R   0.122541 0.635461 0.104987 0.159990
C36   C     C_R   0.875159 0.399634 0.865249 0.153205
C37   C     C_R   0.377466 0.135465 0.895016 0.159987
C38   C     C_R   0.624842 0.899633 0.134750 0.153203
C39   C     C_R   0.622534 0.864535 0.395016 0.159986
C40   C     C_R   0.375159 0.100366 0.634750 0.153205
C41   C     C_R   0.864459 0.406317 0.566743 0.168542
C42   C     C_R   0.139201 0.563023 0.407130 0.169756
C43   C     C_R   0.135539 0.593684 0.066742 0.168544
C44   C     C_R   0.860800 0.436978 0.907129 0.169754
C45   C     C_R   0.364466 0.093688 0.933261 0.168546
C46   C     C_R   0.639198 0.936977 0.092869 0.169755
C47   C     C_R   0.635534 0.906312 0.433261 0.168546
C48   C     C_R   0.360802 0.063023 0.592870 0.169754
C49   C     C_R   0.013941 0.443924 0.559325 0.053488
C50   C     C_R   0.989385 0.558184 0.441891 0.054560
C51   C     C_R   0.986058 0.556076 0.059325 0.053491
C52   C     C_R   0.010615 0.441815 0.941891 0.054558
C53   C     C_R   0.513939 0.056077 0.940675 0.053494
C54   C     C_R   0.489381 0.941815 0.058108 0.054560
C55   C     C_R   0.486060 0.943923 0.440676 0.053494
C56   C     C_R   0.510618 0.058185 0.558109 0.054557
C57   C     C_1   0.007262 0.485822 0.519132 -0.044773
C58   C     C_1   0.997973 0.519387 0.484571 -0.044775
C59   C     C_1   0.992737 0.514178 0.019132 -0.044771
C60   C     C_1   0.002027 0.480612 0.984571 -0.044777
C61   C     C_1   0.507258 0.014178 0.980867 -0.044769
C62   C     C_1   0.497968 0.980612 0.015429 -0.044778
C63   C     C_1   0.492741 0.985822 0.480868 -0.044768
C64   C     C_1   0.502031 0.019387 0.515429 -0.044780
N1    N     N_3   0.729774 0.324086 0.608134 -0.681253
H17   H     H_    0.652746 0.330745 0.641417 0.249223
H18   H     H_    0.785896 0.283738 0.607536 0.230302
N2    N     N_3   0.273537 0.600972 0.328532 -0.677024
H19   H     H_    0.218299 0.597163 0.291774 0.234432
H20   H     H_    0.348550 0.638207 0.332077 0.250383
N3    N     N_3   0.270222 0.675915 0.108133 -0.681255
H21   H     H_    0.347253 0.669257 0.141416 0.249223
H22   H     H_    0.214099 0.716263 0.107535 0.230302
N4    N     N_3   0.726466 0.399030 0.828531 -0.677023
H23   H     H_    0.781707 0.402838 0.791773 0.234430
H24   H     H_    0.651452 0.361795 0.832075 0.250383
N5    N     N_3   0.229794 0.175923 0.891872 -0.681257
H25   H     H_    0.152754 0.169265 0.858590 0.249223
H26   H     H_    0.285927 0.216269 0.892468 0.230300
N6    N     N_3   0.773537 0.899028 0.171467 -0.677024
H27   H     H_    0.718300 0.902837 0.208225 0.234433
H28   H     H_    0.848549 0.861793 0.167922 0.250383
N7    N     N_3   0.770208 0.824078 0.391871 -0.681257
H29   H     H_    0.847246 0.830735 0.358590 0.249223
H30   H     H_    0.714075 0.783731 0.392468 0.230301
N8    N     N_3   0.226465 0.100971 0.671468 -0.677022
H31   H     H_    0.281703 0.097163 0.708226 0.234431
H32   H     H_    0.151452 0.138206 0.667923 0.250383
C65   C     C_3   0.690363 0.410255 0.533746 -0.336915
C66   C     C_3   0.714809 0.377636 0.484185 -0.719433
H33   H     H_    0.831818 0.395150 0.461476 0.221385
H34   H     H_    0.743358 0.332909 0.492534 0.238120
H35   H     H_    0.585046 0.380455 0.461225 0.211315
H36   H     H_    0.566146 0.394000 0.554260 0.207806
H37   H     H_    0.656975 0.454568 0.524865 0.162649
C67   C     C_3   0.315227 0.528450 0.414488 -0.338569
C68   C     C_3   0.293211 0.470371 0.391211 -0.719632
H38   H     H_    0.177958 0.447287 0.410124 0.221654
H39   H     H_    0.263373 0.473735 0.349732 0.237813
H40   H     H_    0.424426 0.446391 0.396369 0.211693
H41   H     H_    0.438016 0.549198 0.396941 0.208751
H42   H     H_    0.349636 0.524542 0.455674 0.162183
C69   C     C_3   0.309634 0.589746 0.033745 -0.336916
C70   C     C_3   0.285176 0.622359 0.984181 -0.719439
H43   H     H_    0.168172 0.604840 0.961474 0.221388
H44   H     H_    0.256615 0.667086 0.992526 0.238117
H45   H     H_    0.414940 0.619541 0.961221 0.211316
H46   H     H_    0.433849 0.606006 0.054256 0.207811
H47   H     H_    0.343030 0.545433 0.024868 0.162648
C71   C     C_3   0.684777 0.471551 0.914486 -0.338570
C72   C     C_3   0.706794 0.529629 0.891207 -0.719634
H48   H     H_    0.822048 0.552713 0.910119 0.221653
H49   H     H_    0.736631 0.526263 0.849728 0.237815
H50   H     H_    0.575580 0.553610 0.896364 0.211693
H51   H     H_    0.561986 0.450803 0.896940 0.208751
H52   H     H_    0.650368 0.475462 0.955672 0.162185
C73   C     C_3   0.190377 0.089754 0.966261 -0.336920
C74   C     C_3   0.214860 0.122358 0.015828 -0.719457
H53   H     H_    0.331850 0.104828 0.038533 0.221391
H54   H     H_    0.243456 0.167084 0.007487 0.238117
H55   H     H_    0.085096 0.119547 0.038787 0.211318
H56   H     H_    0.066165 0.106022 0.945754 0.207821
H57   H     H_    0.156962 0.045441 0.975134 0.162651
C75   C     C_3   0.815224 0.971549 0.085511 -0.338570
C76   C     C_3   0.793207 0.029629 0.108787 -0.719632
H58   H     H_    0.677954 0.052712 0.089874 0.221653
H59   H     H_    0.763369 0.026266 0.150267 0.237812
H60   H     H_    0.924422 0.053609 0.103629 0.211694
H61   H     H_    0.938014 0.950802 0.103058 0.208752
H62   H     H_    0.849633 0.975457 0.044325 0.162184
C77   C     C_3   0.809624 0.910247 0.466260 -0.336918
C78   C     C_3   0.785141 0.877644 0.515829 -0.719456
H63   H     H_    0.668150 0.895175 0.538533 0.221391
H64   H     H_    0.756545 0.832918 0.507489 0.238115
H65   H     H_    0.914905 0.880456 0.538788 0.211318
H66   H     H_    0.933837 0.893978 0.445754 0.207821
H67   H     H_    0.843040 0.954560 0.475132 0.162649
C79   C     C_3   0.184778 0.028449 0.585512 -0.338571
C80   C     C_3   0.206792 0.970372 0.608793 -0.719631
H68   H     H_    0.322050 0.947288 0.589883 0.221652
H69   H     H_    0.236624 0.973739 0.650273 0.237816
H70   H     H_    0.075580 0.946391 0.603635 0.211694
H71   H     H_    0.061986 0.049198 0.603058 0.208750
H72   H     H_    0.150372 0.024538 0.544327 0.162186

loop_
_geom_bond_atom_site_label_1
_geom_bond_atom_site_label_2
_ccdc_geom_bond_type
O17   V3    S    
C77   C78   S    
C48   C56   A    
O18   V4    S    
C61   C62   T    
O12   V1    S    
O19   V1    S    
C29   C37   A    
N3    H21   S    
C10   H2    S    
C21   C29   A    
C36   C44   A    
C39   C47   A    
C57   C58   T    
C27   C35   A    
C25   C33   A    
N7    H29   S    
C38   N6    S    
N6    H27   S    
O16   V3    S    
C68   H39   S    
O11   C3    A    
C76   H58   S    
C17   C25   A    
O12   C4    A    
O8    V1    S    
C75   C76   S    
C34   C42   A    
C37   N5    S    
N5    H26   S    
N7    H30   S    
C30   C38   A    
C75   H62   S    
C9    C17   A    
C69   C70   S    
C26   C34   A    
O1    V3    S    
C32   C40   A    
C17   H9    S    
N2    H19   S    
O3    C2    A    
O2    V4    S    
C72   H50   S    
C67   H42   S    
C20   H12   S    
C74   H55   S    
C65   H37   S    
C45   C53   A    
C73   C74   S    
C15   C23   A    
O11   V2    S    
N6    H28   S    
C55   C63   S    
C23   H15   S    
C36   N4    S    
C72   H48   S    
C24   H16   S    
C46   C54   A    
C73   H57   S    
C79   H71   S    
C12   C20   A    
C78   H65   S    
O9    V1    S    
C80   H70   S    
C41   C49   A    
C12   C52   A    
O15   C7    A    
C68   H38   S    
C37   C45   A    
C14   C22   A    
O16   C8    A    
O7    V2    S    
C71   H52   S    
C5    C27   S    
C74   H54   S    
C4    C30   S    
C75   H61   S    
C21   H13   S    
C16   C56   A    
C70   H45   S    
C33   C41   A    
C78   H64   S    
C79   C80   S    
O5    V1    S    
C2    C32   S    
C69   H46   S    
C68   H40   S    
C10   C18   A    
O13   C5    A    
C18   H10   S    
O15   V4    S    
C70   H44   S    
C53   C61   S    
C70   H43   S    
C22   H14   S    
C16   C24   A    
C39   N7    S    
C31   C39   A    
C80   H68   S    
C49   C57   S    
C66   H34   S    
C10   C50   A    
C67   H41   S    
C9    C49   A    
N1    H18   S    
O10   V2    S    
C41   C65   S    
C59   C60   T    
C22   C30   A    
C47   C77   S    
C14   C54   A    
O8    C5    A    
C13   C53   A    
N3    H22   S    
C19   C27   A    
C48   C79   S    
C18   C26   A    
O14   C6    A    
C6    C28   S    
O4    C1    A    
O9    C1    A    
O6    V2    S    
C1    C31   S    
C76   H60   S    
C71   H51   S    
C56   C64   S    
C11   C19   A    
C74   H53   S    
C3    C29   S    
C66   H35   S    
C46   C75   S    
C13   H5    S    
C11   H3    S    
C78   H63   S    
C52   C60   S    
C15   H7    S    
C65   C66   S    
C77   H66   S    
C16   H8    S    
C47   C55   A    
O1    C4    A    
N8    H32   S    
C24   C32   A    
O2    C3    A    
O13   V3    S    
O14   V4    S    
C67   C68   S    
C20   C28   A    
N4    H24   S    
N4    H23   S    
C8    C26   S    
C28   C36   A    
O7    C6    A    
C43   C51   A    
N1    H17   S    
C35   N3    S    
C42   C50   A    
C33   N1    S    
C9    H1    S    
C7    C25   S    
O20   V2    S    
C66   H33   S    
C15   C55   A    
C13   C21   A    
C40   C48   A    
N5    H25   S    
C43   C69   S    
C35   C43   A    
O5    C8    A    
C40   N8    S    
O10   C2    A    
N8    H31   S    
O6    C7    A    
N2    H20   S    
C72   H49   S    
C42   C67   S    
O3    V4    S    
C23   C31   A    
C14   H6    S    
O4    V3    S    
C12   H4    S    
C34   N2    S    
C65   H36   S    
C69   H47   S    
C19   H11   S    
C54   C62   S    
C76   H59   S    
C38   C46   A    
C63   C64   T    
C45   C73   S    
C71   C72   S    
C77   H67   S    
C44   C52   A    
C51   C59   S    
C73   H56   S    
C50   C58   S    
C79   H72   S    
C11   C51   A    
C80   H69   S    
C44   C71   S    
