data_mof_unit_50859.cif
_audit_creation_date              2012-12-10T18:08:19-0500
_audit_creation_method            fapswitch 2.2
_symmetry_space_group_name_H-M    P1
_symmetry_Int_Tables_number       1
_space_group_crystal_system       triclinic
_cell_length_a                    12.611799
_cell_length_b                    13.157732
_cell_length_c                    14.1476
_cell_angle_alpha                 91.017403
_cell_angle_beta                  102.552109
_cell_angle_gamma                 82.128456
_cell_volume                      2269.81061488

loop_
_atom_site_label
_atom_site_type_symbol
_atom_type_description
_atom_site_fract_x
_atom_site_fract_y
_atom_site_fract_z
_atom_type_partial_charge
C1    C     C_R   0.438387 0.691052 0.485627 0.850034
C2    C     C_R   0.526427 0.035451 0.476337 0.003748
C3    C     C_R   0.625955 0.995068 0.449864 0.027011
C4    C     C_R   0.501532 0.500214 0.670700 0.894657
C5    C     C_R   0.635975 0.897476 0.408608 0.439383
C6    C     C_R   0.554769 0.835890 0.407829 -0.310009
C7    C     C_R   0.515988 0.135440 0.509628 -0.239506
C8    C     C_R   0.704252 0.151276 0.505158 -0.003148
C9    C     C_R   0.397271 0.800193 0.472173 -0.084538
C10   C     C_R   0.088986 0.350848 0.357822 0.380334
C11   C     C_R   0.802663 0.632093 0.609796 0.078241
C12   C     C_1   0.495777 0.499376 0.227175 -0.214382
C13   C     C_R   0.900501 0.674179 0.615960 -0.056682
C14   C     C_R   0.975593 0.629209 0.564507 -0.250437
C15   C     C_R   0.955865 0.541553 0.509119 0.031318
C16   C     C_R   0.561718 0.308103 0.512350 0.838242
C17   C     C_R   0.851047 0.509697 0.494465 0.223380
C18   C     C_R   0.037043 0.485205 0.467670 -0.060458
C19   C     C_R   0.008447 0.407833 0.399347 0.079836
C20   C     C_R   0.900761 0.385308 0.377442 -0.223692
C21   C     C_R   0.825002 0.431787 0.428179 -0.185308
C22   C     C_R   0.147347 0.499961 0.495586 -0.081923
C23   C     C_R   0.715031 0.051269 0.468641 -0.224614
C24   C     C_R   0.196524 0.373878 0.385504 -0.126816
C25   C     C_R   0.498458 0.499697 0.329287 0.873027
C26   C     C_1   0.504057 0.500373 0.772775 -0.201445
C27   C     C_1   0.503495 0.500303 0.858010 -0.026662
C28   C     C_1   0.501241 0.500227 0.957574 -0.010249
C29   C     C_1   0.498805 0.500000 0.042418 0.001160
C30   C     C_1   0.496346 0.499593 0.141943 -0.014636
C31   C     C_R   0.805700 0.198369 0.544760 0.126676
C32   C     C_R   0.896240 0.182169 0.500204 -0.203813
C33   C     C_R   0.995772 0.215376 0.544311 -0.127820
C34   C     C_R   0.598286 0.196927 0.513736 -0.118521
C35   C     C_R   0.005445 0.267824 0.631702 -0.115465
C36   C     C_R   0.916565 0.284562 0.676698 -0.161922
C37   C     C_R   0.818071 0.248391 0.634639 -0.089312
C38   C     C_3   0.128900 0.185551 0.300783 0.061853
C39   C     C_3   0.187579 0.166593 0.216798 -0.328479
C40   C     C_3   0.271377 0.069796 0.233747 -0.951173
C41   C     C_R   0.731178 0.671533 0.676137 0.183800
C42   C     C_R   0.669890 0.769613 0.661182 -0.098304
C43   C     C_R   0.612985 0.812154 0.730040 -0.154939
C44   C     C_R   0.620899 0.759104 0.816506 -0.119986
C45   C     C_R   0.296029 0.837135 0.494591 -0.181863
C46   C     C_R   0.686338 0.663861 0.834328 -0.142258
C47   C     C_R   0.741582 0.620234 0.764622 -0.153183
C48   C     C_R   0.925791 0.766026 0.674138 0.118261
C49   C     C_R   0.927715 0.858712 0.627283 -0.160613
C50   C     C_R   0.950497 0.946080 0.681392 -0.148648
C51   C     C_R   0.971809 0.941421 0.782465 -0.104912
C52   C     C_R   0.971329 0.849070 0.829629 -0.128619
C53   C     C_R   0.949039 0.761377 0.775771 -0.138409
C54   C     C_3   0.721966 0.881986 0.281196 0.065455
C55   C     C_3   0.683221 0.794033 0.215921 -0.327666
C56   C     C_R   0.265626 0.941728 0.502169 -0.163198
C57   C     C_3   0.688671 0.812540 0.110987 -0.968902
C58   C     C_R   0.338982 0.009378 0.494493 -0.181265
C59   C     C_R   0.442229 0.973400 0.472388 0.082798
C60   C     C_R   0.464169 0.869284 0.449329 0.007077
H1    H     H_    0.876773 0.325830 0.326484 0.189675
H2    H     H_    0.565612 0.760156 0.377475 0.185863
H3    H     H_    0.260300 0.336236 0.351833 0.152708
H4    H     H_    0.890447 0.143611 0.431418 0.122326
H5    H     H_    0.065069 0.201594 0.509946 0.120045
H6    H     H_    0.082010 0.294979 0.664787 0.129252
H7    H     H_    0.924542 0.324049 0.745127 0.124961
H8    H     H_    0.752014 0.258160 0.673134 0.116772
H9    H     H_    0.077020 0.123877 0.301360 0.154844
H10   H     H_    0.189335 0.178548 0.371432 0.114158
H11   H     H_    0.125958 0.158632 0.148730 0.223863
H12   H     H_    0.176983 0.553286 0.550425 0.140121
H13   H     H_    0.230318 0.233073 0.207891 0.219835
H14   H     H_    0.339185 0.080663 0.296084 0.273037
H15   H     H_    0.306409 0.054256 0.168575 0.260303
H16   H     H_    0.232280 0.002663 0.248151 0.270478
H17   H     H_    0.668169 0.813758 0.597191 0.145228
H18   H     H_    0.564596 0.887120 0.717152 0.142599
H19   H     H_    0.577837 0.792522 0.870358 0.135414
H20   H     H_    0.694519 0.623931 0.902293 0.140354
H21   H     H_    0.793472 0.547132 0.779886 0.115639
H22   H     H_    0.911161 0.863182 0.548995 0.160864
H23   H     H_    0.048770 0.664647 0.568681 0.144058
H24   H     H_    0.951862 0.017303 0.645053 0.152367
H25   H     H_    0.989248 0.009218 0.824210 0.126486
H26   H     H_    0.988574 0.845351 0.907936 0.128396
H27   H     H_    0.950131 0.690042 0.813149 0.124185
H28   H     H_    0.805154 0.892882 0.272489 0.163346
H29   H     H_    0.667886 0.955655 0.257290 0.123663
H30   H     H_    0.735571 0.720813 0.242507 0.240539
H31   H     H_    0.597197 0.786657 0.218348 0.208847
H32   H     H_    0.635749 0.884749 0.082452 0.262339
H33   H     H_    0.659368 0.747864 0.065802 0.263647
H34   H     H_    0.747889 0.403164 0.415831 0.206786
H35   H     H_    0.774395 0.817549 0.105665 0.265069
H36   H     H_    0.794111 0.015166 0.458541 0.159830
H37   H     H_    0.442475 0.168963 0.531223 0.158961
H38   H     H_    0.242126 0.785101 0.509837 0.151426
H39   H     H_    0.311633 0.088837 0.505779 0.112993
H40   H     H_    0.187361 0.970160 0.519343 0.136196
N1    N     N_R   0.222200 0.444680 0.454480 -0.116027
N2    N     N_R   0.776970 0.554780 0.545050 -0.143297
O1    O     O_R   0.366740 0.627160 0.478260 -0.608075
O2    O     O_3   0.730741 0.856563 0.379654 -0.660189
O3    O     O_R   0.544830 0.662520 0.507340 -0.604499
O4    O     O_R   0.410930 0.482320 0.611740 -0.595627
O5    O     O_R   0.589030 0.517680 0.640820 -0.590026
O6    O     O_R   0.455170 0.337480 0.492660 -0.608775
O7    O     O_R   0.633260 0.372840 0.521740 -0.623430
O8    O     O_R   0.410970 0.482320 0.359180 -0.586320
O9    O     O_R   0.589070 0.517680 0.388260 -0.617471
O10   O     O_3   0.058841 0.280417 0.285764 -0.655212
Zn1   Zn    Zn3+2 0.381090 0.476390 0.480580 0.928874
Zn2   Zn    Zn3+2 0.618910 0.523610 0.519420 0.930091

loop_
_geom_bond_atom_site_label_1
_geom_bond_atom_site_label_2
_ccdc_geom_bond_type
C49   H22   S    
C15   C18   A    
C46   H20   S    
C38   H10   S    
C9    C45   A    
C57   H32   S    
N1    Zn1   S    
C41   C42   A    
C3    C23   A    
C35   C36   A    
C43   C44   A    
C51   H25   S    
C36   H7    S    
C33   H5    S    
C43   H18   S    
C26   C27   T    
C22   N1    A    
C54   O2    S    
C36   C37   A    
O1    Zn1   S    
C18   C19   A    
C55   H30   S    
C45   H38   S    
C38   C39   S    
C21   H34   S    
C37   H8    S    
C8    C23   A    
C23   H36   S    
C24   N1    A    
C20   H1    S    
C55   H31   S    
C16   C34   S    
C46   C47   A    
C2    C7    A    
C45   C56   A    
C40   H14   S    
C10   O10   S    
C11   N2    A    
C1    O1    A    
C39   H13   S    
C5    O2    S    
C59   C60   A    
C57   H33   S    
C13   C14   A    
C14   H23   S    
C22   H12   S    
C44   C46   A    
C16   O7    A    
C48   C53   A    
C4    O5    A    
O4    Zn1   S    
C50   H24   S    
C51   C52   A    
C6    C60   A    
O3    Zn2   S    
C1    C9    S    
C32   H4    S    
C54   H29   S    
C39   C40   S    
C25   O9    A    
C2    C59   A    
C35   H6    S    
C10   C24   A    
C58   C59   A    
C4    O4    A    
C17   C21   A    
C31   C37   A    
O6    Zn1   S    
C17   N2    A    
O5    Zn2   S    
C29   C30   S    
N2    Zn2   S    
C31   C32   A    
C10   C19   A    
C50   C51   A    
C41   C47   A    
C53   H27   S    
C8    C34   A    
O8    Zn1   S    
C25   O8    A    
O7    Zn2   S    
C48   C49   A    
C24   H3    S    
C55   C57   S    
C7    C34   A    
C42   C43   A    
C56   H40   S    
C38   O10   S    
C52   C53   A    
C15   C17   A    
C54   C55   S    
C28   C29   T    
C7    H37   S    
C12   C30   T    
C18   C22   A    
C8    C31   S    
C44   H19   S    
C58   H39   S    
C3    C5    A    
C13   C48   S    
C4    C26   S    
C40   H15   S    
C12   C25   S    
C9    C60   A    
C32   C33   A    
C6    H2    S    
C19   C20   A    
C52   H26   S    
C2    C3    A    
C54   H28   S    
C11   C13   A    
C5    C6    A    
C33   C35   A    
C56   C58   A    
C11   C41   S    
O9    Zn2   S    
C47   H21   S    
C38   H9    S    
C16   O6    A    
C40   H16   S    
C20   C21   A    
C42   H17   S    
C49   C50   A    
C57   H35   S    
C27   C28   S    
C39   H11   S    
C14   C15   A    
C1    O3    A    
