data_mof_unit_40814.cif
_audit_creation_date              2012-10-26T20:18:37-0400
_audit_creation_method            fapswitch 2.2
_symmetry_space_group_name_H-M    P1
_symmetry_Int_Tables_number       1
_space_group_crystal_system       triclinic
_cell_length_a                    10.756079
_cell_length_b                    11.048039
_cell_length_c                    9.842867
_cell_angle_alpha                 111.381476
_cell_angle_beta                  98.287751
_cell_angle_gamma                 91.4011
_cell_volume                      1074.01513506

loop_
_atom_site_label
_atom_site_type_symbol
_atom_type_description
_atom_site_fract_x
_atom_site_fract_y
_atom_site_fract_z
_atom_type_partial_charge
C1    C     C_R   0.491722 0.253991 0.440118 0.547973
C2    C     C_2   0.498244 0.482658 0.918621 -0.022326
C3    C     C_R   0.260215 0.499180 0.501005 0.604926
C4    C     C_R   0.508888 0.746454 0.560221 0.563120
C5    C     C_R   0.739730 0.493773 0.497818 0.559967
C6    C     C_3   0.093925 0.521785 0.660494 0.148379
C7    C     C_3   0.950418 0.527555 0.659482 0.147438
C8    C     C_3   0.065740 0.600317 0.444202 0.038065
C9    C     C_3   0.059373 0.360465 0.395951 -0.232749
C10   C     C_3   0.122819 0.496396 0.502231 0.060796
C11   C     C_3   0.836847 0.284130 0.245052 -0.282758
C12   C     C_3   0.878018 0.489601 0.496884 0.029697
C13   C     C_3   0.871400 0.144389 0.164721 -0.330145
C14   C     C_3   0.782470 0.077029 0.018347 -0.420165
C15   C     C_3   0.921122 0.593262 0.437192 -0.272113
C16   C     C_3   0.915895 0.350639 0.402139 -0.122361
C17   C     C_2   0.489493 0.114412 0.405840 -0.153367
C18   C     C_2   0.508595 0.070724 0.515849 -0.116788
C19   C     C_2   0.513654 0.887707 0.596165 0.231985
C20   C     C_2   0.505602 0.931656 0.485612 -0.075606
C21   C     C_2   0.518031 0.505737 0.083200 0.336801
Cu1   Cu    Cu3+1 0.522160 0.521810 0.644910 0.971074
Cu2   Cu    Cu3+1 0.477840 0.478190 0.355090 0.992864
H1    H     H_    0.142436 0.617600 0.738418 0.085503
H2    H     H_    0.932380 0.630169 0.724597 0.062310
H3    H     H_    0.890641 0.690206 0.501828 0.133703
H4    H     H_    0.075356 0.345519 0.281915 0.106819
H5    H     H_    0.104426 0.281516 0.424939 0.163549
H6    H     H_    0.899935 0.285039 0.462244 0.204261
H7    H     H_    0.684003 0.069963 0.038349 0.169350
H8    H     H_    0.787400 0.132287 0.944642 0.186540
H9    H     H_    0.809950 0.976934 0.962166 0.146194
H10   H     H_    0.969233 0.145287 0.141250 0.167530
H11   H     H_    0.864986 0.086446 0.235470 0.167022
H12   H     H_    0.084189 0.576929 0.329257 0.174830
H13   H     H_    0.735897 0.275408 0.254463 0.190777
H14   H     H_    0.848381 0.343373 0.176863 0.160938
H15   H     H_    0.524684 0.927620 0.808230 0.335710
H16   H     H_    0.684112 0.595462 0.124394 0.285291
H17   H     H_    0.157466 0.460249 0.817565 0.317012
H18   H     H_    0.925944 0.492657 0.834448 0.314111
H19   H     H_    0.092346 0.758565 0.624677 0.316629
H20   H     H_    0.874624 0.568456 0.320844 0.135131
H21   H     H_    0.495526 0.864698 0.371023 0.130362
H22   H     H_    0.525555 0.138729 0.630170 0.215404
H23   H     H_    0.472213 0.047447 0.291014 0.102987
H24   H     H_    0.431829 0.402441 0.844182 0.143246
H25   H     H_    0.611745 0.635925 0.933751 0.206024
H26   H     H_    0.372083 0.381549 0.064545 0.164495
N1    N     N_2   0.444530 0.445420 0.137360 -0.306141
N2    N     N_2   0.555520 0.554510 0.862630 -0.361652
O1    O     O_R   0.511820 0.332340 0.577400 -0.492043
O2    O     O_3   0.615460 0.591155 0.179732 -0.655426
O3    O     O_3   0.139109 0.422450 0.707791 -0.669570
O4    O     O_3   0.906791 0.444531 0.725742 -0.656250
O5    O     O_3   0.122978 0.726896 0.528398 -0.703202
O6    O     O_R   0.474400 0.295500 0.332650 -0.508657
O7    O     O_R   0.336400 0.518400 0.622370 -0.468099
O8    O     O_R   0.298980 0.481560 0.377620 -0.518891
O9    O     O_R   0.525600 0.704500 0.667350 -0.521000
O10   O     O_R   0.488180 0.667660 0.422600 -0.457832
O11   O     O_R   0.701020 0.518440 0.622380 -0.460921
O12   O     O_R   0.663600 0.481600 0.377630 -0.472532
O13   O     O_3   0.525309 0.975702 0.740910 -0.738220

loop_
_geom_bond_atom_site_label_1
_geom_bond_atom_site_label_2
_ccdc_geom_bond_type
C6    C10   S    
Cu2   O8    S    
C3    O7    A    
C11   H14   S    
C13   H10   S    
C6    C7    S    
C1    O6    A    
C2    H24   S    
Cu1   O11   S    
C5    O12   A    
C11   C16   S    
C14   H8    S    
C1    C17   S    
C19   C20   D    
C7    H2    S    
C12   C15   S    
C7    O4    S    
C19   O13   S    
C6    H1    S    
C4    O9    A    
C2    C21   S    
Cu2   O12   S    
C17   C18   D    
C15   H20   S    
C13   H11   S    
C3    C10   S    
C13   C14   S    
C21   O2    S    
C11   C13   S    
C8    O5    S    
Cu1   O7    S    
H16   O2    S    
C14   H7    S    
Cu1   O1    S    
C21   N1    D    
C20   H21   S    
C9    C16   S    
C6    O3    S    
C5    O11   A    
C8    C15   S    
C18   C20   S    
H17   O3    S    
Cu1   O9    S    
C7    C12   S    
C1    O1    A    
C2    N2    D    
C18   H22   S    
Cu2   O10   S    
C17   H23   S    
C9    H4    S    
C5    C12   S    
C8    C10   S    
H26   N1    S    
C9    C10   S    
Cu2   O6    S    
H15   O13   S    
C3    O8    A    
Cu1   Cu2   S    
H18   O4    S    
C15   H3    S    
H19   O5    S    
C16   H6    S    
C4    C19   S    
C4    O10   A    
H25   N2    S    
C12   C16   S    
C9    H5    S    
C14   H9    S    
Cu1   N2    S    
Cu2   N1    S    
C8    H12   S    
C11   H13   S    
