data_mof_unit_17490.cif
_audit_creation_date              2012-12-10T17:13:36-0500
_audit_creation_method            fapswitch 2.2
_symmetry_space_group_name_H-M    P1
_symmetry_Int_Tables_number       1
_space_group_crystal_system       triclinic
_cell_length_a                    10.894802
_cell_length_b                    12.982711
_cell_length_c                    11.765477
_cell_angle_alpha                 99.636804
_cell_angle_beta                  94.157351
_cell_angle_gamma                 91.791517
_cell_volume                      1634.76184515

loop_
_atom_site_label
_atom_site_type_symbol
_atom_type_description
_atom_site_fract_x
_atom_site_fract_y
_atom_site_fract_z
_atom_type_partial_charge
C1    C     C_R   0.498377 0.299466 0.478608 0.852762
C2    C     C_3   0.877459 0.502315 0.499168 -0.308294
C3    C     C_3   0.918160 0.518826 0.373930 0.477632
C4    C     C_3   0.922112 0.394014 0.526375 0.120353
C5    C     C_R   0.503782 0.813760 0.531558 -0.102378
C6    C     C_R   0.491076 0.186191 0.465044 -0.080529
C7    C     C_R   0.401990 0.020814 0.361448 0.432749
C8    C     C_R   0.419334 0.128452 0.371879 -0.278804
C9    C     C_R   0.553964 0.135731 0.545203 -0.183736
C10   C     C_R   0.536673 0.028192 0.538591 0.057428
C11   C     C_R   0.455561 0.969038 0.448986 -0.012333
C12   C     C_R   0.259551 0.496259 0.498684 0.880938
C13   C     C_R   0.433236 0.861720 0.451634 0.388449
C14   C     C_R   0.584238 0.873124 0.617253 -0.233190
C15   C     C_R   0.598924 0.979998 0.622097 -0.144535
C16   C     C_R   0.385035 0.403480 0.021098 -0.290633
C17   C     C_R   0.399759 0.404964 0.140781 0.480855
C18   C     C_R   0.543063 0.549962 0.158773 0.051094
C19   C     C_R   0.538518 0.542705 0.035589 -0.082201
C20   C     C_R   0.458422 0.466943 0.966468 -0.084464
C21   C     C_R   0.454026 0.454500 0.843380 0.415040
C22   C     C_R   0.600261 0.594999 0.856244 0.032989
C23   C     C_R   0.500266 0.700466 0.521063 0.893916
C24   C     C_R   0.610396 0.607824 0.978559 0.291570
C25   C     C_R   0.739780 0.502671 0.500210 0.907751
C26   C     C_3   0.085432 0.579430 0.599969 0.106300
C27   C     C_3   0.941723 0.590195 0.601278 0.392437
C28   C     C_3   0.061443 0.532452 0.382570 0.059775
C29   C     C_3   0.064010 0.381578 0.509701 0.365270
C30   C     C_3   0.120108 0.495032 0.495827 -0.287965
Cu1   Cu    Cu3+1 0.509350 0.507730 0.615930 1.013638
Cu2   Cu    Cu3+1 0.490650 0.492270 0.384070 0.996778
H1    H     H_    0.636845 0.836391 0.679843 0.161565
H2    H     H_    0.661053 0.024818 0.689938 0.153162
H3    H     H_    0.375436 0.167513 0.306933 0.197909
H4    H     H_    0.615587 0.180557 0.613450 0.170071
H5    H     H_    0.120297 0.552180 0.680530 0.204472
H6    H     H_    0.654317 0.646383 0.813841 0.187499
H7    H     H_    0.315256 0.352028 0.970369 0.157274
H8    H     H_    0.602182 0.609077 0.213926 0.226358
H9    H     H_    0.084894 0.617781 0.395324 0.256487
H10   H     H_    0.907571 0.394514 0.617765 0.209043
N1    N     N_R   0.523430 0.519360 0.790130 -0.218660
N2    N     N_R   0.476570 0.480640 0.209880 -0.237042
O1    O     O_R   0.506640 0.354460 0.582000 -0.564651
O2    O     O_R   0.490840 0.341410 0.386200 -0.586384
O3    O     O_R   0.325590 0.506510 0.597900 -0.552737
O4    O     O_R   0.309790 0.493450 0.402100 -0.589271
O5    O     O_R   0.509160 0.658590 0.613800 -0.583766
O6    O     O_R   0.493360 0.645540 0.418000 -0.555135
O7    O     O_R   0.690210 0.506550 0.597900 -0.542998
O8    O     O_R   0.674410 0.493490 0.402100 -0.563655
Cl1   Cl    Cl    0.171331 0.702419 0.606228 -0.561745
Cl2   Cl    Cl    0.822059 0.281668 0.465985 -0.678169
N3    N     N_2   0.113555 0.486444 0.275093 -0.435337
H11   H     H_    0.087952 0.411243 0.235936 0.286548
C31   C     C_3   0.153159 0.555983 0.198952 -0.516769
H12   H     H_    0.160266 0.511128 0.110788 0.192854
H13   H     H_    0.245122 0.592141 0.231526 0.285584
H14   H     H_    0.086993 0.618582 0.193070 0.274761
N4    N     N_2   0.875498 0.429177 0.282975 -0.394581
H15   H     H_    0.808692 0.378769 0.301154 0.323488
C32   C     C_3   0.855716 0.441380 0.162458 -0.535885
H16   H     H_    0.872946 0.366483 0.106264 0.203942
H17   H     H_    0.916642 0.503243 0.140083 0.273796
H18   H     H_    0.759156 0.460768 0.143270 0.236474
Cl3   Cl    Cl    0.305204 0.789116 0.372357 -0.507416
Cl4   Cl    Cl    0.323422 0.958724 0.230227 -0.508408
N5    N     N_2   0.376535 0.374970 0.774109 -0.396301
H19   H     H_    0.285556 0.382178 0.790598 0.250089
C33   C     C_3   0.417622 0.269113 0.769598 -0.666792
H20   H     H_    0.375383 0.219390 0.689594 0.227305
H21   H     H_    0.388699 0.233880 0.843396 0.208033
H22   H     H_    0.519525 0.267724 0.770079 0.240348
Cl5   Cl    Cl    0.713945 0.705966 0.055887 -0.518625
N6    N     N_2   0.337985 0.325454 0.188945 -0.424126
H23   H     H_    0.310804 0.347687 0.269577 0.282596
C34   C     C_3   0.254235 0.247484 0.117662 -0.737791
H24   H     H_    0.217438 0.192702 0.171057 0.250898
H25   H     H_    0.303491 0.200846 0.048609 0.262057
H26   H     H_    0.174755 0.285435 0.079907 0.220862
Cl6   Cl    Cl    0.902126 0.569060 0.744404 -0.671188
N7    N     N_2   0.903352 0.695423 0.587058 -0.349590
H27   H     H_    0.815680 0.696612 0.548388 0.253823
C35   C     C_3   0.918312 0.780439 0.685511 -0.406831
H28   H     H_    0.837940 0.780029 0.738425 0.195452
H29   H     H_    0.923522 0.856198 0.653811 0.214216
H30   H     H_    0.002256 0.774409 0.742637 0.283453
Cl7   Cl    Cl    0.856714 0.637262 0.332911 -0.597210
N8    N     N_2   0.082190 0.304625 0.405659 -0.387892
H31   H     H_    0.157650 0.323812 0.365653 0.216372
C36   C     C_3   0.086995 0.193536 0.410904 -0.507633
H32   H     H_    0.173099 0.176964 0.459801 0.186090
H33   H     H_    0.086809 0.148861 0.321780 0.231782
H34   H     H_    0.007341 0.163212 0.449684 0.283905
N9    N     N_2   0.130444 0.349136 0.610467 -0.450568
H35   H     H_    0.219003 0.328178 0.595412 0.264374
C37   C     C_3   0.071964 0.285145 0.683575 -0.696000
H36   H     H_    0.032950 0.336502 0.756037 0.251397
H37   H     H_    0.141025 0.236915 0.721660 0.221989
H38   H     H_    0.998535 0.231091 0.635200 0.268168

loop_
_geom_bond_atom_site_label_1
_geom_bond_atom_site_label_2
_ccdc_geom_bond_type
N3    H11   S    
C32   H17   S    
C19   C20   A    
C12   O4    A    
C6    C9    A    
C31   H12   S    
C7    C8    A    
C35   H28   S    
C7    C11   A    
C26   C27   S    
Cu1   N1    S    
C3    C28   S    
N6    C34   S    
C10   C15   A    
C34   H25   S    
C1    O2    A    
C31   H13   S    
C22   H6    S    
C28   H9    S    
C29   N9    S    
N4    C32   S    
C18   C19   A    
N5    C33   S    
C18   H8    S    
Cu2   O8    S    
C7    Cl4   S    
C21   N1    A    
Cu1   Cu2   S    
C16   C17   A    
N9    C37   S    
C17   N6    S    
C2    C27   S    
C9    C10   A    
C15   H2    S    
C5    C13   A    
C4    C29   S    
C4    Cl2   S    
C35   H29   S    
C32   H18   S    
Cu1   O3    S    
Cu2   O4    S    
N5    H19   S    
C14   H1    S    
C12   O3    A    
C29   N8    S    
C28   N3    S    
C3    N4    S    
C1    C6    S    
N6    H23   S    
C33   H21   S    
C34   H24   S    
C31   H14   S    
C6    C8    A    
C36   H34   S    
C21   N5    S    
C8    H3    S    
C2    C4    S    
C25   O7    A    
C29   C30   S    
C18   N2    A    
C9    H4    S    
N8    C36   S    
N7    H27   S    
C5    C23   S    
C16   C20   A    
N9    H35   S    
C36   H33   S    
Cu2   N2    S    
C24   Cl5   S    
Cu2   O6    S    
C5    C14   A    
N7    C35   S    
C26   C30   S    
C37   H37   S    
N3    C31   S    
C22   C24   A    
C26   Cl1   S    
C13   Cl3   S    
C35   H30   S    
C12   C30   S    
Cu2   O2    S    
C27   Cl6   S    
Cu1   O7    S    
C23   O6    A    
C33   H22   S    
C26   H5    S    
C37   H38   S    
C3    Cl7   S    
C27   N7    S    
C2    C3    S    
C17   N2    A    
C33   H20   S    
C11   C13   A    
C34   H26   S    
C1    O1    A    
N8    H31   S    
C4    H10   S    
C28   C30   S    
C36   H32   S    
C19   C24   A    
C2    C25   S    
N4    H15   S    
C25   O8    A    
C23   O5    A    
C10   C11   A    
C16   H7    S    
C32   H16   S    
C20   C21   A    
C37   H36   S    
Cu1   O1    S    
C14   C15   A    
Cu1   O5    S    
C22   N1    A    
