data_mof_unit_67796.cif
_audit_creation_date              2012-12-10T16:53:54-0500
_audit_creation_method            fapswitch 2.2
_symmetry_space_group_name_H-M    P1
_symmetry_Int_Tables_number       1
_space_group_crystal_system       triclinic
_cell_length_a                    8.19514
_cell_length_b                    8.718487
_cell_length_c                    10.783215
_cell_angle_alpha                 94.273516
_cell_angle_beta                  84.455898
_cell_angle_gamma                 92.310537
_cell_volume                      764.290401323

loop_
_atom_site_label
_atom_site_type_symbol
_atom_type_description
_atom_site_fract_x
_atom_site_fract_y
_atom_site_fract_z
_atom_type_partial_charge
C1    C     C_R   0.542440 0.792043 0.498729 0.868288
C2    C     C_3   0.495348 0.523872 0.121110 -0.137762
C3    C     C_3   0.471188 0.351203 0.060744 -0.064736
C4    C     C_3   0.662910 0.598228 0.060649 -0.012094
C5    C     C_2   0.560198 0.954976 0.514436 -0.213911
C6    C     C_2   0.439670 0.045013 0.485651 -0.212342
C7    C     C_R   0.500231 0.509863 0.739910 0.843112
C8    C     C_R   0.457582 0.207991 0.501090 0.919048
C9    C     C_R   0.500212 0.513614 0.260134 0.833264
C10   C     C_3   0.334742 0.587928 0.942881 -0.410256
C11   C     C_3   0.352607 0.631971 0.083952 0.146108
C12   C     C_3   0.515467 0.350942 0.916751 -0.260154
C13   C     C_3   0.648146 0.622347 0.917531 -0.106637
C14   C     C_3   0.498287 0.518419 0.876524 -0.036627
H1    H     H_    0.232362 0.501548 0.932800 0.215297
H2    H     H_    0.645944 0.320153 0.893208 0.156291
H3    H     H_    0.299692 0.688967 0.895360 0.165373
H4    H     H_    0.760576 0.576305 0.862907 0.172141
N1    N     N_2   0.950330 0.457950 0.465890 -0.058341
N2    N     N_2   0.049670 0.542050 0.534110 -0.052402
O1    O     O_R   0.389250 0.738570 0.508370 -0.626543
O2    O     O_R   0.678390 0.711620 0.486510 -0.651749
O3    O     O_R   0.355430 0.513500 0.696140 -0.614019
O4    O     O_R   0.644580 0.486550 0.674270 -0.648351
O5    O     O_R   0.321610 0.288380 0.513490 -0.642946
O6    O     O_R   0.610750 0.261430 0.491630 -0.601236
O7    O     O_R   0.355420 0.513450 0.325730 -0.669260
O8    O     O_R   0.644570 0.486500 0.303860 -0.602973
Zn1   Zn    Zn3+2 0.306940 0.517990 0.514600 0.931335
Zn2   Zn    Zn3+2 0.693060 0.482010 0.485400 0.947599
C15   C     C_1   0.799446 0.492593 0.061068 0.123702
N3    N     N_1   0.904523 0.407006 0.054059 -0.211829
C16   C     C_1   0.573578 0.242461 0.113506 0.185371
N4    N     N_1   0.652136 0.159086 0.158510 -0.195271
C17   C     C_1   0.703621 0.012773 0.575062 0.194098
N5    N     N_1   0.818597 0.059375 0.621751 -0.228471
C18   C     C_1   0.296676 0.988715 0.424082 0.242853
N6    N     N_1   0.181979 0.946092 0.375390 -0.239195
C19   C     C_3   0.018971 0.312083 0.418292 -0.173147
C20   C     C_3   0.918305 0.222672 0.325485 -0.762696
H5    H     H_    0.818499 0.153330 0.370218 0.281439
H6    H     H_    0.874181 0.302365 0.262939 0.292833
H7    H     H_    0.993730 0.134580 0.270858 0.244039
H8    H     H_    0.139100 0.333282 0.366380 0.226096
H9    H     H_    0.031079 0.239742 0.497011 0.217079
C21   C     C_3   0.985897 0.684529 0.592215 -0.121750
C22   C     C_3   0.076566 0.741975 0.704147 -0.871824
H10   H     H_    0.046990 0.665324 0.781532 0.235446
H11   H     H_    0.209757 0.749325 0.683323 0.301988
H12   H     H_    0.040244 0.860783 0.734043 0.245493
H13   H     H_    0.994426 0.772577 0.522684 0.197058
H14   H     H_    0.858463 0.666924 0.629879 0.222089
C23   C     C_1   0.390664 0.799907 0.098929 0.213444
N7    N     N_1   0.411632 0.931716 0.111505 -0.204863
C24   C     C_3   0.186713 0.624662 0.165028 -0.397163
C25   C     C_3   0.058529 0.725889 0.128264 -0.880171
H15   H     H_    0.090772 0.850831 0.135968 0.280306
H16   H     H_    0.028201 0.692446 0.032328 0.261511
H17   H     H_    0.960471 0.706714 0.202493 0.279796
H18   H     H_    0.135484 0.507276 0.173356 0.245906
H19   H     H_    0.200103 0.676550 0.260640 0.261196
C26   C     C_1   0.422962 0.229618 0.844490 0.211020
N8    N     N_1   0.350793 0.134916 0.789442 -0.213815
C27   C     C_1   0.304309 0.285646 0.087728 0.190631
N9    N     N_1   0.175482 0.228045 0.103201 -0.213710
C28   C     C_3   0.646218 0.788743 0.869632 -0.390222
C29   C     C_3   0.782080 0.901391 0.909101 -0.819961
H20   H     H_    0.740508 0.968822 0.995026 0.291814
H21   H     H_    0.893980 0.841922 0.923453 0.254370
H22   H     H_    0.811768 0.986672 0.839057 0.257955
H23   H     H_    0.661802 0.777203 0.766242 0.191649
H24   H     H_    0.527579 0.844712 0.888966 0.221210
C30   C     C_1   0.700338 0.740344 0.137904 0.183314
N10   N     N_1   0.722731 0.850135 0.202385 -0.205134

loop_
_geom_bond_atom_site_label_1
_geom_bond_atom_site_label_2
_ccdc_geom_bond_type
C2    C4    S    
C24   C25   S    
O3    Zn1   S    
C1    O1    A    
C18   N6    T    
C7    O4    A    
O7    Zn1   S    
C12   C26   S    
C30   N10   T    
C28   H23   S    
C11   C23   S    
C25   H17   S    
C12   C14   S    
C19   H9    S    
C29   H22   S    
C24   H18   S    
C27   N9    T    
C20   H7    S    
N1    N2    D    
O8    Zn2   S    
C2    C3    S    
C9    O8    A    
C6    C18   S    
C11   C24   S    
C1    O2    A    
C22   H11   S    
C3    C27   S    
C8    O5    A    
C2    C9    S    
C4    C30   S    
C26   N8    T    
N1    C19   S    
C13   H4    S    
C19   H8    S    
C12   H2    S    
C2    C11   S    
C5    C17   S    
C20   H6    S    
C20   H5    S    
C16   N4    T    
C25   H16   S    
O6    Zn2   S    
C22   H12   S    
O4    Zn2   S    
C13   C28   S    
C7    C14   S    
O5    Zn1   S    
C5    C6    D    
C7    O3    A    
C4    C15   S    
C10   C11   S    
C3    C16   S    
C10   H3    S    
C29   H20   S    
C19   C20   S    
C21   H14   S    
C1    C5    S    
C8    O6    A    
C25   H15   S    
C9    O7    A    
N2    Zn1   S    
C10   C14   S    
C24   H19   S    
C28   C29   S    
C21   C22   S    
C6    C8    S    
C3    C12   S    
O2    Zn2   S    
C4    C13   S    
C10   H1    S    
C13   C14   S    
N1    Zn2   S    
O1    Zn1   S    
C21   H13   S    
C15   N3    T    
N2    C21   S    
C22   H10   S    
C23   N7    T    
C28   H24   S    
C29   H21   S    
C17   N5    T    
