data_mof_unit_29843.cif
_audit_creation_date              2012-12-10T17:56:42-0500
_audit_creation_method            fapswitch 2.2
_symmetry_space_group_name_H-M    P1
_symmetry_Int_Tables_number       1
_space_group_crystal_system       triclinic
_cell_length_a                    10.833246
_cell_length_b                    9.579028
_cell_length_c                    10.854746
_cell_angle_alpha                 88.903626
_cell_angle_beta                  92.179568
_cell_angle_gamma                 90.036527
_cell_volume                      1125.39735062

loop_
_atom_site_label
_atom_site_type_symbol
_atom_type_description
_atom_site_fract_x
_atom_site_fract_y
_atom_site_fract_z
_atom_type_partial_charge
C1    C     C_R   0.262237 0.499999 0.499972 0.771678
C2    C     C_R   0.737752 0.500056 0.499904 0.784005
C3    C     C_R   0.936514 0.626648 0.508664 -0.184258
C4    C     C_R   0.064314 0.626624 0.508683 -0.189096
C5    C     C_R   0.416260 0.073045 0.426534 0.263145
C6    C     C_R   0.584346 0.070197 0.572658 0.259218
C7    C     C_R   0.416967 0.925236 0.428435 -0.069100
C8    C     C_R   0.583494 0.922396 0.571043 -0.037179
C9    C     C_R   0.508540 0.502167 0.261907 0.817022
C10   C     C_R   0.484770 0.498540 0.736204 0.812840
C11   C     C_R   0.488770 0.767908 0.106032 -0.136735
C12   C     C_R   0.383311 0.735463 0.871575 -0.121172
C13   C     C_R   0.434409 0.881327 0.043275 -0.167938
C14   C     C_R   0.377042 0.863949 0.928151 -0.145285
C15   C     C_R   0.444395 0.621038 0.931514 0.055781
C16   C     C_R   0.482527 0.631835 0.056671 0.056419
C17   C     C_R   0.514485 0.507505 0.125593 -0.187456
C18   C     C_R   0.464941 0.495551 0.870002 -0.188461
C19   C     C_R   0.528839 0.380552 0.062763 0.149447
C20   C     C_R   0.488160 0.371985 0.939169 0.158839
C21   C     C_R   0.063400 0.374160 0.491437 -0.187668
C22   C     C_R   0.935728 0.374324 0.490090 -0.190061
C23   C     C_R   0.871677 0.500377 0.499487 -0.015522
C24   C     C_R   0.128308 0.500257 0.500170 -0.012508
Cu1   Cu    Cu3+1 0.500000 0.640660 0.500000 0.926274
Cu2   Cu    Cu3+1 0.500000 0.359340 0.500000 0.931086
H1    H     H_    0.540123 0.792181 0.189727 0.167657
H2    H     H_    0.337069 0.725479 0.782045 0.147394
H3    H     H_    0.436397 0.982323 0.085336 0.126271
H4    H     H_    0.330515 0.950592 0.880944 0.135925
H5    H     H_    0.110870 0.275411 0.485311 0.150480
H6    H     H_    0.887562 0.275875 0.481157 0.148866
H7    H     H_    0.888810 0.725328 0.516032 0.147026
H8    H     H_    0.112702 0.725321 0.515821 0.147133
H9    H     H_    0.351024 0.868239 0.371150 0.147874
H10   H     H_    0.650282 0.863094 0.627344 0.143142
N1    N     N_R   0.500000 0.852070 0.500000 -0.199266
N2    N     N_R   0.500000 0.147940 0.500000 -0.158034
O1    O     O_R   0.319640 0.618740 0.499990 -0.593817
O2    O     O_R   0.680360 0.618740 0.500010 -0.588816
O3    O     O_R   0.319620 0.381170 0.499990 -0.591393
O4    O     O_R   0.680380 0.381170 0.500010 -0.587470
O5    O     O_R   0.500000 0.618810 0.319650 -0.593404
O6    O     O_R   0.500000 0.618810 0.680350 -0.582728
O7    O     O_R   0.499970 0.381240 0.319640 -0.575915
O8    O     O_R   0.500030 0.381240 0.680360 -0.580434
C25   C     C_3   0.594183 0.255557 0.123427 -0.810033
H11   H     H_    0.642257 0.193100 0.054758 0.220717
H12   H     H_    0.667386 0.289821 0.190638 0.232221
H13   H     H_    0.527154 0.187356 0.170198 0.241869
C26   C     C_3   0.451110 0.230969 0.889588 -0.819497
H14   H     H_    0.402598 0.172021 0.961743 0.212525
H15   H     H_    0.382285 0.239291 0.811498 0.242058
H16   H     H_    0.533032 0.171520 0.862584 0.240526
C27   C     C_3   0.319267 0.137797 0.340206 -0.837678
H17   H     H_    0.226411 0.111434 0.373606 0.197921
H18   H     H_    0.324454 0.250667 0.326702 0.286113
H19   H     H_    0.326438 0.093037 0.247214 0.186191
C28   C     C_3   0.684686 0.132771 0.653920 -0.834458
H20   H     H_    0.774403 0.122715 0.609024 0.204513
H21   H     H_    0.670365 0.241789 0.677400 0.286616
H22   H     H_    0.692060 0.074339 0.743309 0.186589

loop_
_geom_bond_atom_site_label_1
_geom_bond_atom_site_label_2
_ccdc_geom_bond_type
C10   O8    A    
C15   C18   A    
C26   H15   S    
C27   H17   S    
C6    N2    A    
C9    O7    A    
C13   C14   A    
C25   H13   S    
C11   C13   A    
C11   C16   A    
C3    C23   A    
C19   C20   A    
C12   C15   A    
C11   H1    S    
C13   H3    S    
C26   H16   S    
Cu1   N1    S    
Cu1   O5    S    
C7    N1    A    
C28   H20   S    
C25   H12   S    
C21   C22   A    
Cu1   O1    S    
C21   H5    S    
C27   H19   S    
C22   H6    S    
C2    O4    A    
C4    C24   A    
Cu1   O6    S    
C9    C17   S    
C17   C19   A    
C14   H4    S    
C20   C26   S    
C18   C20   A    
C27   H18   S    
Cu1   O2    S    
C10   C18   S    
C4    H8    S    
C21   C24   A    
C9    O5    A    
C8    N1    A    
C3    H7    S    
C10   O6    A    
C15   C16   A    
C25   H11   S    
C2    O2    A    
Cu2   O4    S    
C1    C24   S    
C8    H10   S    
C19   C25   S    
C1    O3    A    
C2    C23   S    
C5    C7    A    
C1    O1    A    
C22   C23   A    
Cu2   N2    S    
C28   H22   S    
C6    C8    A    
Cu2   O7    S    
C12   H2    S    
Cu1   Cu2   S    
C5    N2    A    
Cu2   O8    S    
C7    H9    S    
C6    C28   S    
C5    C27   S    
C3    C4    A    
C26   H14   S    
Cu2   O3    S    
C12   C14   A    
C16   C17   A    
C28   H21   S    
