data_mof_unit_21861.cif
_audit_creation_date              2012-12-10T18:04:52-0500
_audit_creation_method            fapswitch 2.2
_symmetry_space_group_name_H-M    P1
_symmetry_Int_Tables_number       1
_space_group_crystal_system       triclinic
_cell_length_a                    10.788352
_cell_length_b                    9.621432
_cell_length_c                    17.866217
_cell_angle_alpha                 89.628656
_cell_angle_beta                  92.830441
_cell_angle_gamma                 90.156649
_cell_volume                      1852.19579223

loop_
_atom_site_label
_atom_site_type_symbol
_atom_type_description
_atom_site_fract_x
_atom_site_fract_y
_atom_site_fract_z
_atom_type_partial_charge
C1    C     C_R   0.262680 0.499680 0.499715 0.887854
C2    C     C_R   0.737331 0.500152 0.500016 0.944840
C3    C     C_1   0.498771 0.514094 0.965982 0.078214
C4    C     C_1   0.503154 0.513124 0.033145 0.093447
C5    C     C_R   0.060614 0.429854 0.443613 0.305641
C6    C     C_R   0.939039 0.572756 0.556568 0.343063
C7    C     C_R   0.930282 0.424960 0.445159 0.254868
C8    C     C_R   0.069032 0.567627 0.559103 0.271608
C9    C     C_R   0.500509 0.500728 0.355295 0.886650
C10   C     C_R   0.500673 0.500072 0.644478 0.833847
C11   C     C_R   0.871423 0.500479 0.500085 -0.208164
C12   C     C_R   0.128698 0.498160 0.501470 -0.230872
C13   C     C_R   0.433352 0.615085 0.842266 0.319368
C14   C     C_R   0.522776 0.381892 0.152341 0.308691
C15   C     C_R   0.495990 0.634211 0.151995 0.352204
C16   C     C_R   0.559170 0.404177 0.851641 0.390007
C17   C     C_R   0.437718 0.612194 0.763835 0.164553
C18   C     C_R   0.514916 0.378571 0.230496 0.186668
C19   C     C_R   0.496644 0.632813 0.231421 0.095469
C20   C     C_R   0.562357 0.399756 0.772817 0.092894
C21   C     C_R   0.499607 0.502687 0.727938 -0.223031
C22   C     C_R   0.503565 0.503808 0.271409 -0.217608
C23   C     C_R   0.404525 0.073425 0.465287 0.396534
C24   C     C_R   0.595007 0.926295 0.535043 0.396302
C25   C     C_R   0.595643 0.072801 0.534369 0.407759
C26   C     C_R   0.405168 0.926649 0.464561 0.419613
C27   C     C_R   0.495786 0.511521 0.885643 -0.112872
C28   C     C_R   0.508583 0.509263 0.113536 -0.099570
Cu1   Cu    Cu3+1 0.500000 0.640660 0.500000 0.981533
Cu2   Cu    Cu3+1 0.500000 0.359340 0.500000 0.980791
N1    N     N_R   0.500000 0.852070 0.500000 -0.332710
N2    N     N_R   0.500000 0.147930 0.500000 -0.333663
O1    O     O_R   0.319640 0.618740 0.499990 -0.561528
O2    O     O_R   0.680360 0.381260 0.500010 -0.551766
O3    O     O_R   0.680360 0.618740 0.500010 -0.557663
O4    O     O_R   0.319640 0.381260 0.499990 -0.549357
O5    O     O_R   0.500000 0.618830 0.391250 -0.583224
O6    O     O_R   0.500000 0.381170 0.608750 -0.622197
O7    O     O_R   0.500000 0.618830 0.608750 -0.579307
O8    O     O_R   0.500000 0.381170 0.391250 -0.566130
O9    O     O_3   0.367928 0.721959 0.873642 -0.713330
H1    H     H_    0.367475 0.710990 0.928666 0.353587
O10   O     O_3   0.541835 0.257133 0.116348 -0.719191
H2    H     H_    0.558745 0.273219 0.063118 0.362097
O11   O     O_3   0.484841 0.755001 0.109432 -0.712868
H3    H     H_    0.479539 0.837510 0.141522 0.342348
O12   O     O_3   0.618374 0.305768 0.897726 -0.718611
H4    H     H_    0.651173 0.229425 0.867714 0.364657
N3    N     N_2   0.376621 0.719352 0.720845 -0.385249
H5    H     H_    0.285995 0.734617 0.734699 0.306194
C29   C     C_3   0.444811 0.849047 0.718316 -0.531978
H6    H     H_    0.400793 0.917928 0.674609 0.207446
H7    H     H_    0.542468 0.830551 0.704333 0.221632
H8    H     H_    0.444094 0.902584 0.773186 0.246720
N4    N     N_2   0.519535 0.247285 0.267779 -0.382300
H9    H     H_    0.597308 0.190075 0.256970 0.285897
C30   C     C_3   0.406511 0.166381 0.258401 -0.594551
H10   H     H_    0.411681 0.075470 0.296829 0.222523
H11   H     H_    0.393969 0.127476 0.200148 0.254447
H12   H     H_    0.324708 0.230080 0.271564 0.240601
N5    N     N_2   0.488159 0.760065 0.271205 -0.421894
H13   H     H_    0.415520 0.823935 0.254034 0.248785
C31   C     C_3   0.605094 0.831342 0.286075 -0.595405
H14   H     H_    0.591338 0.919125 0.324784 0.211827
H15   H     H_    0.641542 0.872706 0.233311 0.224689
H16   H     H_    0.674509 0.759609 0.313242 0.248079
N6    N     N_2   0.635523 0.295576 0.740675 -0.451135
H17   H     H_    0.588854 0.228826 0.704447 0.272519
C32   C     C_3   0.758120 0.339737 0.721079 -0.600357
H18   H     H_    0.812637 0.248020 0.704842 0.252262
H19   H     H_    0.807734 0.389602 0.769887 0.247023
H20   H     H_    0.751793 0.414364 0.673417 0.228758
O13   O     O_3   0.306015 0.137573 0.427960 -0.636449
H21   H     H_    0.337873 0.222641 0.405017 0.382539
O14   O     O_3   0.692231 0.862166 0.573745 -0.632003
H22   H     H_    0.659500 0.778148 0.597342 0.373599
O15   O     O_3   0.694582 0.135888 0.571426 -0.665607
H23   H     H_    0.663572 0.222174 0.592207 0.355105
O16   O     O_3   0.308480 0.862738 0.425275 -0.656146
H24   H     H_    0.341637 0.779737 0.401569 0.365411
O17   O     O_3   0.123856 0.374094 0.385458 -0.719201
H25   H     H_    0.068638 0.373500 0.339522 0.334927
O18   O     O_3   0.874788 0.639954 0.610859 -0.718210
H26   H     H_    0.933070 0.690249 0.645622 0.391592
O19   O     O_3   0.858081 0.349887 0.393611 -0.712746
H27   H     H_    0.906735 0.269649 0.376939 0.351511
O20   O     O_3   0.134249 0.629133 0.618698 -0.719343
H28   H     H_    0.216960 0.585543 0.625453 0.327047

loop_
_geom_bond_atom_site_label_1
_geom_bond_atom_site_label_2
_ccdc_geom_bond_type
C2    O3    A    
N4    H9    S    
C31   H15   S    
O13   H21   S    
C14   C18   A    
C20   N6    S    
O10   H2    S    
C13   O9    S    
O17   H25   S    
C30   H10   S    
C1    O1    A    
O15   H23   S    
C15   C19   A    
C25   O15   S    
C9    C22   S    
C30   H11   S    
Cu1   O1    S    
Cu2   O6    S    
N5    C31   S    
O9    H1    S    
C23   C26   A    
C32   H19   S    
O12   H4    S    
N3    C29   S    
C16   C20   A    
C2    O2    A    
C16   C27   A    
C31   H16   S    
C26   N1    A    
C32   H18   S    
C1    C12   S    
C23   O13   S    
C2    C11   S    
C16   O12   S    
C4    C28   S    
C10   C21   S    
Cu2   O2    S    
N6    H17   S    
C19   C22   A    
C24   C25   A    
C5    C12   A    
C17   N3    S    
C6    C11   A    
C5    C7    A    
C30   H12   S    
C6    C8    A    
O19   H27   S    
C9    O8    A    
C17   C21   A    
C29   H6    S    
C10   O7    A    
N6    C32   S    
C32   H20   S    
C7    C11   A    
O14   H22   S    
Cu1   Cu2   S    
C5    O17   S    
O18   H26   S    
C8    C12   A    
Cu1   O7    S    
C9    O5    A    
Cu2   O8    S    
C18   N4    S    
N4    C30   S    
O16   H24   S    
C15   O11   S    
C3    C4    T    
C6    O18   S    
C18   C22   A    
C24   O14   S    
Cu2   O4    S    
Cu1   O3    S    
C26   O16   S    
C13   C17   A    
C10   O6    A    
C29   H8    S    
C14   C28   A    
C23   N2    A    
C8    O20   S    
C3    C27   S    
C24   N1    A    
Cu1   N1    S    
Cu2   N2    S    
C15   C28   A    
C7    O19   S    
C19   N5    S    
N5    H13   S    
C31   H14   S    
O11   H3    S    
C20   C21   A    
O20   H28   S    
N3    H5    S    
Cu1   O5    S    
C13   C27   A    
C29   H7    S    
C1    O4    A    
C14   O10   S    
C25   N2    A    
