data_mof_unit_40605.cif
_audit_creation_date              2012-10-26T19:08:24-0400
_audit_creation_method            fapswitch 2.2
_symmetry_space_group_name_H-M    P1
_symmetry_Int_Tables_number       1
_space_group_crystal_system       triclinic
_cell_length_a                    14.694542
_cell_length_b                    14.658848
_cell_length_c                    19.316054
_cell_angle_alpha                 76.854558
_cell_angle_beta                  102.881366
_cell_angle_gamma                 114.828692
_cell_volume                      3638.80351416

loop_
_atom_site_label
_atom_site_type_symbol
_atom_type_description
_atom_site_fract_x
_atom_site_fract_y
_atom_site_fract_z
_atom_type_partial_charge
C1    C     C_R   0.880312 0.312001 0.512161 0.548568
C2    C     C_R   0.290969 0.822748 0.494230 -0.137601
C3    C     C_R   0.641036 0.075017 0.524004 0.020222
C4    C     C_R   0.360714 0.920470 0.506133 0.021449
C5    C     C_R   0.679852 0.998115 0.534111 0.064846
C6    C     C_R   0.322588 0.995292 0.505615 0.064167
C7    C     C_R   0.535029 0.048160 0.520368 0.033958
C8    C     C_R   0.467285 0.945502 0.517769 0.033365
C9    C     C_R   0.508320 0.870696 0.529088 -0.141395
C10   C     C_R   0.494866 0.120306 0.521003 -0.139584
C11   C     C_R   0.611943 0.896414 0.537836 -0.132542
C12   C     C_R   0.119653 0.687932 0.488842 0.547549
C13   C     C_R   0.391395 0.094242 0.514311 -0.132982
C14   C     C_R   0.717315 0.671920 0.383316 -0.161371
C15   C     C_R   0.282618 0.328009 0.616715 -0.162739
C16   C     C_R   0.999648 0.499946 0.632571 0.546965
C17   C     C_R   0.000373 0.500096 0.367424 0.547294
C18   C     C_R   0.797952 0.640727 0.400849 0.037456
C19   C     C_R   0.201815 0.358974 0.598938 0.037578
C20   C     C_R   0.714389 0.508368 0.489538 0.034142
C21   C     C_R   0.285952 0.492058 0.510856 0.033574
C22   C     C_R   0.629060 0.535638 0.473815 0.002509
C23   C     C_R   0.813018 0.203706 0.520739 -0.019033
C24   C     C_R   0.371484 0.465081 0.526881 0.002619
C25   C     C_R   0.633016 0.620186 0.419814 0.038246
C26   C     C_R   0.367363 0.380325 0.580722 0.038682
C27   C     C_R   0.541265 0.483311 0.509741 0.023130
C28   C     C_R   0.459527 0.517748 0.491252 0.021348
C29   C     C_R   0.468760 0.603748 0.438000 -0.146426
C30   C     C_R   0.532238 0.397612 0.563245 -0.146724
C31   C     C_R   0.553451 0.653258 0.402919 -0.130839
C32   C     C_R   0.447253 0.347700 0.597999 -0.136158
C33   C     C_R   0.073269 0.479293 0.761510 -0.120805
C34   C     C_R   0.187023 0.795522 0.488897 -0.018347
C35   C     C_R   0.926787 0.520877 0.238482 -0.121002
C36   C     C_R   0.073723 0.478344 0.834080 -0.008260
C37   C     C_R   0.926396 0.521993 0.165895 -0.008269
C38   C     C_R   0.998706 0.499902 0.854221 0.079708
C39   C     C_R   0.001506 0.500625 0.145713 0.079684
C40   C     C_R   0.923627 0.521119 0.800988 -0.008556
C41   C     C_R   0.076636 0.479461 0.198925 -0.008730
C42   C     C_R   0.924449 0.520191 0.728892 -0.123239
C43   C     C_R   0.075749 0.480219 0.271042 -0.123153
C44   C     C_R   0.999048 0.499856 0.708683 -0.015699
C45   C     C_R   0.785814 0.024927 0.539915 0.001526
C46   C     C_R   0.001037 0.500332 0.291293 -0.016060
C47   C     C_R   0.001124 0.500157 0.069986 0.322221
C48   C     C_R   0.999073 0.500413 0.929937 0.322207
C49   C     C_3   0.154494 0.452052 0.887590 -0.392508
C50   C     C_3   0.845583 0.548251 0.112412 -0.392543
C51   C     C_3   0.842514 0.547053 0.817816 -0.393417
C52   C     C_3   0.157866 0.453747 0.182051 -0.393012
C53   C     C_3   0.830729 0.945994 0.551687 -0.410934
C54   C     C_3   0.172342 0.045388 0.497057 -0.410146
C55   C     C_R   0.216359 0.968993 0.497023 0.001504
C56   C     C_R   0.851239 0.127727 0.533968 -0.115821
C57   C     C_R   0.149827 0.868723 0.489562 -0.115610
C58   C     C_R   0.709047 0.177000 0.515254 -0.142121
Cu1   Cu    Cu3+1 0.081740 0.475680 0.518680 0.928596
Cu2   Cu    Cu3+1 0.918260 0.524320 0.481320 0.927994
H1    H     H_    0.131099 0.462983 0.746495 0.134961
H2    H     H_    0.278577 0.263070 0.658027 0.091329
H3    H     H_    0.411666 0.635314 0.422044 0.091222
H4    H     H_    0.589730 0.366599 0.579654 0.088284
H5    H     H_    0.866738 0.536330 0.688394 0.132274
H6    H     H_    0.133495 0.464122 0.311524 0.132819
H7    H     H_    0.637850 0.835097 0.546614 0.118284
H8    H     H_    0.366224 0.153297 0.515707 0.119912
H9    H     H_    0.315572 0.765786 0.488189 0.116786
H10   H     H_    0.682346 0.237744 0.501725 0.124270
H11   H     H_    0.068902 0.847266 0.485454 0.127411
H12   H     H_    0.868881 0.537038 0.253524 0.134957
H13   H     H_    0.932105 0.148648 0.538273 0.126286
H14   H     H_    0.462552 0.790362 0.534173 0.107346
H15   H     H_    0.541700 0.197499 0.529402 0.100364
H16   H     H_    0.146123 0.445639 0.944279 0.157084
H17   H     H_    0.151262 0.377681 0.880327 0.126008
H18   H     H_    0.230256 0.511249 0.878154 0.137754
H19   H     H_    0.854018 0.554836 0.055711 0.156989
H20   H     H_    0.769848 0.488946 0.121793 0.137818
H21   H     H_    0.848691 0.622533 0.119763 0.125980
H22   H     H_    0.850184 0.552591 0.875229 0.156358
H23   H     H_    0.556832 0.718665 0.362162 0.112316
H24   H     H_    0.846066 0.621703 0.786327 0.127043
H25   H     H_    0.766865 0.488075 0.802528 0.135480
H26   H     H_    0.150239 0.448307 0.124626 0.156372
H27   H     H_    0.233456 0.512784 0.197368 0.135492
H28   H     H_    0.154421 0.379103 0.213486 0.128527
H29   H     H_    0.914570 0.981031 0.554904 0.121804
H30   H     H_    0.812142 0.894239 0.602868 0.133367
H31   H     H_    0.800027 0.901383 0.506388 0.132967
H32   H     H_    0.088182 0.011157 0.489818 0.122216
H33   H     H_    0.199138 0.075272 0.549019 0.129472
H34   H     H_    0.443869 0.282278 0.638745 0.110433
H35   H     H_    0.195868 0.109130 0.452362 0.136077
H36   H     H_    0.281037 0.553352 0.469373 0.115380
H37   H     H_    0.719406 0.447155 0.531068 0.115749
H38   H     H_    0.135908 0.318053 0.626168 0.123250
H39   H     H_    0.863585 0.681286 0.373302 0.124445
H40   H     H_    0.721172 0.736628 0.341825 0.093283
N1    N     N_R   0.925671 0.426130 0.966015 -0.233178
N2    N     N_R   0.074522 0.574446 0.033906 -0.233378
N3    N     N_R   0.926632 0.426063 0.035041 -0.232216
N4    N     N_R   0.073562 0.574511 0.964879 -0.232368
N5    N     N_R   0.795420 0.560800 0.453240 -0.232213
N6    N     N_R   0.204580 0.439200 0.546760 -0.231710
O1    O     O_R   0.977910 0.338110 0.524620 -0.505630
O2    O     O_R   0.022090 0.661890 0.475380 -0.505879
O3    O     O_R   0.839850 0.379180 0.493080 -0.507365
O4    O     O_R   0.160150 0.620820 0.506920 -0.506587
O5    O     O_R   0.069040 0.479450 0.615630 -0.501756
O6    O     O_R   0.930960 0.520550 0.384370 -0.501564
O7    O     O_R   0.930990 0.520520 0.584090 -0.505323
O8    O     O_R   0.069010 0.479480 0.415910 -0.504480

loop_
_geom_bond_atom_site_label_1
_geom_bond_atom_site_label_2
_ccdc_geom_bond_type
C25   C31   A    
C23   C58   A    
C32   H34   S    
C29   H3    S    
C26   C32   A    
C30   H4    S    
C7    C10   A    
C14   C18   A    
C6    C55   A    
C4    C8    A    
C16   O7    A    
C51   H25   S    
C12   O4    A    
C7    C8    A    
C39   C41   A    
C15   C19   A    
C28   C29   A    
C35   C37   A    
C24   C26   A    
C5    C11   A    
C3    C7    A    
C43   H6    S    
C48   N4    A    
C33   C36   A    
C31   H23   S    
C49   H18   S    
C54   H33   S    
Cu2   O3    S    
C1    O3    A    
C20   H37   S    
C45   C56   A    
C8    C9    A    
C22   C25   A    
C53   H31   S    
C34   C57   A    
Cu1   O5    S    
C2    H9    S    
C16   C44   S    
C41   C52   S    
C38   C48   S    
C21   N6    A    
Cu2   O2    S    
C2    C34   A    
C40   C42   A    
C45   C53   S    
Cu1   Cu2   S    
N1    N3    A    
C47   N2    A    
C50   H19   S    
C27   C30   A    
C41   C43   A    
Cu2   O7    S    
C42   C44   A    
C19   H38   S    
C11   H7    S    
C17   O8    A    
Cu1   N6    S    
C47   N3    A    
C52   H28   S    
C17   C46   S    
C4    C6    A    
C12   O2    A    
C58   H10   S    
C15   C26   A    
C5    C45   A    
Cu1   O1    S    
C2    C4    A    
C3    C58   A    
C54   H32   S    
Cu2   O6    S    
C42   H5    S    
C10   H15   S    
C29   C31   A    
C49   H16   S    
C57   H11   S    
N2    N4    A    
C9    C11   A    
C51   H22   S    
C23   C56   A    
C54   H35   S    
C1    O1    A    
C20   C22   A    
C35   H12   S    
C1    C23   S    
C22   C27   A    
C55   C57   A    
C53   H29   S    
C9    H14   S    
C12   C34   S    
C17   O6    A    
C53   H30   S    
C39   C47   S    
C20   N5    A    
C54   C55   S    
C56   H13   S    
C33   C44   A    
C52   H27   S    
C24   C28   A    
C3    C5    A    
C10   C13   A    
C50   H20   S    
Cu1   O4    S    
C14   H40   S    
C21   H36   S    
C40   C51   S    
C52   H26   S    
C18   N5    A    
C37   C39   A    
C6    C13   A    
C30   C32   A    
C37   C50   S    
C38   C40   A    
Cu1   O8    S    
C48   N1    A    
C36   C38   A    
C15   H2    S    
C49   H17   S    
C14   C25   A    
C43   C46   A    
C36   C49   S    
C19   N6    A    
C16   O5    A    
C33   H1    S    
C18   H39   S    
C21   C24   A    
C27   C28   A    
C35   C46   A    
C51   H24   S    
Cu2   N5    S    
C50   H21   S    
C13   H8    S    
