data_mof_unit_59238.cif
_audit_creation_date              2012-10-26T19:04:44-0400
_audit_creation_method            fapswitch 2.2
_symmetry_space_group_name_H-M    P1
_symmetry_Int_Tables_number       1
_space_group_crystal_system       triclinic
_cell_length_a                    9.614143
_cell_length_b                    10.774872
_cell_length_c                    13.560948
_cell_angle_alpha                 92.498159
_cell_angle_beta                  73.385147
_cell_angle_gamma                 90.043313
_cell_volume                      1344.76213391

loop_
_atom_site_label
_atom_site_type_symbol
_atom_type_description
_atom_site_fract_x
_atom_site_fract_y
_atom_site_fract_z
_atom_type_partial_charge
C1    C     C_R   0.498601 0.737367 0.503526 0.535011
C2    C     C_R   0.382736 0.541607 0.813239 0.029559
C3    C     C_R   0.286706 0.879379 0.667784 -0.109724
C4    C     C_R   0.423603 0.513636 0.699483 0.551854
C5    C     C_R   0.184482 0.948315 0.744172 -0.120243
C6    C     C_R   0.183925 0.077391 0.743923 -0.121277
C7    C     C_R   0.285690 0.138328 0.667344 -0.096377
C8    C     C_R   0.389018 0.070316 0.588031 0.028972
C9    C     C_R   0.389355 0.939028 0.588206 0.018911
C10   C     C_R   0.495955 0.871557 0.510664 0.002227
C11   C     C_R   0.603610 0.932619 0.438060 -0.146218
C12   C     C_R   0.442249 0.535668 0.978482 0.020390
C13   C     C_R   0.603474 0.060635 0.437963 -0.152809
C14   C     C_R   0.495642 0.129515 0.510446 0.008118
C15   C     C_R   0.910161 0.332991 0.364904 -0.091190
C16   C     C_R   0.498586 0.262966 0.503330 0.525101
C17   C     C_R   0.008550 0.250945 0.298920 -0.175942
C18   C     C_R   0.151810 0.250340 0.299140 -0.167569
C19   C     C_R   0.197651 0.331915 0.365221 -0.087273
C20   C     C_R   0.101003 0.416707 0.434433 0.154584
C21   C     C_R   0.951480 0.416810 0.434495 0.159951
C22   C     C_R   0.902962 0.583117 0.558512 -0.008961
C23   C     C_R   0.488221 0.540881 0.869563 -0.013010
C24   C     C_R   0.050025 0.581792 0.559847 0.011473
C25   C     C_R   0.577143 0.496960 0.300987 0.533778
C26   C     C_R   0.802752 0.477763 0.024845 -0.145990
C27   C     C_R   0.619718 0.493204 0.188705 -0.001666
C28   C     C_R   0.236663 0.569590 0.867421 0.224915
C29   C     C_R   0.194669 0.578030 0.975283 -0.137674
C30   C     C_R   0.293407 0.555483 0.029794 -0.156264
C31   C     C_R   0.548412 0.515451 0.031591 0.039400
C32   C     C_R   0.697218 0.502722 0.975326 0.050859
C33   C     C_R   0.740592 0.522876 0.871046 -0.146694
C34   C     C_R   0.638642 0.550276 0.821406 -0.114626
C35   C     C_R   0.512397 0.508670 0.138781 -0.134338
C36   C     C_R   0.764667 0.474758 0.131353 -0.146663
Cu1   Cu    Cu3+1 0.359340 0.500010 0.500010 0.940534
Cu2   Cu    Cu3+1 0.640660 0.499990 0.499990 0.919828
H1    H     H_    0.848449 0.459132 0.168644 0.128345
H2    H     H_    0.915146 0.463131 0.981048 0.119557
H3    H     H_    0.401657 0.517376 0.185590 0.127051
H4    H     H_    0.249566 0.559565 0.112316 0.111814
H5    H     H_    0.083598 0.600702 0.018107 0.100890
H6    H     H_    0.682066 0.587318 0.747343 0.146373
H7    H     H_    0.686296 0.880649 0.379606 0.129918
H8    H     H_    0.106618 0.901373 0.804585 0.122798
H9    H     H_    0.973321 0.188069 0.246565 0.115557
H10   H     H_    0.310346 0.325197 0.357533 0.182864
H11   H     H_    0.085341 0.649062 0.608907 0.138721
H12   H     H_    0.285927 0.779621 0.673237 0.155698
H13   H     H_    0.047263 0.627414 0.862733 0.302323
H14   H     H_    0.105561 0.130661 0.804152 0.119658
H15   H     H_    0.283904 0.238690 0.672478 0.153223
H16   H     H_    0.686084 0.106221 0.379430 0.110236
H17   H     H_    0.830437 0.654062 0.603955 0.103301
H18   H     H_    0.803814 0.327891 0.356782 0.176771
H19   H     H_    0.228645 0.186881 0.247007 0.123904
H20   H     H_    0.854347 0.523054 0.828096 0.132290
N1    N     N_R   0.852480 0.498790 0.499000 -0.243349
N2    N     N_R   0.148360 0.498710 0.498970 -0.245028
O1    O     O_R   0.381190 0.680360 0.500010 -0.505235
O2    O     O_R   0.618760 0.680340 0.500000 -0.503844
O3    O     O_R   0.323240 0.499990 0.650990 -0.445419
O4    O     O_R   0.560820 0.499960 0.650980 -0.523773
O5    O     O_R   0.381240 0.319660 0.500000 -0.529887
O6    O     O_R   0.618810 0.319640 0.499990 -0.511415
O7    O     O_R   0.439180 0.500040 0.349020 -0.527741
O8    O     O_R   0.676760 0.500010 0.349010 -0.522617
O9    O     O_3   0.137529 0.592567 0.813958 -0.723946

loop_
_geom_bond_atom_site_label_1
_geom_bond_atom_site_label_2
_ccdc_geom_bond_type
Cu1   O1    S    
C26   C32   A    
Cu1   Cu2   S    
C3    C9    A    
C27   C36   A    
C20   N2    A    
C2    C28   A    
C9    C10   A    
C4    O4    A    
C18   H19   S    
C2    C4    S    
C28   O9    S    
C25   O7    A    
C33   H20   S    
C15   C21   A    
C24   N2    A    
C23   C34   A    
C27   C35   A    
C32   C33   A    
C2    C23   A    
C17   C18   A    
C22   H17   S    
C34   H6    S    
C7    C8    A    
C31   C32   A    
C13   C14   A    
C29   H5    S    
C11   C13   A    
C12   C23   A    
C26   H2    S    
C29   C30   A    
C25   O8    A    
Cu1   O7    S    
C22   C24   A    
C4    O3    A    
C28   C29   A    
Cu1   O3    S    
C3    H12   S    
Cu2   O8    S    
C21   N1    A    
C6    C7    A    
C31   C35   A    
C12   C31   A    
C5    C6    A    
C35   H3    S    
C15   H18   S    
C14   C16   S    
C11   H7    S    
Cu1   N2    S    
C25   C27   S    
C10   C11   A    
C7    H15   S    
Cu2   N1    S    
C3    C5    A    
C17   H9    S    
C24   H11   S    
C33   C34   A    
C20   C21   A    
C1    O2    A    
C13   H16   S    
C5    H8    S    
C26   C36   A    
C22   N1    A    
C15   C17   A    
Cu2   O4    S    
Cu2   O6    S    
C19   H10   S    
C18   C19   A    
C16   O6    A    
C8    C14   A    
C16   O5    A    
H13   O9    S    
C6    H14   S    
C12   C30   A    
C36   H1    S    
C30   H4    S    
C1    C10   S    
C19   C20   A    
Cu1   O5    S    
C8    C9    A    
Cu2   O2    S    
C1    O1    A    
