data_mof_unit_11947.cif
_audit_creation_date              2013-03-05T16:13:09-0500
_audit_creation_method            fapswitch 2.2
_symmetry_space_group_name_H-M    P1
_symmetry_Int_Tables_number       1
_space_group_crystal_system       triclinic
_cell_length_a                    15.915663
_cell_length_b                    15.939028
_cell_length_c                    14.698507
_cell_angle_alpha                 92.037469
_cell_angle_beta                  91.323991
_cell_angle_gamma                 90.189955
_cell_volume                      3725.33604568

loop_
_atom_site_label
_atom_site_type_symbol
_atom_site_description
_atom_site_fract_x
_atom_site_fract_y
_atom_site_fract_z
_atom_type_partial_charge
O1    O     O_R   0.499910 0.379360 0.575970 -0.560424
O2    O     O_R   0.500090 0.379510 0.424100 -0.558913
C1    C     C_R   0.499494 0.340018 0.498421 0.838993
O3    O     O_R   0.378990 0.499920 0.575920 -0.573817
O4    O     O_R   0.379170 0.500070 0.424050 -0.579300
C2    C     C_R   0.339587 0.499421 0.499018 0.802469
Cu1   Cu    Cu3+1 0.499890 0.499910 0.589920 0.997075
Cu2   Cu    Cu3+1 0.500110 0.500090 0.410080 0.997682
O5    O     O_R   0.499910 0.620490 0.575900 -0.578109
O6    O     O_R   0.500090 0.620640 0.424030 -0.564583
O7    O     O_R   0.620830 0.499930 0.575950 -0.569326
O8    O     O_R   0.621010 0.500080 0.424080 -0.573387
C3    C     C_R   0.499337 0.659855 0.501547 0.817984
C4    C     C_R   0.660320 0.498805 0.501150 0.837220
C5    C     C_3   0.975303 0.444505 0.559420 -0.075632
C6    C     C_3   0.026771 0.426715 0.473423 -0.053433
C7    C     C_1   0.250248 0.499600 0.497208 -0.137103
C8    C     C_1   0.749502 0.497563 0.504374 -0.184386
C9    C     C_3   0.032397 0.520399 0.584803 -0.076750
C10   C     C_3   0.083574 0.503211 0.498523 0.079497
C11   C     C_3   0.972645 0.578177 0.531154 -0.065837
C12   C     C_3   0.916013 0.501403 0.505190 0.072877
C13   C     C_3   0.024309 0.561098 0.443883 -0.052844
C14   C     C_3   0.967206 0.483861 0.417979 -0.060865
C15   C     C_1   0.174986 0.500727 0.497116 0.071690
C16   C     C_1   0.824743 0.498082 0.506483 -0.011434
C17   C     C_3   0.542603 0.058351 0.585243 -0.154251
C18   C     C_3   0.549454 0.044933 0.400004 -0.083800
C19   C     C_3   0.548378 0.941197 0.407402 -0.022499
C20   C     C_1   0.498339 0.748774 0.505085 -0.091591
C21   C     C_3   0.495326 0.082867 0.488062 -0.071968
C22   C     C_3   0.536637 0.956560 0.595848 -0.083970
C23   C     C_3   0.499510 0.916246 0.499419 -0.004334
C24   C     C_3   0.403973 0.947913 0.490534 -0.257373
C25   C     C_3   0.397895 0.047526 0.482889 -0.000944
C26   C     C_1   0.498219 0.823873 0.504917 0.061170
C27   C     C_1   0.495014 0.175555 0.489323 -0.180890
C28   C     C_1   0.497268 0.250890 0.494007 -0.196183
H1    H     H_    0.377126 0.932246 0.555775 0.126557
C29   C     C_3   0.525417 0.597461 0.059905 -0.104127
C30   C     C_3   0.418288 0.463372 0.049737 -0.182547
C31   C     C_3   0.414632 0.458523 0.940039 -0.097390
H2    H     H_    0.429418 0.399848 0.068977 0.180425
N1    N     N_1   0.501700 0.501390 0.724970 -0.160543
C32   C     C_3   0.503018 0.503855 0.092526 -0.058101
C33   C     C_3   0.510969 0.598987 0.948319 -0.051980
C34   C     C_3   0.502875 0.500920 0.907045 -0.008024
C35   C     C_3   0.582261 0.444339 0.944361 -0.055749
C36   C     C_3   0.576600 0.444291 0.054656 -0.232938
C37   C     C_1   0.502037 0.501425 0.804384 0.186118
C38   C     C_1   0.500842 0.501089 0.195732 0.164036
N2    N     N_1   0.498280 0.498620 0.275030 -0.141206
H3    H     H_    0.634240 0.468451 0.084868 0.084714
C39   C     C_2   0.054759 0.339328 0.447976 0.331524
H4    H     H_    0.008121 0.290805 0.432620 0.103029
O9    O     O_2   0.129286 0.322262 0.444704 -0.551991
C40   C     C_2   0.637254 0.086704 0.401825 0.328894
H5    H     H_    0.644281 0.150985 0.426685 0.099660
O10   O     O_2   0.696139 0.058736 0.358439 -0.549692
C41   C     C_R   0.639035 0.899587 0.399187 0.148879
C42   C     C_R   0.660601 0.840199 0.328114 -0.090380
C43   C     C_R   0.739210 0.801253 0.325707 -0.157577
C44   C     C_R   0.800941 0.822645 0.390757 -0.127523
C45   C     C_R   0.784970 0.884828 0.456318 -0.067323
C46   C     C_R   0.706035 0.922485 0.459720 0.018082
H6    H     H_    0.619339 0.823640 0.271192 0.193973
H7    H     H_    0.752662 0.755319 0.271991 0.153857
H8    H     H_    0.861926 0.793154 0.388833 0.146593
H9    H     H_    0.834194 0.905085 0.504177 0.144827
H10   H     H_    0.699497 0.972912 0.507972 0.153311
C47   C     C_2   0.493348 0.899631 0.328663 0.237548
H11   H     H_    0.460739 0.934497 0.278197 0.109547
O11   O     O_2   0.483201 0.823595 0.320771 -0.575779
C48   C     C_2   0.346057 0.073901 0.567783 0.329527
H12   H     H_    0.364878 0.053485 0.634450 0.060978
O12   O     O_2   0.276971 0.106951 0.563042 -0.517274
C49   C     C_R   0.346928 0.082902 0.398452 0.196097
C50   C     C_R   0.319932 0.168344 0.402048 -0.072399
C51   C     C_R   0.274312 0.203693 0.330796 -0.117557
C52   C     C_R   0.252569 0.155357 0.253378 -0.141109
C53   C     C_R   0.276742 0.071710 0.247072 -0.132616
C54   C     C_R   0.323048 0.036045 0.317836 -0.081164
H13   H     H_    0.334413 0.209250 0.460508 0.159084
H14   H     H_    0.256244 0.269073 0.335601 0.178093
H15   H     H_    0.217393 0.182825 0.198072 0.130265
H16   H     H_    0.260054 0.034094 0.186518 0.137041
H17   H     H_    0.338732 0.971967 0.305567 0.124213
C55   C     C_2   0.506609 0.109234 0.666701 0.434415
H18   H     H_    0.458746 0.156288 0.656910 0.054718
O13   O     O_2   0.538149 0.106525 0.743273 -0.447276
C56   C     C_2   0.479528 0.929682 0.674022 0.295259
H19   H     H_    0.438222 0.875720 0.664467 0.064812
O14   O     O_2   0.487934 0.957308 0.752236 -0.495230
C57   C     C_2   0.338784 0.892905 0.439727 0.283388
H20   H     H_    0.355578 0.835372 0.403728 0.135209
O15   O     O_2   0.264063 0.909724 0.444455 -0.522976
C58   C     C_R   0.434175 0.653819 0.913474 0.020232
C59   C     C_R   0.432379 0.683523 0.822777 -0.176249
C60   C     C_R   0.365865 0.731183 0.789115 -0.091053
C61   C     C_R   0.298068 0.750786 0.843668 -0.086890
C62   C     C_R   0.295765 0.721036 0.931298 -0.098100
C63   C     C_R   0.361753 0.672626 0.965050 -0.007317
H21   H     H_    0.482428 0.669818 0.776231 0.183410
H22   H     H_    0.366714 0.752293 0.719980 0.124742
H23   H     H_    0.246427 0.787452 0.817320 0.132113
H24   H     H_    0.241505 0.733528 0.972673 0.131680
H25   H     H_    0.351880 0.645258 0.029102 0.126768
C64   C     C_2   0.951298 0.378763 0.624681 0.334990
H26   H     H_    0.000029 0.346137 0.661992 0.098509
O16   O     O_2   0.877677 0.361251 0.635770 -0.538642
C65   C     C_2   0.483613 0.668942 0.113574 0.323682
H27   H     H_    0.468842 0.662041 0.184464 0.093485
O17   O     O_2   0.481784 0.740130 0.085149 -0.508452
C66   C     C_R   0.334653 0.472921 0.101161 0.156302
C67   C     C_R   0.315445 0.542847 0.157785 -0.121479
C68   C     C_R   0.240895 0.547318 0.205401 -0.114658
C69   C     C_R   0.183367 0.481594 0.198665 -0.093166
C70   C     C_R   0.200834 0.410460 0.144671 -0.128191
C71   C     C_R   0.275758 0.405829 0.096834 -0.063268
H28   H     H_    0.357109 0.594299 0.167641 0.087778
H29   H     H_    0.228356 0.601989 0.248136 0.137715
H30   H     H_    0.125799 0.486270 0.235794 0.137546
H31   H     H_    0.156480 0.358764 0.139929 0.118844
H32   H     H_    0.287322 0.349649 0.056041 0.117629
C72   C     C_2   0.337355 0.505222 0.903504 0.336388
H33   H     H_    0.341494 0.539219 0.841256 0.101644
O18   O     O_2   0.267059 0.495456 0.932979 -0.521334
C73   C     C_R   0.397175 0.367471 0.895671 0.151286
C74   C     C_R   0.401562 0.290575 0.942646 -0.175343
C75   C     C_R   0.378989 0.213741 0.899687 -0.090057
C76   C     C_R   0.353463 0.209545 0.808702 -0.064076
C77   C     C_R   0.350868 0.282145 0.759466 -0.101374
C78   C     C_R   0.371950 0.359369 0.801698 -0.028332
H34   H     H_    0.423632 0.285308 0.011650 0.118736
H35   H     H_    0.381352 0.156636 0.937228 0.129541
H36   H     H_    0.336183 0.149778 0.776211 0.140810
H37   H     H_    0.331553 0.278901 0.688291 0.146220
H38   H     H_    0.366096 0.413382 0.759815 0.118958
C79   C     C_2   0.585181 0.359074 0.098753 0.286358
H39   H     H_    0.641245 0.321995 0.086837 0.085154
O19   O     O_2   0.535065 0.333714 0.152952 -0.565691
C80   C     C_R   0.670384 0.474519 0.908579 0.093721
C81   C     C_R   0.689060 0.462426 0.814326 -0.015811
C82   C     C_R   0.764683 0.488793 0.778236 -0.071611
C83   C     C_R   0.826172 0.526404 0.834340 -0.099640
C84   C     C_R   0.812306 0.537254 0.926863 -0.094520
C85   C     C_R   0.736499 0.511753 0.963689 -0.126742
H40   H     H_    0.645345 0.433198 0.766091 0.182921
H41   H     H_    0.775343 0.480124 0.706128 0.170077
H42   H     H_    0.884649 0.546913 0.806167 0.120124
H43   H     H_    0.860663 0.566031 0.970779 0.139671
H44   H     H_    0.733949 0.524136 0.035233 0.114096
C86   C     C_2   0.615725 0.618344 0.096427 0.314211
H45   H     H_    0.640324 0.586789 0.155516 0.053958
O20   O     O_2   0.656515 0.678678 0.073194 -0.548633
C87   C     C_2   0.584490 0.648298 0.909154 0.435612
H46   H     H_    0.595353 0.712439 0.933933 0.173404
O21   O     O_2   0.623194 0.624782 0.842488 -0.571043
C88   C     C_R   0.930919 0.461110 0.323676 0.114641
C89   C     C_R   0.974517 0.407299 0.263397 -0.173215
C90   C     C_R   0.939905 0.384342 0.177787 -0.109991
C91   C     C_R   0.861199 0.414500 0.151279 -0.109965
C92   C     C_R   0.817771 0.468820 0.209818 -0.124080
C93   C     C_R   0.852686 0.492825 0.294811 -0.125582
H47   H     H_    0.035487 0.382877 0.281689 0.129563
H48   H     H_    0.974060 0.342789 0.132143 0.132846
H49   H     H_    0.834067 0.396013 0.085376 0.125150
H50   H     H_    0.756888 0.492471 0.189712 0.111369
H51   H     H_    0.818248 0.536734 0.337115 0.123843
C94   C     C_2   0.578414 0.352662 0.906126 0.319097
H52   H     H_    0.605880 0.301680 0.942839 0.090581
O22   O     O_2   0.553970 0.334733 0.828480 -0.536284
C95   C     C_R   0.045571 0.631675 0.381818 0.122429
C96   C     C_R   0.981437 0.668330 0.329512 -0.132859
C97   C     C_R   0.998749 0.735736 0.274521 -0.149096
C98   C     C_R   0.079888 0.769010 0.273125 -0.074835
C99   C     C_R   0.143582 0.735203 0.327197 -0.112464
C100  C     C_R   0.126671 0.666995 0.381311 -0.194236
H53   H     H_    0.917496 0.646235 0.332597 0.120080
H54   H     H_    0.948853 0.763018 0.234086 0.139043
H55   H     H_    0.093151 0.821656 0.231128 0.134449
H56   H     H_    0.206234 0.761851 0.327263 0.150276
H57   H     H_    0.176913 0.643997 0.423806 0.126636
C101  C     C_R   0.951241 0.664597 0.569696 0.085269
C102  C     C_R   0.015909 0.724361 0.583404 -0.110509
C103  C     C_R   0.999188 0.803546 0.622527 -0.123253
C104  C     C_R   0.917988 0.823523 0.649648 -0.141361
C105  C     C_R   0.853402 0.764451 0.637235 -0.107885
C106  C     C_R   0.869715 0.685419 0.597379 -0.155122
H58   H     H_    0.079670 0.709271 0.564877 0.146672
H59   H     H_    0.049405 0.849121 0.632618 0.154812
H60   H     H_    0.905101 0.884690 0.680423 0.153101
H61   H     H_    0.790651 0.779759 0.658989 0.193463
H62   H     H_    0.818668 0.641049 0.590539 0.144660
C107  C     C_2   0.066451 0.540038 0.679285 0.359621
H63   H     H_    0.023376 0.550815 0.734469 0.066653
O23   O     O_2   0.142041 0.544258 0.694588 -0.528938
C108  C     C_2   0.617097 0.915114 0.632044 0.400278
H64   H     H_    0.648948 0.941798 0.692372 0.184814
O24   O     O_2   0.640317 0.845779 0.605360 -0.598782
C109  C     C_2   0.632010 0.096847 0.592164 0.363999
H65   H     H_    0.641316 0.160397 0.570652 0.095649
O25   O     O_2   0.690303 0.067442 0.635658 -0.556056
C110  C     C_R   0.525009 0.073016 0.300499 0.047110
C111  C     C_R   0.480579 0.147003 0.279726 -0.109231
C112  C     C_R   0.462572 0.168297 0.189953 -0.062370
C113  C     C_R   0.496938 0.122600 0.117788 -0.115361
C114  C     C_R   0.549551 0.055623 0.135264 -0.112519
C115  C     C_R   0.564906 0.032471 0.224701 -0.094100
H66   H     H_    0.459363 0.190680 0.330252 0.156623
H67   H     H_    0.423443 0.222098 0.176611 0.157506
H68   H     H_    0.485455 0.140826 0.048610 0.137469
H69   H     H_    0.579107 0.021741 0.079538 0.164951
H70   H     H_    0.607835 0.981121 0.234539 0.161884

loop_
_geom_bond_atom_site_label_1
_geom_bond_atom_site_label_2
_geom_bond_distance
_ccdc_geom_bond_type
C11   C101  1.513566 S    
C50   C51   1.396788 A    
C25   C48   1.557891 S    
C9    C107  1.501186 S    
C62   C63   1.397508 A    
C107  O23   1.219979 D    
C30   H2    1.075067 S    
C109  H65   1.082544 S    
C4    C8    1.419311 S    
C75   H35   1.081346 S    
C8    C16   1.197189 T    
C30   C66   1.551117 S    
C73   C74   1.429106 A    
C52   H15   1.082507 S    
C66   C67   1.405857 A    
C40   H5    1.080054 S    
C14   C88   1.520607 S    
C102  H58   1.082384 S    
C18   C40   1.545161 S    
C101  C102  1.406270 A    
Cu1   O7    1.940474 S    
C61   H23   1.082420 S    
C82   H41   1.081331 S    
C48   O12   1.222400 D    
C43   H7    1.083046 S    
C29   C65   1.525915 S    
C95   C100  1.406764 A    
C18   C19   1.660945 S    
C9    C11   1.548261 S    
C81   C82   1.395938 A    
C84   C85   1.398733 A    
O2    C1    1.280231 A    
C74   H34   1.071879 S    
C83   C84   1.387614 A    
O4    C2    1.282213 A    
C52   C53   1.389401 A    
O7    C4    1.278565 A    
C36   H3    1.074121 S    
C40   O10   1.222253 D    
C22   C56   1.552627 S    
C10   C15   1.456151 S    
C32   C38   1.520368 S    
C54   H17   1.062370 S    
C19   C23   1.636208 S    
C23   C26   1.477526 S    
C64   H26   1.084455 S    
C24   C25   1.598790 S    
C30   C31   1.611202 S    
C103  H59   1.082354 S    
O5    C3    1.279247 A    
C96   C97   1.397719 A    
C22   C108  1.535719 S    
C31   C72   1.535937 S    
O1    Cu1   1.925099 S    
C70   C71   1.399099 A    
C42   H6    1.076423 S    
C5    C12   1.539682 S    
C88   C89   1.407299 A    
C1    C28   1.420077 S    
C77   C78   1.395095 A    
C110  C115  1.430497 A    
C13   C14   1.558772 S    
C19   C41   1.595314 S    
C108  H64   1.084043 S    
C86   O20   1.221608 D    
Cu2   N2    1.983878 S    
C58   C63   1.421155 A    
C31   C73   1.590700 S    
C31   C34   1.647066 S    
C55   H18   1.081613 S    
C42   C43   1.399116 A    
C60   H22   1.082098 S    
C49   C54   1.421520 A    
C78   H38   1.079064 S    
C6    C14   1.554135 S    
C71   H32   1.078538 S    
C11   C12   1.548914 S    
C109  O25   1.218981 D    
C93   H51   1.078996 S    
C57   H20   1.079818 S    
O3    Cu1   1.930442 S    
C112  H67   1.082364 S    
C58   C59   1.430171 A    
C34   C37   1.509022 S    
C113  C114  1.386484 A    
C98   H55   1.082308 S    
C39   O9    1.219468 D    
C68   H29   1.077849 S    
C17   C21   1.658683 S    
C38   N2    1.169273 T    
C18   C110  1.585004 S    
C24   C57   1.521341 S    
C3    C20   1.416533 S    
Cu1   Cu2   2.643568 S    
C51   C52   1.387764 A    
O3    C2    1.279679 A    
C76   H36   1.082144 S    
C48   H12   1.079632 S    
C56   H19   1.084016 S    
C47   O11   1.223195 D    
C112  C113  1.388993 A    
C114  C115  1.394377 A    
C107  H63   1.083508 S    
C77   H37   1.082970 S    
C49   C50   1.428945 A    
C25   C49   1.588241 S    
C53   C54   1.399128 A    
C24   H1    1.095330 S    
C84   H43   1.083066 S    
O1    C1    1.281147 A    
C5    C64   1.499959 S    
C100  H57   1.076604 S    
C5    C9    1.540516 S    
C69   H30   1.078674 S    
C105  C106  1.397905 A    
C27   C28   1.200656 T    
C97   C98   1.395292 A    
C56   O14   1.220632 D    
C41   C46   1.411537 A    
C34   C35   1.649626 S    
C88   C93   1.407435 A    
C10   C13   1.552252 S    
C32   C36   1.607035 S    
Cu2   O8    1.930445 S    
C43   C44   1.388151 A    
C23   C24   1.607628 S    
C106  H62   1.075953 S    
C53   H16   1.082722 S    
C35   C80   1.588305 S    
C63   H25   1.066256 S    
C65   O17   1.223218 D    
C6    C10   1.544469 S    
C89   H47   1.078577 S    
C110  C111  1.416025 A    
C57   O15   1.222937 D    
C99   H56   1.082503 S    
C104  H60   1.082333 S    
C103  C104  1.395713 A    
C35   C94   1.547328 S    
C98   C99   1.395187 A    
C33   C58   1.590575 S    
C55   O13   1.223958 D    
C105  H61   1.081692 S    
C59   C60   1.396567 A    
C36   C79   1.530819 S    
C12   C16   1.453994 S    
C72   H33   1.083010 S    
C12   C14   1.552263 S    
C29   C86   1.553485 S    
O4    Cu2   1.940474 S    
C29   C33   1.651977 S    
C76   C77   1.386710 A    
C33   C87   1.541280 S    
C91   C92   1.395057 A    
N1    C37   1.167138 T    
C62   H24   1.082618 S    
Cu1   O5    1.940213 S    
C2    C7    1.421538 S    
C111  C112  1.397687 A    
C33   C34   1.659977 S    
C87   H46   1.084973 S    
C65   H27   1.082763 S    
C17   C22   1.638079 S    
C17   C109  1.547496 S    
C80   C85   1.427564 A    
C18   C21   1.668045 S    
O2    Cu2   1.940215 S    
C83   H42   1.081657 S    
O8    C4    1.282224 A    
C44   C45   1.385886 A    
O6    C3    1.280270 A    
C50   H13   1.080096 S    
C39   H4    1.084489 S    
C79   H39   1.086045 S    
C67   H28   1.056772 S    
C114  H69   1.082525 S    
C97   H54   1.082499 S    
C13   C95   1.515543 S    
C45   H9    1.081464 S    
C44   H8    1.080360 S    
C115  H70   1.079439 S    
C60   C61   1.389003 A    
C20   C26   1.197103 T    
C82   C83   1.385937 A    
C7    C15   1.198015 T    
C22   C23   1.632473 S    
C9    C10   1.539894 S    
C11   C13   1.555989 S    
C85   H44   1.064754 S    
C74   C75   1.399710 A    
C92   H50   1.079590 S    
C104  C105  1.396124 A    
C59   H21   1.079811 S    
C90   C91   1.395265 A    
C73   C78   1.430774 A    
C45   C46   1.395283 A    
C79   O19   1.218352 D    
C102  C103  1.397189 A    
C51   H14   1.082269 S    
C66   C71   1.418454 A    
C94   O22   1.221105 D    
C111  H66   1.061410 S    
C35   C36   1.625783 S    
C5    C6    1.540479 S    
C87   O21   1.217961 D    
C61   C62   1.389501 A    
C64   O16   1.219553 D    
C68   C69   1.388379 A    
C75   C76   1.387937 A    
C21   C25   1.647237 S    
C70   H31   1.082557 S    
C113  H68   1.079105 S    
C17   C55   1.544418 S    
C89   C90   1.398088 A    
C6    C39   1.501054 S    
C81   H40   1.074868 S    
C92   C93   1.395848 A    
C90   H48   1.082543 S    
C95   C96   1.404978 A    
C91   H49   1.082207 S    
C19   C47   1.562126 S    
C21   C27   1.476842 S    
C47   H11   1.068571 S    
C29   C32   1.624264 S    
Cu2   O6    1.925097 S    
C99   C100  1.398741 A    
C94   H52   1.079462 S    
C72   O18   1.220521 D    
C30   C32   1.598948 S    
C80   C81   1.430091 A    
C41   C42   1.433032 A    
C108  O24   1.220784 D    
Cu1   N1    1.983875 S    
C46   H10   1.059856 S    
C69   C70   1.393185 A    
C96   H53   1.078237 S    
C101  C106  1.406054 A    
C67   C68   1.392168 A    
C86   H45   1.085005 S    
