data_mof_unit_55196.cif
_audit_creation_date              2012-12-10T17:38:47-0500
_audit_creation_method            fapswitch 2.2
_symmetry_space_group_name_H-M    P1
_symmetry_Int_Tables_number       1
_space_group_crystal_system       triclinic
_cell_length_a                    12.321978
_cell_length_b                    13.074945
_cell_length_c                    23.503799
_cell_angle_alpha                 77.724071
_cell_angle_beta                  101.008961
_cell_angle_gamma                 116.517891
_cell_volume                      3290.79584493

loop_
_atom_site_label
_atom_site_type_symbol
_atom_type_description
_atom_site_fract_x
_atom_site_fract_y
_atom_site_fract_z
_atom_type_partial_charge
C1    C     C_R   0.855064 0.285967 0.505899 0.777799
C2    C     C_R   0.832555 0.307253 0.035361 -0.150253
C3    C     C_R   0.832190 0.308044 0.975969 -0.144765
C4    C     C_R   0.917545 0.402647 0.943154 0.002488
C5    C     C_R   0.004633 0.497446 0.970577 -0.086778
C6    C     C_R   0.091061 0.593014 0.937929 -0.065122
C7    C     C_R   0.178066 0.687480 0.966180 0.441595
C8    C     C_R   0.176750 0.684944 0.026184 -0.257333
C9    C     C_R   0.917477 0.404962 0.883303 0.546707
C10   C     C_R   0.087129 0.590473 0.877803 0.582340
C11   C     C_R   0.964991 0.576534 0.749419 -0.088112
C12   C     C_R   0.001071 0.502477 0.608654 0.776572
C13   C     C_R   0.968796 0.582935 0.689714 0.379137
C14   C     C_R   0.002282 0.505570 0.670935 -0.145256
C15   C     C_R   0.035774 0.427593 0.712862 -0.254372
C16   C     C_R   0.034256 0.424328 0.772297 -0.093801
C17   C     C_R   0.998755 0.498599 0.790742 0.253397
C18   C     C_R   0.910675 0.516137 0.227092 0.477177
C19   C     C_R   0.910924 0.517341 0.286769 -0.311863
C20   C     C_R   0.000898 0.498824 0.328589 -0.076073
C21   C     C_R   0.091006 0.479059 0.310243 -0.203373
C22   C     C_R   0.091131 0.477742 0.251175 -0.187235
C23   C     C_R   0.144871 0.714306 0.491129 0.813865
C24   C     C_R   0.001379 0.495994 0.209619 0.327488
C25   C     C_R   0.286934 0.014764 0.409679 -0.177893
C26   C     C_R   0.227101 0.837792 0.478819 -0.271217
C27   C     C_R   0.813676 0.083592 0.548322 -0.177576
C28   C     C_R   0.734377 0.967534 0.559234 -0.159000
C29   C     C_R   0.612352 0.929507 0.536209 -0.089693
C30   C     C_R   0.567658 0.007353 0.500598 0.117688
C31   C     C_R   0.653349 0.120863 0.482011 0.062509
C32   C     C_R   0.441774 0.974836 0.480350 0.040437
C33   C     C_R   0.408682 0.046800 0.432966 0.000146
C34   C     C_R   0.000448 0.499915 0.391074 0.828476
C35   C     C_R   0.497313 0.151341 0.409477 -0.172626
C36   C     C_R   0.617537 0.188957 0.434217 -0.173812
C37   C     C_R   0.347535 0.876363 0.507078 0.299299
C38   C     C_R   0.195933 0.911160 0.431771 0.365699
C39   C     C_R   0.773838 0.161758 0.510570 -0.102849
C40   C     C_R   0.346590 0.328323 0.593643 -0.284920
C41   C     C_R   0.759763 0.645432 0.420673 -0.063261
C42   C     C_R   0.663169 0.678405 0.403132 0.369027
C43   C     C_R   0.560059 0.623079 0.433374 -0.193225
C44   C     C_R   0.551760 0.534955 0.481168 -0.096030
C45   C     C_R   0.088433 0.588158 0.118271 0.585469
C46   C     C_R   0.653135 0.505390 0.497427 0.276465
C47   C     C_R   0.447191 0.475351 0.513493 -0.010325
C48   C     C_R   0.446804 0.388126 0.561167 0.170114
C49   C     C_R   0.546484 0.361061 0.576381 -0.259195
C50   C     C_R   0.647285 0.418517 0.545389 -0.132080
C51   C     C_R   0.342104 0.497945 0.500880 0.037711
C52   C     C_R   0.246675 0.354931 0.579085 0.083088
C53   C     C_R   0.919489 0.402403 0.122855 0.594629
C54   C     C_R   0.918220 0.401092 0.063206 -0.012384
C55   C     C_R   0.004709 0.496374 0.030786 -0.016753
C56   C     C_R   0.090839 0.590508 0.058527 -0.062819
Cu1   Cu    Cu3+1 0.098270 0.475410 0.513370 0.955320
Cu2   Cu    Cu3+1 0.901730 0.524590 0.486630 0.938842
H1    H     H_    0.765275 0.233033 0.059301 0.192256
H2    H     H_    0.161093 0.462443 0.237537 0.162147
H3    H     H_    0.473106 0.205816 0.372613 0.150649
H4    H     H_    0.262074 0.070060 0.373502 0.173687
H5    H     H_    0.906138 0.112366 0.569847 0.156806
H6    H     H_    0.555998 0.837899 0.544548 0.197267
H7    H     H_    0.764585 0.234313 0.955849 0.191803
H8    H     H_    0.682668 0.269929 0.413753 0.167976
H9    H     H_    0.168973 0.309148 0.603975 0.121935
H10   H     H_    0.546853 0.294607 0.612893 0.163860
H11   H     H_    0.345655 0.261498 0.630121 0.151829
H12   H     H_    0.334147 0.562429 0.465415 0.123918
H13   H     H_    0.487992 0.651068 0.418443 0.162434
H14   H     H_    0.718808 0.391661 0.560899 0.204126
H15   H     H_    0.939116 0.634960 0.764019 0.166413
H16   H     H_    0.061920 0.368040 0.699549 0.169090
H17   H     H_    0.061070 0.364292 0.804132 0.160350
N1    N     N_R   0.003359 0.495290 0.148929 -0.452576
N2    N     N_R   0.001094 0.497877 0.852066 -0.474432
N3    N     N_R   0.246280 0.438190 0.533650 -0.181260
N4    N     N_R   0.754320 0.561190 0.466710 -0.221381
O1    O     O_R   0.972510 0.318130 0.516820 -0.579030
O2    O     O_2   0.837825 0.311707 0.154625 -0.515932
O3    O     O_2   0.833869 0.315530 0.856298 -0.527018
O4    O     O_2   0.168729 0.679077 0.845104 -0.451783
O5    O     O_R   0.806530 0.359650 0.494230 -0.603063
O6    O     O_R   0.082990 0.479200 0.593420 -0.572527
O7    O     O_R   0.917010 0.520720 0.570830 -0.586616
O8    O     O_R   0.193470 0.640350 0.505770 -0.557378
O9    O     O_R   0.027490 0.681870 0.483180 -0.579891
O10   O     O_R   0.082990 0.479280 0.429170 -0.588776
O11   O     O_R   0.917010 0.520800 0.406580 -0.583946
O12   O     O_2   0.169698 0.678249 0.145476 -0.519744
H18   H     H_    0.841015 0.532827 0.300362 0.157976
H19   H     H_    0.161551 0.464696 0.341469 0.170385
O13   O     O_3   0.078795 0.883187 0.405028 -0.719102
H20   H     H_    0.025329 0.858036 0.436538 0.335402
O14   O     O_3   0.372515 0.823678 0.562383 -0.730687
H21   H     H_    0.296060 0.779013 0.581223 0.331982
H22   H     H_    0.766923 0.907069 0.586830 0.167630
H23   H     H_    0.839934 0.687104 0.397462 0.159759
O15   O     O_3   0.666739 0.764111 0.356702 -0.704600
H24   H     H_    0.745458 0.794667 0.340148 0.331856
O16   O     O_3   0.263255 0.781452 0.934881 -0.654315
H25   H     H_    0.316541 0.839102 0.961210 0.325089
H26   H     H_    0.243265 0.757517 0.047490 0.188885
O17   O     O_3   0.942839 0.667623 0.652024 -0.717741
H27   H     H_    0.986632 0.689666 0.617072 0.328221
O18   O     O_3   0.824086 0.535163 0.185065 -0.701956
H28   H     H_    0.767293 0.547892 0.204463 0.326534

loop_
_geom_bond_atom_site_label_1
_geom_bond_atom_site_label_2
_ccdc_geom_bond_type
C55   C56   A    
C49   H10   S    
C16   H17   S    
C41   C42   A    
C35   C36   A    
C8    C56   A    
C7    C8    A    
C53   C54   A    
C1    O5    A    
Cu1   O10   S    
C12   O6    A    
C45   N1    A    
C18   C24   A    
C5    C6    A    
C28   C29   A    
Cu2   O5    S    
C22   H2    S    
C30   C31   A    
C36   H8    S    
C15   C16   A    
C10   O4    S    
C53   O2    S    
C18   C19   A    
C23   C26   S    
C50   H14   S    
C18   O18   S    
C19   H18   S    
C19   C20   A    
C45   C56   A    
C27   C39   A    
C16   C17   A    
C7    O16   S    
O18   H28   S    
C41   H23   S    
C51   H12   S    
C44   C47   A    
C9    O3    S    
C20   C34   S    
C29   H6    S    
C23   O8    A    
C21   C22   A    
Cu1   O1    S    
C3    H7    S    
C52   N3    A    
Cu2   O7    S    
C10   N2    A    
C44   C46   A    
C40   H11   S    
C13   O17   S    
C2    C54   A    
C2    H1    S    
C26   C38   A    
C47   C51   A    
C40   C52   A    
Cu1   O8    S    
C37   O14   S    
C43   C44   A    
C34   O11   A    
C41   N4    A    
C29   C30   A    
C42   O15   S    
C25   C38   A    
Cu2   O11   S    
C47   C48   A    
O14   H21   S    
C38   O13   S    
C17   N2    S    
O13   H20   S    
C35   H3    S    
C9    N2    A    
C32   C37   A    
C8    H26   S    
C52   H9    S    
C27   H5    S    
Cu2   N4    S    
C48   C49   A    
C12   C14   S    
C23   O9    A    
C11   H15   S    
C22   C24   A    
C53   N1    A    
C42   C43   A    
C3    C4    A    
C28   H22   S    
C40   C48   A    
C54   C55   A    
C11   C17   A    
C43   H13   S    
C14   C15   A    
Cu1   N3    S    
C5    C55   A    
C24   N1    S    
C4    C5    A    
Cu2   O9    S    
C6    C10   A    
C26   C37   A    
C6    C7    A    
O17   H27   S    
C46   C50   A    
C12   O7    A    
C32   C33   A    
C2    C3    A    
C51   N3    A    
C30   C32   A    
C11   C13   A    
Cu1   Cu2   S    
C46   N4    A    
C21   H19   S    
O15   H24   S    
C33   C35   A    
C31   C39   A    
C25   H4    S    
O16   H25   S    
C45   O12   S    
C34   O10   A    
C1    C39   S    
C15   H16   S    
C20   C21   A    
C49   C50   A    
C27   C28   A    
C1    O1    A    
C31   C36   A    
C4    C9    A    
C13   C14   A    
Cu1   O6    S    
C25   C33   A    
