data_mof_unit_22671.cif
_audit_creation_date              2012-12-10T18:56:29-0500
_audit_creation_method            fapswitch 2.2
_symmetry_space_group_name_H-M    P1
_symmetry_Int_Tables_number       1
_space_group_crystal_system       triclinic
_cell_length_a                    10.643663
_cell_length_b                    10.050597
_cell_length_c                    19.099454
_cell_angle_alpha                 91.143037
_cell_angle_beta                  93.462522
_cell_angle_gamma                 89.010921
_cell_volume                      2038.76775161

loop_
_atom_site_label
_atom_site_type_symbol
_atom_type_description
_atom_site_fract_x
_atom_site_fract_y
_atom_site_fract_z
_atom_type_partial_charge
C1    C     C_R   0.871760 0.497026 0.498966 0.014714
C2    C     C_R   0.739280 0.498936 0.500029 0.822025
C3    C     C_R   0.510017 0.498334 0.365987 0.905473
C4    C     C_R   0.492869 0.501540 0.633940 0.964925
C5    C     C_R   0.070613 0.403535 0.537814 -0.187118
C6    C     C_R   0.928805 0.593526 0.460937 -0.188213
C7    C     C_R   0.941726 0.400605 0.536453 -0.210838
C8    C     C_R   0.057422 0.595285 0.461544 -0.234350
C9    C     C_R   0.387867 0.403615 0.732811 0.341114
C10   C     C_R   0.535677 0.611446 0.251818 0.377877
C11   C     C_R   0.537738 0.368575 0.254268 0.319585
C12   C     C_R   0.127783 0.501365 0.500507 0.000681
C13   C     C_R   0.495053 0.616417 0.751005 0.342761
C14   C     C_R   0.370594 0.396323 0.805270 0.053396
C15   C     C_R   0.519846 0.606035 0.177597 0.056759
C16   C     C_R   0.514054 0.360859 0.181785 0.119237
C17   C     C_R   0.469570 0.616293 0.822694 0.059828
C18   C     C_R   0.415875 0.501329 0.849650 -0.108665
C19   C     C_R   0.501306 0.480005 0.143982 -0.129261
C20   C     C_R   0.574822 0.069788 0.547170 0.140612
C21   C     C_R   0.405653 0.930089 0.464166 0.156317
C22   C     C_R   0.418197 0.070662 0.455195 0.128948
C23   C     C_R   0.548457 0.440006 0.953266 -0.168405
C24   C     C_R   0.593858 0.931101 0.534663 0.151337
C25   C     C_R   0.462183 0.505381 0.707954 -0.209723
C26   C     C_R   0.528902 0.493059 0.289830 -0.288044
C27   C     C_3   0.596425 0.114949 0.623119 -0.321264
C28   C     C_3   0.717451 0.191061 0.639905 -0.861524
C29   C     C_3   0.281024 0.869267 0.439167 -0.353403
C30   C     C_3   0.282842 0.795410 0.368203 -0.777081
C31   C     C_3   0.346007 0.132809 0.392086 -0.313324
C32   C     C_3   0.215924 0.192028 0.405882 -0.831454
C33   C     C_3   0.729369 0.882679 0.542071 -0.352270
C34   C     C_R   0.353648 0.506302 0.040236 -0.188091
C35   C     C_3   0.764661 0.809131 0.609813 -0.757264
C36   C     C_3   0.313561 0.272801 0.835486 -0.378747
C37   C     C_3   0.400261 0.151005 0.828687 -0.861849
C38   C     C_3   0.518658 0.733296 0.134784 -0.385535
C39   C     C_3   0.400669 0.818479 0.145330 -0.869170
C40   C     C_3   0.498001 0.223997 0.146641 -0.318371
C41   C     C_3   0.624223 0.152718 0.137712 -0.833905
C42   C     C_3   0.504455 0.734817 0.871119 -0.382704
C43   C     C_3   0.646771 0.746368 0.885674 -0.857347
C44   C     C_R   0.571125 0.438284 0.025246 -0.206429
C45   C     C_R   0.331987 0.512194 0.967926 -0.253723
C46   C     C_R   0.474087 0.472362 0.068584 0.159428
C47   C     C_R   0.430359 0.480939 0.924816 0.183882
C48   C     C_R   0.260597 0.500831 0.500036 0.843311
H1    H     H_    0.125461 0.330239 0.567901 0.167427
H2    H     H_    0.712882 0.289432 0.615580 0.283597
H3    H     H_    0.730060 0.207703 0.697537 0.233854
H4    H     H_    0.513381 0.170341 0.640363 0.264571
H5    H     H_    0.599388 0.027138 0.657653 0.182925
H6    H     H_    0.362958 0.826448 0.338301 0.290305
H7    H     H_    0.286480 0.686458 0.374574 0.263632
H8    H     H_    0.194906 0.818225 0.336044 0.201727
H9    H     H_    0.240950 0.815477 0.481562 0.214968
H10   H     H_    0.206791 0.946666 0.433433 0.180726
H11   H     H_    0.194528 0.183719 0.461775 0.266299
H12   H     H_    0.874068 0.665612 0.430016 0.147362
H13   H     H_    0.209876 0.297514 0.389738 0.256009
H14   H     H_    0.141658 0.138728 0.373599 0.222146
H15   H     H_    0.402318 0.202708 0.365881 0.274525
H16   H     H_    0.333030 0.056856 0.349498 0.183132
H17   H     H_    0.764247 0.878066 0.655825 0.242292
H18   H     H_    0.699943 0.727177 0.617544 0.318162
H19   H     H_    0.861208 0.766343 0.607294 0.226200
H20   H     H_    0.753035 0.825705 0.494635 0.220423
H21   H     H_    0.793476 0.968444 0.540591 0.172199
H22   H     H_    0.259778 0.273124 0.703132 0.331324
H23   H     H_    0.897584 0.325042 0.565344 0.144472
H24   H     H_    0.592594 0.796498 0.258833 0.340009
H25   H     H_    0.639341 0.273899 0.324230 0.346272
H26   H     H_    0.538904 0.804426 0.746984 0.338358
H27   H     H_    0.414023 0.125672 0.772822 0.271757
H28   H     H_    0.493299 0.170214 0.856233 0.259034
H29   H     H_    0.357926 0.064258 0.852945 0.235282
H30   H     H_    0.295622 0.285679 0.891732 0.213891
H31   H     H_    0.219172 0.252726 0.810100 0.179365
H32   H     H_    0.314980 0.760776 0.130097 0.254634
H33   H     H_    0.396388 0.852708 0.200709 0.271772
H34   H     H_    0.100509 0.667431 0.430315 0.153592
H35   H     H_    0.401397 0.907507 0.111861 0.243024
H36   H     H_    0.604662 0.791757 0.147845 0.181758
H37   H     H_    0.522534 0.712704 0.077739 0.221358
H38   H     H_    0.686258 0.213823 0.107174 0.239599
H39   H     H_    0.672933 0.131242 0.189325 0.289152
H40   H     H_    0.608046 0.056699 0.109100 0.233457
H41   H     H_    0.438995 0.161608 0.178648 0.219536
H42   H     H_    0.446414 0.229645 0.094534 0.188881
H43   H     H_    0.686181 0.655550 0.911342 0.255925
H44   H     H_    0.695257 0.761230 0.836732 0.276599
H45   H     H_    0.624317 0.415788 0.919597 0.134395
H46   H     H_    0.666685 0.832934 0.921414 0.238678
H47   H     H_    0.464485 0.828545 0.848781 0.181301
H48   H     H_    0.461339 0.728825 0.922353 0.215808
H49   H     H_    0.278646 0.532459 0.074092 0.140485
H50   H     H_    0.664799 0.414646 0.047170 0.137484
H51   H     H_    0.240696 0.544031 0.945599 0.141239
H52   H     H_    0.800572 0.134374 0.622655 0.237928
N1    N     N_R   0.500000 0.857200 0.500000 -0.116025
N2    N     N_R   0.500000 0.142800 0.500000 -0.122905
O1    O     O_R   0.316770 0.614620 0.500000 -0.636460
O2    O     O_3   0.559065 0.728876 0.289029 -0.767878
O3    O     O_3   0.570138 0.252750 0.288863 -0.783818
O4    O     O_3   0.556322 0.720096 0.721805 -0.783540
O5    O     O_R   0.683230 0.385380 0.500000 -0.627876
O6    O     O_R   0.683230 0.614620 0.500000 -0.625188
O7    O     O_R   0.316770 0.385380 0.500000 -0.594250
O8    O     O_R   0.500030 0.614710 0.398180 -0.538432
O9    O     O_R   0.499970 0.385290 0.601820 -0.582572
O10   O     O_R   0.499970 0.614710 0.601820 -0.579052
O11   O     O_R   0.500030 0.385290 0.398180 -0.626945
O12   O     O_3   0.334684 0.313097 0.684630 -0.787359
Zn1   Zn    Zn3+2 0.500000 0.653120 0.500000 0.971811
Zn2   Zn    Zn3+2 0.500000 0.346880 0.500000 0.957499

loop_
_geom_bond_atom_site_label_1
_geom_bond_atom_site_label_2
_ccdc_geom_bond_type
C21   C29   S    
C14   C18   A    
C12   C48   S    
C13   C25   A    
C18   C47   S    
C34   H49   S    
C4    C25   S    
C19   C46   S    
C9    C25   A    
H22   O12   S    
C15   C19   A    
C41   H38   S    
C30   H6    S    
C42   H48   S    
C9    O12   S    
O6    Zn1   S    
C36   C37   S    
C32   H13   S    
C1    C2    S    
C10   C15   A    
C14   C36   S    
C38   C39   S    
C28   H3    S    
C20   N2    A    
C35   H17   S    
C3    O8    A    
C2    O5    A    
C43   H46   S    
C24   N1    A    
C17   C42   S    
O7    Zn2   S    
C44   H50   S    
C20   C24   A    
C11   O3    S    
O9    Zn2   S    
C34   C46   A    
C40   H41   S    
C33   H21   S    
O11   Zn2   S    
C21   N1    A    
C28   H52   S    
C48   O7    A    
C37   H27   S    
C21   C22   A    
C5    H1    S    
C28   H2    S    
C44   C46   A    
C45   C47   A    
C41   H39   S    
C23   C47   A    
C22   C31   S    
C38   H37   S    
C42   H47   S    
C6    H12   S    
C39   H33   S    
C5    C12   A    
C45   H51   S    
C5    C7    A    
C6    C8    A    
H24   O2    S    
C11   C26   A    
C48   O1    A    
C37   H29   S    
C43   H43   S    
C23   C44   A    
C1    C6    A    
O1    Zn1   S    
C9    C14   A    
C15   C38   S    
C29   C30   S    
C31   H15   S    
H26   O4    S    
C11   C16   A    
H25   O3    S    
C31   C32   S    
C35   H19   S    
C8    C12   A    
C17   C18   A    
C34   C45   A    
C16   C40   S    
C40   C41   S    
C37   H28   S    
C29   H9    S    
C3    O11   A    
N1    Zn1   S    
C8    H34   S    
C42   C43   S    
C27   H4    S    
C41   H40   S    
C38   H36   S    
C1    C7    A    
C31   H16   S    
C4    O9    A    
C3    C26   S    
C24   C33   S    
C13   O4    S    
C36   H31   S    
C22   N2    A    
C27   H5    S    
C20   C27   S    
C30   H7    S    
C43   H44   S    
C35   H18   S    
C13   C17   A    
C39   H32   S    
C10   O2    S    
C32   H14   S    
C36   H30   S    
C7    H23   S    
C10   C26   A    
C30   H8    S    
C16   C19   A    
C2    O6    A    
C33   C35   S    
C4    O10   A    
O5    Zn2   S    
N2    Zn2   S    
C39   H35   S    
C23   H45   S    
C29   H10   S    
C27   C28   S    
C32   H11   S    
C40   H42   S    
O8    Zn1   S    
O10   Zn1   S    
C33   H20   S    
