data_mof_unit_44392.cif
_audit_creation_date              2012-12-10T18:02:12-0500
_audit_creation_method            fapswitch 2.2
_symmetry_space_group_name_H-M    P1
_symmetry_Int_Tables_number       1
_space_group_crystal_system       triclinic
_cell_length_a                    10.832744
_cell_length_b                    9.506001
_cell_length_c                    23.510395
_cell_angle_alpha                 89.734586
_cell_angle_beta                  90.163414
_cell_angle_gamma                 90.00009
_cell_volume                      2420.97238309

loop_
_atom_site_label
_atom_site_type_symbol
_atom_type_description
_atom_site_fract_x
_atom_site_fract_y
_atom_site_fract_z
_atom_type_partial_charge
C1    C     C_R   0.262018 0.500000 0.499959 0.791632
C2    C     C_R   0.737982 0.500000 0.500037 0.791645
C3    C     C_R   0.476030 0.379222 0.238055 0.084730
C4    C     C_R   0.458450 0.386277 0.762311 0.081543
C5    C     C_R   0.475545 0.378646 0.297687 -0.241725
C6    C     C_R   0.459509 0.384222 0.702634 -0.243256
C7    C     C_R   0.500920 0.501753 0.328265 -0.083419
C8    C     C_R   0.502889 0.500298 0.671552 -0.080487
C9    C     C_R   0.527422 0.626585 0.298731 -0.278295
C10   C     C_R   0.547514 0.618513 0.700377 -0.275630
C11   C     C_R   0.529383 0.628819 0.239312 0.184962
C12   C     C_R   0.549228 0.621576 0.759735 0.188562
C13   C     C_R   0.503585 0.505587 0.208820 0.359636
C14   C     C_R   0.504330 0.506219 0.790944 0.359474
C15   C     C_R   0.063851 0.372153 0.499914 -0.182753
C16   C     C_R   0.936150 0.627845 0.500068 -0.181674
C17   C     C_R   0.936151 0.372152 0.499977 -0.179172
C18   C     C_R   0.063850 0.627845 0.500004 -0.178644
C19   C     C_R   0.871802 0.499999 0.500040 -0.017741
C20   C     C_R   0.128199 0.499999 0.499946 -0.018208
C21   C     C_R   0.423178 0.074863 0.464625 -0.025901
C22   C     C_R   0.576837 0.925136 0.535366 -0.023664
C23   C     C_R   0.576832 0.074061 0.535367 -0.025710
C24   C     C_R   0.423185 0.925938 0.464624 -0.027266
C25   C     C_R   0.500027 0.500366 0.390866 0.822650
C26   C     C_R   0.500683 0.499787 0.609071 0.822242
C27   C     C_R   0.612695 0.482892 0.880584 0.543313
C28   C     C_R   0.398911 0.546279 0.119282 0.548521
C29   C     C_R   0.399976 0.549581 0.880084 0.528663
C30   C     C_R   0.611655 0.479400 0.119706 0.538592
C31   C     C_R   0.397977 0.551786 0.939726 -0.016388
C32   C     C_R   0.614632 0.481552 0.060082 -0.018115
C33   C     C_R   0.506456 0.517288 0.969906 -0.016056
C34   C     C_R   0.506163 0.516291 0.029923 -0.019167
C35   C     C_R   0.615215 0.483656 0.940210 -0.016866
C36   C     C_R   0.397335 0.549688 0.059636 -0.017050
C37   C     C_R   0.290306 0.586248 0.969775 -0.168323
C38   C     C_R   0.722828 0.449323 0.030039 -0.163369
C39   C     C_R   0.289962 0.585106 0.029129 -0.169160
C40   C     C_R   0.723138 0.450459 0.970702 -0.167339
Cu1   Cu    Cu3+1 0.500000 0.640660 0.500000 0.943674
Cu2   Cu    Cu3+1 0.500000 0.359340 0.500000 0.942526
H1    H     H_    0.205801 0.613326 0.947558 0.189448
H2    H     H_    0.807433 0.422589 0.052244 0.187911
H3    H     H_    0.205233 0.611467 0.050984 0.188555
H4    H     H_    0.807947 0.424429 0.948848 0.188187
H5    H     H_    0.454403 0.281819 0.320158 0.156871
H6    H     H_    0.424394 0.292915 0.680386 0.158955
H7    H     H_    0.547736 0.722547 0.321626 0.162721
H8    H     H_    0.582076 0.708573 0.676891 0.153842
H9    H     H_    0.111891 0.272206 0.499847 0.148795
H10   H     H_    0.888110 0.727791 0.500135 0.148735
H11   H     H_    0.888111 0.272205 0.499969 0.149139
H12   H     H_    0.111890 0.727793 0.500011 0.149280
H13   H     H_    0.361679 0.131403 0.436301 0.115303
H14   H     H_    0.638353 0.868594 0.563682 0.114716
H15   H     H_    0.638343 0.129965 0.563679 0.119896
H16   H     H_    0.361695 0.870033 0.436302 0.119610
N1    N     N_R   0.505416 0.512167 0.851958 -0.448936
N2    N     N_R   0.504630 0.510192 0.147839 -0.454311
N3    N     N_R   0.500000 0.852070 0.500000 -0.156062
N4    N     N_R   0.500000 0.147930 0.500000 -0.156149
O1    O     O_R   0.319640 0.618740 0.500000 -0.586845
O2    O     O_R   0.680360 0.381260 0.500000 -0.587284
O3    O     O_R   0.680360 0.618740 0.500000 -0.589964
O4    O     O_R   0.319640 0.381260 0.500000 -0.589801
O5    O     O_R   0.499960 0.618810 0.417880 -0.583596
O6    O     O_R   0.500040 0.381190 0.582120 -0.584027
O7    O     O_R   0.500040 0.618810 0.582120 -0.580721
O8    O     O_R   0.499960 0.381190 0.417880 -0.583834
O9    O     O_2   0.716168 0.452005 0.851345 -0.548697
O10   O     O_2   0.295886 0.578580 0.148583 -0.553137
O11   O     O_2   0.297424 0.583568 0.850343 -0.545987
O12   O     O_2   0.714422 0.446182 0.149430 -0.539180
C41   C     C_3   0.446170 0.244484 0.206892 -0.402741
C42   C     C_3   0.306994 0.215393 0.207938 -0.356214
C43   C     C_3   0.275204 0.081716 0.175338 -0.793365
H17   H     H_    0.304727 0.091383 0.130274 0.257133
H18   H     H_    0.321367 0.989393 0.195142 0.255690
H19   H     H_    0.173867 0.064414 0.176352 0.251903
H20   H     H_    0.275155 0.203478 0.252616 0.218552
H21   H     H_    0.256721 0.305241 0.188251 0.260680
H22   H     H_    0.477706 0.249327 0.162049 0.208299
H23   H     H_    0.496691 0.155655 0.227287 0.197447
C44   C     C_3   0.405105 0.261918 0.794334 -0.397674
C45   C     C_3   0.506347 0.160703 0.814640 -0.362910
C46   C     C_3   0.452861 0.044651 0.852303 -0.810497
H24   H     H_    0.408357 0.090834 0.890419 0.256268
H25   H     H_    0.383631 0.982212 0.828292 0.266334
H26   H     H_    0.528026 0.973451 0.866749 0.260157
H27   H     H_    0.552023 0.112438 0.777210 0.220432
H28   H     H_    0.577349 0.217947 0.839434 0.252155
H29   H     H_    0.349911 0.299009 0.831016 0.222314
H30   H     H_    0.339941 0.203311 0.766501 0.198910
N5    N     N_3   0.557929 0.756346 0.209499 -0.572111
H31   H     H_    0.645722 0.789229 0.222376 0.226783
H32   H     H_    0.494710 0.833120 0.222077 0.211655
N6    N     N_3   0.595747 0.742643 0.788711 -0.578699
H33   H     H_    0.546076 0.830108 0.774297 0.216659
H34   H     H_    0.687792 0.756726 0.776709 0.232418

loop_
_geom_bond_atom_site_label_1
_geom_bond_atom_site_label_2
_ccdc_geom_bond_type
C38   C40   A    
C46   H24   S    
C24   N3    A    
Cu2   O2    S    
C8    C26   S    
Cu1   Cu2   S    
N5    H31   S    
C25   O5    A    
Cu1   N3    S    
C2    O3    A    
C21   H13   S    
Cu1   O5    S    
C13   N2    S    
C43   H17   S    
C40   H4    S    
C14   N1    S    
C5    H5    S    
C6    H6    S    
C45   H27   S    
C30   O12   S    
C41   H23   S    
C29   O11   S    
Cu2   O8    S    
C18   C20   A    
C15   C17   A    
C33   C35   A    
C44   H29   S    
C23   N4    A    
C29   N1    A    
C30   N2    A    
C31   C33   A    
C32   C38   A    
C3    C41   S    
Cu2   N4    S    
C12   N6    S    
C3    C13   A    
C39   H3    S    
C28   N2    A    
Cu2   O6    S    
C28   O10   S    
C1    O1    A    
C2    O2    A    
C1    O4    A    
C43   H18   S    
C15   C20   A    
C9    H7    S    
C42   C43   S    
C4    C6    A    
C42   H21   S    
C5    C7    A    
C45   C46   S    
Cu1   O3    S    
C4    C44   S    
C27   C35   A    
C44   C45   S    
C36   C39   A    
C31   C37   A    
C32   C34   A    
C37   H1    S    
C41   C42   S    
C38   H2    S    
C44   H30   S    
C29   C31   A    
C33   C34   A    
C9    C11   A    
C21   N4    A    
C10   C12   A    
C24   H16   S    
C12   C14   A    
C15   H9    S    
C46   H25   S    
C46   H26   S    
Cu1   O1    S    
C10   H8    S    
C17   H11   S    
C27   O9    S    
Cu1   O7    S    
C43   H19   S    
C11   N5    S    
C23   H15   S    
C1    C20   S    
C2    C19   S    
C8    C10   A    
C16   H10   S    
C3    C5    A    
C42   H20   S    
C6    C8    A    
N5    H32   S    
N6    H34   S    
C7    C25   S    
C22   H14   S    
C26   O6    A    
C35   C40   A    
C37   C39   A    
C27   N1    A    
C22   N3    A    
C30   C32   A    
C11   C13   A    
C41   H22   S    
C16   C19   A    
C17   C19   A    
C34   C36   A    
C4    C14   A    
C18   H12   S    
C7    C9    A    
C28   C36   A    
C16   C18   A    
N6    H33   S    
C21   C24   A    
Cu2   O4    S    
C26   O7    A    
C22   C23   A    
C45   H28   S    
C25   O8    A    
