data_mof_unit_13857.cif
_audit_creation_date              2012-12-11T15:28:43-0500
_audit_creation_method            fapswitch 2.2
_symmetry_space_group_name_H-M    P1
_symmetry_Int_Tables_number       1
_space_group_crystal_system       triclinic
_cell_length_a                    6.96092
_cell_length_b                    19.594948
_cell_length_c                    23.365162
_cell_angle_alpha                 96.018453
_cell_angle_beta                  91.056294
_cell_angle_gamma                 88.790053
_cell_volume                      3168.28712342

loop_
_atom_site_label
_atom_site_type_symbol
_atom_type_description
_atom_site_fract_x
_atom_site_fract_y
_atom_site_fract_z
_atom_type_partial_charge
O1    O     O_R   0.617180 0.809390 0.808140 -0.527721
O2    O     O_R   0.382820 0.190610 0.191860 -0.525892
O3    O     O_R   0.293300 0.672410 0.795490 -0.523709
O4    O     O_R   0.706700 0.327590 0.204510 -0.534151
O5    O     O_R   0.117220 0.690610 0.691850 -0.524848
O6    O     O_R   0.882780 0.309390 0.308150 -0.523491
C1    C     C_R   0.464634 0.647811 0.805552 0.766266
C2    C     C_R   0.535853 0.351848 0.194125 0.769006
O7    O     O_R   0.287840 0.807750 0.814460 -0.525589
O8    O     O_R   0.712160 0.192250 0.185540 -0.527355
O9    O     O_R   0.111720 0.826910 0.710960 -0.524947
O10   O     O_R   0.888280 0.173090 0.289040 -0.524508
C3    C     C_R   0.456492 0.830734 0.833186 0.729861
C4    C     C_R   0.543505 0.169267 0.166813 0.732832
O11   O     O_R   0.622680 0.673080 0.789040 -0.535685
O12   O     O_R   0.377320 0.326920 0.210960 -0.531381
O13   O     O_3   0.448820 0.756130 0.716020 -0.361850
O14   O     O_3   0.551180 0.243870 0.283980 -0.361210
V1    V     V_3+5 0.176220 0.748860 0.756300 1.510833
V2    V     V_3+5 0.823780 0.251140 0.243700 1.504400
O15   O     O_R   0.781670 0.827580 0.704500 -0.543296
O16   O     O_R   0.218330 0.172420 0.295500 -0.543143
C5    C     C_R   0.948039 0.852040 0.694542 0.779018
C6    C     C_R   0.051961 0.147960 0.305457 0.780319
O17   O     O_R   0.787130 0.692240 0.685530 -0.529451
O18   O     O_R   0.212870 0.307760 0.314470 -0.530317
C7    C     C_R   0.956100 0.669226 0.666810 0.742114
C8    C     C_R   0.043886 0.330767 0.333194 0.738143
V3    V     V_3+5 0.675510 0.751130 0.743690 1.480666
V4    V     V_3+5 0.324490 0.248870 0.256310 1.481499
O19   O     O_3   0.952780 0.743870 0.783980 -0.360099
O20   O     O_3   0.047220 0.256130 0.216020 -0.360903
C9    C     C_1   0.966625 0.617155 0.614760 -0.173342
C10   C     C_1   0.033310 0.382834 0.385247 -0.174125
C11   C     C_1   0.978166 0.573641 0.571941 0.028168
C12   C     C_1   0.021723 0.426347 0.428066 0.029471
C13   C     C_1   0.993363 0.521848 0.521324 0.024136
C14   C     C_1   0.006499 0.478140 0.478682 0.024835
C15   C     C_R   0.947659 0.913964 0.663799 -0.129860
C16   C     C_R   0.052338 0.086036 0.336201 -0.130444
C17   C     C_R   0.885176 0.035604 0.665304 -0.089035
C18   C     C_R   0.114805 0.964395 0.334695 -0.087831
C19   C     C_R   0.887364 0.976170 0.692828 -0.304490
C20   C     C_R   0.112628 0.023829 0.307172 -0.304073
C21   C     C_R   0.997435 0.910582 0.605479 0.561536
C22   C     C_R   0.002555 0.089418 0.394520 0.561650
C23   C     C_R   0.976318 0.969724 0.574388 -0.071064
C24   C     C_R   0.023663 0.030276 0.425612 -0.071139
C25   C     C_R   0.931973 0.033564 0.606790 0.031736
C26   C     C_R   0.068004 0.966436 0.393209 0.031260
C27   C     C_R   0.999898 0.968549 0.513146 0.023868
C28   C     C_R   0.000078 0.031450 0.486854 0.024000
C29   C     C_R   0.983607 0.093494 0.522939 -0.186880
C30   C     C_R   0.016362 0.906506 0.477060 -0.186774
C31   C     C_R   0.940111 0.095107 0.581302 0.339796
C32   C     C_R   0.059856 0.904892 0.418697 0.340466
H1    H     H_    0.152752 0.020924 0.262372 0.141699
H2    H     H_    0.847242 0.979075 0.737629 0.141267
H3    H     H_    0.845606 0.083393 0.690252 0.189894
H4    H     H_    0.154371 0.916605 0.309747 0.190478
H5    H     H_    0.009263 0.142089 0.507424 0.202489
H6    H     H_    0.990702 0.857912 0.492576 0.202613
C33   C     C_R   0.485092 0.583971 0.834446 -0.207764
C34   C     C_R   0.524793 0.415771 0.165294 -0.206004
C35   C     C_R   0.600416 0.466234 0.833202 -0.060890
C36   C     C_R   0.549234 0.539344 0.169051 -0.055458
C37   C     C_R   0.563692 0.523778 0.804254 0.258385
C38   C     C_R   0.553479 0.480178 0.197327 0.255276
C39   C     C_R   0.440869 0.584148 0.893307 0.406107
C40   C     C_R   0.491696 0.412491 0.105208 0.408401
C41   C     C_R   0.507118 0.528577 0.924851 -0.049294
C42   C     C_R   0.518713 0.472095 0.075334 -0.048901
C43   C     C_R   0.574453 0.467562 0.892811 -0.108612
C44   C     C_R   0.532969 0.536497 0.108771 -0.111768
C45   C     C_R   0.514037 0.531774 0.986647 -0.162738
C46   C     C_R   0.536155 0.470043 0.013968 -0.160577
C47   C     C_R   0.603322 0.410409 0.980334 0.550325
C48   C     C_R   0.528831 0.594927 0.021657 0.551147
C49   C     C_R   0.622529 0.408928 0.920409 0.294459
C50   C     C_R   0.538314 0.597521 0.082067 0.298197
H7    H     H_    0.655471 0.420418 0.808366 0.205487
H8    H     H_    0.565124 0.588082 0.195067 0.206461
C51   C     C_1   0.467173 0.882797 0.885248 -0.180097
C52   C     C_1   0.532818 0.117207 0.114750 -0.180843
C53   C     C_1   0.478612 0.926318 0.928070 0.023852
C54   C     C_1   0.521377 0.073687 0.071928 0.022400
C55   C     C_1   0.493552 0.978136 0.978681 0.020271
C56   C     C_1   0.506436 0.021869 0.021317 0.019859
O21   O     O_3   0.911665 0.156900 0.614850 -0.636327
H9    H     H_    0.918886 0.195283 0.590534 0.306734
O22   O     O_3   0.088294 0.843099 0.385148 -0.635580
H10   H     H_    0.081064 0.804716 0.409465 0.307305
F1    F     F_    0.679073 0.356828 0.006273 -0.668417
F2    F     F_    0.564760 0.653404 0.997545 -0.666174
F3    F     F_    0.923435 0.149473 0.418063 -0.717514
F4    F     F_    0.076558 0.850528 0.581935 -0.717580
O23   O     O_3   0.691801 0.350854 0.887734 -0.634474
H11   H     H_    0.708564 0.312555 0.911963 0.353314
O24   O     O_3   0.556471 0.659320 0.116184 -0.632245
H12   H     H_    0.546601 0.697976 0.092121 0.354455
O25   O     O_3   0.418890 0.352163 0.078328 -0.605486
H13   H     H_    0.340950 0.363288 0.044488 0.316828
O26   O     O_3   0.322796 0.636681 0.917093 -0.600305
H14   H     H_    0.250432 0.619405 0.948572 0.314588
O27   O     O_3   0.581684 0.488563 0.256395 -0.630095
H15   H     H_    0.573124 0.444060 0.272470 0.279150
O28   O     O_3   0.603131 0.517842 0.746123 -0.631688
H16   H     H_    0.544038 0.556799 0.728070 0.280116

loop_
_geom_bond_atom_site_label_1
_geom_bond_atom_site_label_2
_ccdc_geom_bond_type
C36   C38   A    
C55   C56   T    
O25   H13   S    
O13   V3    S    
C29   C31   A    
C4    C52   S    
C42   C46   A    
V1    O19   S    
O23   H11   S    
C40   O25   S    
C23   C25   A    
C7    C9    S    
C16   C22   A    
O9    V1    S    
C34   C38   A    
C11   C13   S    
C52   C54   T    
O3    C1    A    
C9    C11   T    
C54   C56   S    
O12   V4    S    
C36   C44   A    
C35   C43   A    
C47   F1    S    
C39   C41   A    
O7    C3    A    
C19   H2    S    
C6    C16   S    
O5    C7    A    
C29   H5    S    
O7    V1    S    
C32   O22   S    
O6    C8    A    
C22   F3    S    
C33   C39   A    
O8    V2    S    
C35   C37   A    
O28   H16   S    
O3    V1    S    
O14   V4    S    
C34   C40   A    
V4    O20   S    
C10   C12   T    
O4    C2    A    
C15   C21   A    
C24   C26   A    
C8    C10   S    
C2    O12   A    
C44   C50   A    
C17   C19   A    
C18   C20   A    
C17   C25   A    
O11   V3    S    
C22   C24   A    
C21   C23   A    
O17   V3    S    
C33   C37   A    
C53   C55   S    
C27   C28   A    
C46   C47   A    
C17   H3    S    
C42   C44   A    
O8    C4    A    
C18   H4    S    
O22   H10   S    
C41   C43   A    
C15   C19   A    
C1    O11   A    
C30   H6    S    
C25   C31   A    
O15   V3    S    
C26   C32   A    
C45   C46   A    
C13   C14   T    
C36   H8    S    
C35   H7    S    
O24   H12   S    
C16   C20   A    
C20   H1    S    
O10   V2    S    
O1    V3    S    
C43   C49   A    
C47   C49   A    
C48   C50   A    
C1    C33   S    
C2    C34   S    
C51   C53   T    
C18   C26   A    
O18   V4    S    
O15   C5    A    
C50   O24   S    
O16   C6    A    
O1    C3    A    
C38   O27   S    
C28   C29   A    
V2    O20   S    
O10   C6    A    
O16   V4    S    
C39   O26   S    
C49   O23   S    
C23   C27   A    
C30   C32   A    
O5    V1    S    
O17   C7    A    
O6    V2    S    
O27   H15   S    
C3    C51   S    
O18   C8    A    
O2    V4    S    
C27   C30   A    
C12   C14   S    
V3    O19   S    
C41   C45   A    
C37   O28   S    
C48   F2    S    
C5    C15   S    
O9    C5    A    
O13   V1    S    
O14   V2    S    
O2    C4    A    
C45   C48   A    
O4    V2    S    
C24   C28   A    
C31   O21   S    
O26   H14   S    
C40   C42   A    
O21   H9    S    
C21   F4    S    
