data_mof_unit_37130.cif
_audit_creation_date              2012-12-11T15:24:01-0500
_audit_creation_method            fapswitch 2.2
_symmetry_space_group_name_H-M    P1
_symmetry_Int_Tables_number       1
_space_group_crystal_system       triclinic
_cell_length_a                    17.418404
_cell_length_b                    24.522004
_cell_length_c                    15.249033
_cell_angle_alpha                 89.922831
_cell_angle_beta                  125.85561
_cell_angle_gamma                 90.101627
_cell_volume                      5279.06024046

loop_
_atom_site_label
_atom_site_type_symbol
_atom_type_description
_atom_site_fract_x
_atom_site_fract_y
_atom_site_fract_z
_atom_type_partial_charge
C1    C     C_R   0.364229 0.345974 0.911183 -0.104837
C2    C     C_R   0.642841 0.347034 0.088551 -0.125563
C3    C     C_R   0.851565 0.848027 0.912355 -0.124047
C4    C     C_R   0.136427 0.846118 0.088880 -0.106159
C5    C     C_R   0.334683 0.660194 0.999091 -0.114404
C6    C     C_R   0.691577 0.636772 0.004226 -0.110148
C7    C     C_R   0.816150 0.143739 0.999568 -0.095409
C8    C     C_R   0.175172 0.152372 0.002220 -0.118666
C9    C     C_R   0.473875 0.497865 0.297589 -0.232122
C10   C     C_R   0.457885 0.497805 0.649317 -0.236203
C11   C     C_R   0.054231 0.999589 0.357025 -0.163632
C12   C     C_R   0.000535 0.998687 0.679346 -0.216222
C13   C     C_R   0.173499 0.498564 0.713476 0.024545
C14   C     C_R   0.793714 0.501924 0.369422 -0.079301
C15   C     C_R   0.704487 0.002349 0.631978 -0.084163
C16   C     C_R   0.326460 0.997460 0.289955 0.038234
C17   C     C_2   0.913226 0.468900 0.552393 0.592577
C18   C     C_2   0.011792 0.465402 0.594742 0.601200
C19   C     C_2   0.487552 0.964443 0.407153 0.610581
C20   C     C_2   0.585858 0.969224 0.449599 0.576823
C21   C     C_2   0.868396 0.509770 0.484054 -0.222735
C22   C     C_2   0.074095 0.499588 0.671813 -0.381774
C23   C     C_2   0.424951 0.997883 0.329070 -0.385569
C24   C     C_2   0.628706 0.010157 0.518198 -0.229695
C25   C     C_R   0.172373 0.697433 0.909371 0.836653
C26   C     C_R   0.847627 0.685967 0.103629 0.871933
C27   C     C_R   0.655329 0.186220 0.907815 0.864150
C28   C     C_R   0.335695 0.192082 0.089888 0.846103
C29   C     C_R   0.601837 0.229185 0.904958 -0.397649
C30   C     C_R   0.394961 0.229197 0.087961 -0.399636
C31   C     C_R   0.109997 0.731497 0.911427 -0.391713
C32   C     C_R   0.888489 0.734417 0.103388 -0.410891
C33   C     C_R   0.632376 0.256414 0.000729 -0.143676
C34   C     C_R   0.361946 0.257652 0.992454 -0.130215
C35   C     C_R   0.140245 0.758526 0.007255 -0.127536
C36   C     C_R   0.857659 0.759275 0.005228 -0.150434
C37   C     C_R   0.703396 0.232469 0.098717 0.692594
C38   C     C_R   0.276242 0.241854 0.896116 0.687836
C39   C     C_R   0.226182 0.743379 0.103775 0.682956
C40   C     C_R   0.801606 0.728698 0.910067 0.695818
C41   C     C_R   0.295201 0.720345 0.098032 -0.210364
C42   C     C_R   0.755158 0.681935 0.908895 -0.230055
C43   C     C_R   0.769349 0.199441 0.101989 -0.225077
C44   C     C_R   0.209934 0.215072 0.902250 -0.208136
C45   C     C_R   0.410690 0.634284 0.088532 -0.255722
C46   C     C_R   0.601082 0.623447 0.912546 -0.217039
C47   C     C_R   0.900661 0.123141 0.088794 -0.226015
C48   C     C_R   0.097313 0.127494 0.912843 -0.227243
C49   C     C_R   0.267665 0.694901 0.000515 -0.189918
C50   C     C_R   0.767958 0.665260 0.005698 -0.200074
C51   C     C_R   0.746440 0.176032 0.003657 -0.200238
C52   C     C_R   0.240608 0.187852 0.999291 -0.187789
C53   C     C_R   0.390481 0.526957 0.464979 -0.152202
C54   C     C_R   0.394850 0.526784 0.377598 -0.244228
C55   C     C_R   0.953911 0.027716 0.504376 -0.154606
C56   C     C_R   0.969591 0.029146 0.426646 -0.272481
C57   C     C_R   0.463891 0.495126 0.382816 -0.087441
C58   C     C_R   0.455213 0.495362 0.555140 -0.122192
C59   C     C_R   0.046908 0.001057 0.443857 -0.092490
C60   C     C_R   0.016005 0.998358 0.598601 -0.111767
C61   C     C_R   0.528341 0.463435 0.473201 0.664289
C62   C     C_R   0.523484 0.463239 0.559311 0.620904
C63   C     C_R   0.109177 0.971288 0.537658 0.694858
C64   C     C_R   0.093883 0.970153 0.616550 0.650122
C65   C     C_R   0.489016 0.453151 0.256171 0.700298
C66   C     C_R   0.465367 0.453085 0.707129 0.746611
C67   C     C_R   0.040323 0.954168 0.297320 0.649707
C68   C     C_R   0.994665 0.953431 0.727598 0.710854
C69   C     C_R   0.229915 0.543925 0.742779 0.729288
C70   C     C_R   0.748110 0.545554 0.303840 0.842010
C71   C     C_R   0.750525 0.045910 0.697426 0.821727
C72   C     C_R   0.270702 0.043309 0.259631 0.741181
C73   C     C_R   0.500647 0.543813 0.269574 0.620912
C74   C     C_R   0.462304 0.543925 0.703455 0.629329
C75   C     C_R   0.045101 0.044583 0.298935 0.612049
C76   C     C_R   0.982846 0.044162 0.717345 0.613963
C77   C     C_R   0.231702 0.453276 0.744226 -0.101039
C78   C     C_R   0.752176 0.455462 0.304888 -0.089450
C79   C     C_R   0.746749 0.955699 0.695646 -0.094951
C80   C     C_R   0.267696 0.952376 0.258462 -0.093423
C81   C     C_R   0.329974 0.642373 0.910010 0.907110
C82   C     C_R   0.689591 0.625112 0.092837 0.792134
C83   C     C_R   0.815097 0.130775 0.909142 0.810534
C84   C     C_R   0.175851 0.138689 0.090602 0.880520
C85   C     C_R   0.448583 0.345768 0.089369 -0.025639
C86   C     C_R   0.553710 0.346941 0.909065 -0.054946
C87   C     C_R   0.941871 0.848758 0.092246 -0.088562
C88   C     C_R   0.052060 0.846124 0.910388 -0.010519
C89   C     C_R   0.394361 0.313339 0.998586 0.092169
C90   C     C_R   0.610432 0.314395 0.999161 0.114342
C91   C     C_R   0.880457 0.816795 0.002906 0.140633
C92   C     C_R   0.106350 0.813655 0.001244 0.092006
H1    H     H_    0.342012 0.331752 0.833010 0.184829
H2    H     H_    0.676773 0.333806 0.170038 0.183837
H3    H     H_    0.813512 0.833938 0.830874 0.182782
H4    H     H_    0.159863 0.831798 0.167435 0.185440
H5    H     H_    0.906773 0.548007 0.501194 0.156322
H6    H     H_    0.051443 0.529252 0.705266 0.148293
H7    H     H_    0.446891 0.026906 0.293676 0.151588
H8    H     H_    0.588955 0.047722 0.501795 0.165132
H9    H     H_    0.539977 0.242547 0.827665 0.209450
H10   H     H_    0.463626 0.238014 0.162153 0.202821
H11   H     H_    0.040998 0.739389 0.837027 0.204918
H12   H     H_    0.941829 0.752742 0.180430 0.210096
H13   H     H_    0.338257 0.551868 0.463143 0.215826
H14   H     H_    0.346340 0.551745 0.307410 0.179204
H15   H     H_    0.892822 0.048593 0.490299 0.210416
H16   H     H_    0.919962 0.050715 0.351712 0.164837
H17   H     H_    0.434455 0.637021 0.169782 0.233281
H18   H     H_    0.573316 0.628928 0.829479 0.212697
H19   H     H_    0.923361 0.120402 0.170615 0.200886
H20   H     H_    0.078324 0.127089 0.832768 0.221552
H21   H     H_    0.494126 0.331356 0.171814 0.163601
H22   H     H_    0.507668 0.333252 0.826205 0.173664
H23   H     H_    0.987904 0.835543 0.175342 0.175488
H24   H     H_    0.007769 0.832129 0.827607 0.163659
N1    N     N_R   0.395440 0.396300 0.944370 -0.070502
N2    N     N_R   0.604560 0.396300 0.055630 -0.061697
N3    N     N_R   0.895440 0.896300 0.944370 -0.061416
N4    N     N_R   0.104560 0.896300 0.055630 -0.066235
N5    N     N_R   0.449890 0.602500 0.055780 -0.093822
N6    N     N_R   0.550110 0.602500 0.944220 -0.078789
N7    N     N_R   0.949890 0.102500 0.055780 -0.080969
N8    N     N_R   0.050110 0.102500 0.944220 -0.086712
N9    N     N_R   0.525090 0.470990 0.205640 -0.172611
N10   N     N_R   0.474910 0.470990 0.794360 -0.166746
N11   N     N_R   0.025090 0.970990 0.205640 -0.160998
N12   N     N_R   0.974910 0.970990 0.794360 -0.175751
N13   N     N_R   0.320240 0.527820 0.794510 -0.146181
N14   N     N_R   0.679760 0.527820 0.205490 -0.146381
N15   N     N_R   0.820240 0.027820 0.794510 -0.145867
N16   N     N_R   0.179760 0.027820 0.205490 -0.145090
N17   N     N_R   0.524580 0.527810 0.205160 -0.140899
N18   N     N_R   0.475420 0.527810 0.794840 -0.148784
N19   N     N_R   0.024580 0.027810 0.205160 -0.151869
N20   N     N_R   0.975420 0.027810 0.794840 -0.144977
N21   N     N_R   0.320750 0.470990 0.794990 -0.125028
N22   N     N_R   0.679250 0.470990 0.205010 -0.121551
N23   N     N_R   0.820750 0.970990 0.794990 -0.121043
N24   N     N_R   0.179250 0.970990 0.205010 -0.125581
N25   N     N_R   0.393580 0.602500 0.942610 -0.156136
N26   N     N_R   0.606420 0.602500 0.057390 -0.125535
N27   N     N_R   0.893580 0.102500 0.942610 -0.132035
N28   N     N_R   0.106420 0.102500 0.057390 -0.151527
N29   N     N_R   0.451750 0.396300 0.057540 -0.061294
N30   N     N_R   0.548250 0.396300 0.942460 -0.051260
N31   N     N_R   0.951750 0.896300 0.057540 -0.051286
N32   N     N_R   0.048250 0.896300 0.942460 -0.055195
Ni1   Ni    Ni4+2 0.435420 0.434250 0.870220 0.201692
Ni2   Ni    Ni4+2 0.564580 0.434250 0.129780 0.187295
Ni3   Ni    Ni4+2 0.935420 0.934250 0.870220 0.193736
Ni4   Ni    Ni4+2 0.064580 0.934250 0.129780 0.205978
Ni5   Ni    Ni4+2 0.563400 0.564580 0.128670 0.298721
Ni6   Ni    Ni4+2 0.436600 0.564580 0.871330 0.299369
Ni7   Ni    Ni4+2 0.063400 0.064580 0.128670 0.302721
Ni8   Ni    Ni4+2 0.936600 0.064580 0.871330 0.300552
F1    F     F_    0.140528 0.669632 0.817068 -0.615893
F2    F     F_    0.886952 0.660196 0.199484 -0.608801
F3    F     F_    0.619698 0.157488 0.815692 -0.613973
F4    F     F_    0.369512 0.163307 0.181822 -0.622904
F5    F     F_    0.716958 0.246422 0.192549 -0.748909
F6    F     F_    0.250514 0.259273 0.798225 -0.747544
F7    F     F_    0.249011 0.758250 0.201767 -0.743510
F8    F     F_    0.794221 0.742569 0.819418 -0.741259
C93   C     C_R   0.395679 0.731325 0.187577 0.208408
C94   C     C_R   0.451245 0.762804 0.167269 -0.181646
C95   C     C_R   0.548809 0.767552 0.245824 -0.080583
C96   C     C_R   0.591793 0.740194 0.344311 -0.018269
C97   C     C_R   0.536830 0.709459 0.365650 -0.098088
C98   C     C_R   0.438554 0.706237 0.289108 -0.122141
H25   H     H_    0.419223 0.782456 0.089538 0.155957
H26   H     H_    0.591395 0.791371 0.229333 0.151957
H27   H     H_    0.667740 0.742561 0.403873 0.139950
H28   H     H_    0.570773 0.687265 0.440629 0.148342
H29   H     H_    0.397141 0.681251 0.305778 0.160825
C99   C     C_R   0.700178 0.650482 0.807288 0.222762
C100  C     C_R   0.622101 0.674515 0.713011 -0.080021
C101  C     C_R   0.575609 0.647021 0.614483 -0.057505
C102  C     C_R   0.609040 0.596463 0.608676 -0.065610
C103  C     C_R   0.685400 0.571735 0.702414 -0.118530
C104  C     C_R   0.730522 0.598445 0.801931 -0.137158
H30   H     H_    0.597330 0.714368 0.716372 0.117668
H31   H     H_    0.514475 0.665284 0.542515 0.114697
H32   H     H_    0.575780 0.576544 0.531480 0.154845
H33   H     H_    0.710400 0.532242 0.697663 0.175046
H34   H     H_    0.791008 0.579579 0.873816 0.138267
C105  C     C_R   0.865201 0.200918 0.205181 0.233909
C106  C     C_R   0.936391 0.232720 0.213432 -0.172623
C107  C     C_R   0.027680 0.233583 0.309871 -0.086400
C108  C     C_R   0.048149 0.203211 0.398735 0.030402
C109  C     C_R   0.976936 0.172888 0.392201 -0.134538
C110  C     C_R   0.885347 0.172011 0.296040 -0.137192
H35   H     H_    0.921366 0.256051 0.144653 0.137519
H36   H     H_    0.082711 0.257468 0.315488 0.145720
H37   H     H_    0.119257 0.203164 0.472834 0.134293
H38   H     H_    0.993387 0.149271 0.461132 0.140341
H39   H     H_    0.830902 0.147958 0.291464 0.141450
C111  C     C_R   0.108195 0.224187 0.814254 0.210462
C112  C     C_R   0.050391 0.250187 0.837989 -0.206670
C113  C     C_R   0.952478 0.253034 0.760077 -0.080786
C114  C     C_R   0.911589 0.230371 0.657796 0.011506
C115  C     C_R   0.968778 0.205804 0.632572 -0.091674
C116  C     C_R   0.066894 0.202797 0.710145 -0.107700
H40   H     H_    0.081024 0.266801 0.917854 0.151213
H41   H     H_    0.908214 0.272248 0.779410 0.159518
H42   H     H_    0.835587 0.231851 0.598164 0.140111
H43   H     H_    0.936748 0.187855 0.553751 0.130629
H44   H     H_    0.109920 0.181985 0.690664 0.155219
F9    F     F_    0.599956 0.435992 0.481226 -0.628016
F10   F     F_    0.589813 0.435052 0.649781 -0.632465
F11   F     F_    0.183698 0.944079 0.552164 -0.615534
F12   F     F_    0.155120 0.942850 0.710391 -0.614923
F13   F     F_    0.480491 0.400238 0.274745 -0.681999
F14   F     F_    0.446835 0.400658 0.672431 -0.678691
F15   F     F_    0.049792 0.901484 0.328989 -0.678575
F16   F     F_    0.998324 0.900669 0.704181 -0.678446
F17   F     F_    0.196831 0.595028 0.709684 -0.583052
F18   F     F_    0.747353 0.595662 0.340963 -0.616582
F19   F     F_    0.749192 0.096589 0.660867 -0.615432
F20   F     F_    0.304913 0.093971 0.295956 -0.579837
F21   F     F_    0.529248 0.591120 0.325860 -0.714015
F22   F     F_    0.437380 0.595058 0.662120 -0.691057
F23   F     F_    0.075428 0.095409 0.339221 -0.675383
F24   F     F_    0.955849 0.093665 0.669294 -0.709556
C117  C     C_R   0.199790 0.397337 0.707664 0.204056
C118  C     C_R   0.136735 0.372881 0.724626 -0.092561
C119  C     C_R   0.083017 0.328344 0.662118 0.041591
C120  C     C_R   0.099446 0.304111 0.591763 -0.003626
C121  C     C_R   0.167747 0.325659 0.580876 -0.021345
C122  C     C_R   0.216834 0.372911 0.637300 -0.079020
H45   H     H_    0.122241 0.391597 0.777818 0.099485
H46   H     H_    0.027211 0.313652 0.666700 0.114555
H47   H     H_    0.059237 0.268619 0.546273 0.059686
H48   H     H_    0.180074 0.307004 0.525889 0.109092
H49   H     H_    0.264691 0.391714 0.622706 0.149322
C123  C     C_R   0.770936 0.398518 0.339972 0.185013
C124  C     C_R   0.846401 0.371081 0.350332 -0.079870
C125  C     C_R   0.862758 0.316217 0.380406 -0.063314
C126  C     C_R   0.805175 0.288922 0.402241 -0.009858
C127  C     C_R   0.730492 0.316255 0.393098 -0.069793
C128  C     C_R   0.712961 0.370923 0.361378 -0.029723
H50   H     H_    0.890944 0.391770 0.332760 0.155411
H51   H     H_    0.918365 0.294549 0.383869 0.116451
H52   H     H_    0.816176 0.246078 0.422255 0.116155
H53   H     H_    0.685519 0.294910 0.409189 0.157389
H54   H     H_    0.655396 0.391840 0.354815 0.194940
C129  C     C_R   0.722778 0.898695 0.662041 0.198631
C130  C     C_R   0.645281 0.874759 0.652993 -0.054787
C131  C     C_R   0.624016 0.819845 0.624845 -0.118369
C132  C     C_R   0.679117 0.788905 0.604251 -0.017209
C133  C     C_R   0.755833 0.812713 0.612079 -0.052570
C134  C     C_R   0.777951 0.867491 0.641423 -0.074263
H55   H     H_    0.602814 0.898264 0.669987 0.166368
H56   H     H_    0.565858 0.801140 0.620829 0.111135
H57   H     H_    0.664003 0.746155 0.585095 0.116443
H58   H     H_    0.798762 0.788590 0.596709 0.142703
H59   H     H_    0.836966 0.885680 0.646992 0.166682
C135  C     C_R   0.296652 0.897028 0.303313 0.175329
C136  C     C_R   0.363064 0.868149 0.297774 -0.043776
C137  C     C_R   0.408202 0.822897 0.364118 0.037987
C138  C     C_R   0.379082 0.801888 0.425492 -0.040487
C139  C     C_R   0.307814 0.828158 0.425048 -0.004040
C140  C     C_R   0.268125 0.876307 0.366057 -0.090591
H60   H     H_    0.386062 0.883492 0.249997 0.098665
H61   H     H_    0.467218 0.805183 0.369510 0.111437
H62   H     H_    0.412363 0.765663 0.474109 0.092265
H63   H     H_    0.285868 0.812383 0.473506 0.162891
H64   H     H_    0.217850 0.898408 0.372296 0.185322
F25   F     F_    0.292261 0.671383 0.817614 -0.575723
F26   F     F_    0.753397 0.639934 0.196773 -0.602693
F27   F     F_    0.754178 0.149520 0.807038 -0.595557
F28   F     F_    0.215554 0.169293 0.181360 -0.588548
F29   F     F_    0.868243 0.423021 0.549265 -0.677944
F30   F     F_    0.032917 0.436740 0.535143 -0.700053
F31   F     F_    0.467489 0.937811 0.469823 -0.693625
F32   F     F_    0.632690 0.924257 0.453124 -0.697644

loop_
_geom_bond_atom_site_label_1
_geom_bond_atom_site_label_2
_ccdc_geom_bond_type
C25   C31   A    
C79   N23   A    
C55   C56   A    
C26   C32   A    
C108  C109  A    
C6    C82   A    
C53   C58   A    
C87   C91   A    
C27   C29   A    
C14   C70   A    
C97   C98   A    
C79   C129  S    
C23   H7    S    
C135  C140  A    
C16   C72   A    
N32   Ni3   S    
C28   F4    S    
C82   N26   A    
C30   C34   A    
C5    C49   S    
C20   F32   S    
C101  C102  A    
C2    N2    A    
C95   H26   S    
C71   F19   S    
C133  C134  A    
C39   C41   A    
N7    Ni7   S    
C129  C134  A    
C76   F24   S    
C77   C117  S    
C60   C64   A    
C12   C68   A    
C81   N25   A    
C131  C132  A    
C93   C94   A    
C57   C61   A    
C87   N31   A    
C124  H50   S    
C69   F17   S    
C32   C36   A    
C14   C21   S    
N1    N29   A    
N15   Ni8   S    
C10   C58   S    
C126  C127  A    
C77   N21   A    
C40   F8    S    
C67   N11   A    
C137  H61   S    
C26   C50   A    
C8    C52   S    
N13   Ni6   S    
N20   Ni8   S    
N10   Ni1   S    
C75   N19   A    
N25   Ni6   S    
C61   C62   A    
C84   N28   A    
N3    N31   A    
C100  H30   S    
C53   H13   S    
C113  H41   S    
C29   C33   A    
C70   N14   A    
N16   Ni7   S    
N19   Ni7   S    
C123  C124  A    
C3    C91   A    
C114  C115  A    
C121  H48   S    
N2    Ni2   S    
C109  H38   S    
C56   H16   S    
C5    C81   A    
C4    H4    S    
C67   F15   S    
C107  H36   S    
C19   F31   S    
C88   C92   A    
C11   C67   A    
C113  C114  A    
C25   C49   A    
C41   C93   S    
C17   C18   S    
C13   C22   S    
C114  H42   S    
C32   H12   S    
C38   C44   A    
C126  H52   S    
C43   C105  S    
C68   N12   A    
C45   H17   S    
C87   H23   S    
C101  H31   S    
C35   C92   S    
C44   C52   A    
C40   C42   A    
C119  H46   S    
C75   F23   S    
C112  C113  A    
C18   C22   D    
C124  C125  A    
C93   C98   A    
N6    Ni6   S    
N21   Ni1   S    
C94   C95   A    
C99   C104  A    
C9    C73   A    
N11   N19   A    
C11   C59   S    
C78   N22   A    
C88   N32   A    
C41   C49   A    
C120  C121  A    
N18   Ni6   S    
C27   C51   A    
C134  H59   S    
C72   N16   A    
C13   C77   A    
C98   H29   S    
C10   C66   A    
N3    Ni3   S    
C96   H27   S    
C72   F20   S    
C15   C79   A    
N4    Ni4   S    
C115  C116  A    
C84   F28   S    
C128  H54   S    
C20   C24   D    
C3    N3    A    
C36   C40   A    
C88   H24   S    
C136  H60   S    
C86   C90   A    
C63   F11   S    
C95   C96   A    
C85   C89   A    
C130  H55   S    
N2    N30   A    
C61   F9    S    
N27   Ni8   S    
C45   N5    A    
C132  C133  A    
C80   N24   A    
C5    C45   A    
C125  H51   S    
C1    H1    S    
C33   C37   A    
C109  C110  A    
C55   H15   S    
C106  C107  A    
C16   C80   A    
C34   C38   A    
C123  C128  A    
C66   F14   S    
C19   C23   D    
C105  C106  A    
C8    C48   A    
C65   F13   S    
C121  C122  A    
N5    N25   A    
N11   Ni4   S    
N30   Ni1   S    
C21   H5    S    
N12   Ni3   S    
C47   N7    A    
C119  C120  A    
C2    H2    S    
C97   H28   S    
C140  H64   S    
C30   H10   S    
C81   F25   S    
C117  C118  A    
C62   F10   S    
C29   H9    S    
C122  H49   S    
C118  C119  A    
C1    N1    A    
C110  H39   S    
C6    C50   S    
C54   H14   S    
C83   F27   S    
C120  H47   S    
C111  C112  A    
C94   H25   S    
C58   C62   A    
C42   C50   A    
C108  H37   S    
C36   C91   S    
C78   C123  S    
C96   C97   A    
C48   H20   S    
C111  C116  A    
C73   N17   A    
C106  H35   S    
N4    N32   A    
C16   C23   S    
C115  H43   S    
N8    Ni8   S    
C12   C76   A    
C25   F1    S    
C112  H40   S    
N17   Ni5   S    
C37   C43   A    
C80   C135  S    
N6    N26   A    
C39   F7    S    
C136  C137  A    
N14   N22   A    
C14   C78   A    
C139  H63   S    
C130  C131  A    
C37   F5    S    
C102  H32   S    
N9    N17   A    
C132  H57   S    
N24   Ni4   S    
C125  C126  A    
C15   C24   S    
C1    C89   A    
C6    C46   A    
C70   F18   S    
C86   H22   S    
C24   H8    S    
C26   F2    S    
N8    N28   A    
N29   Ni2   S    
C86   N30   A    
C137  C138  A    
C18   F30   S    
C48   N8    A    
C17   F29   S    
C104  H34   S    
C53   C54   A    
C139  C140  A    
C28   C52   A    
C4    N4    A    
C102  C103  A    
N16   N24   A    
C15   C71   A    
C116  H44   S    
C74   F22   S    
C59   C63   A    
C117  C122  A    
C31   H11   S    
C56   C59   A    
C73   F21   S    
C82   F26   S    
C105  C110  A    
C19   C20   S    
N12   N20   A    
N31   Ni4   S    
N5    Ni5   S    
C34   C89   S    
C7    C51   S    
C138  H62   S    
C42   C99   S    
C46   H18   S    
C11   C75   A    
C33   C90   S    
C83   N27   A    
C10   C74   A    
C43   C51   A    
C7    C83   A    
C127  H53   S    
C13   C69   A    
N28   Ni7   S    
C69   N13   A    
C47   H19   S    
C35   C39   A    
C74   N18   A    
C31   C35   A    
N23   Ni3   S    
C127  C128  A    
C131  H56   S    
C3    H3    S    
C28   C30   A    
C133  H58   S    
C135  C136  A    
N14   Ni5   S    
C9    C57   S    
C22   H6    S    
N22   Ni2   S    
N26   Ni5   S    
C107  C108  A    
C68   F16   S    
C9    C65   A    
C46   N6    A    
N15   N23   A    
C103  H33   S    
C85   H21   S    
C99   C100  A    
C63   C64   A    
C76   N20   A    
C66   N10   A    
C38   F6    S    
N13   N21   A    
N10   N18   A    
C71   N15   A    
C2    C90   A    
C100  C101  A    
C8    C84   A    
N7    N27   A    
N9    Ni2   S    
C138  C139  A    
C44   C111  S    
C64   F12   S    
N1    Ni1   S    
C65   N9    A    
C85   N29   A    
C55   C60   A    
C27   F3    S    
C12   C60   S    
C103  C104  A    
C118  H45   S    
C129  C130  A    
C7    C47   A    
C4    C92   A    
C54   C57   A    
C17   C21   D    
