data_mof_unit_17925.cif
_audit_creation_date              2012-12-10T19:11:28-0500
_audit_creation_method            fapswitch 2.2
_symmetry_space_group_name_H-M    P1
_symmetry_Int_Tables_number       1
_space_group_crystal_system       triclinic
_cell_length_a                    10.655934
_cell_length_b                    9.759134
_cell_length_c                    10.513244
_cell_angle_alpha                 89.809262
_cell_angle_beta                  88.038253
_cell_angle_gamma                 89.895919
_cell_volume                      1092.65208252

loop_
_atom_site_label
_atom_site_type_symbol
_atom_type_description
_atom_site_fract_x
_atom_site_fract_y
_atom_site_fract_z
_atom_type_partial_charge
C1    C     C_R   0.257639 0.500046 0.501423 1.020702
C2    C     C_3   0.504056 0.501093 0.122853 0.005321
C3    C     C_3   0.069426 0.641033 0.547100 -0.485016
C4    C     C_3   0.068840 0.388685 0.595360 -0.426695
C5    C     C_3   0.927038 0.645713 0.539466 0.301946
C6    C     C_3   0.924740 0.391265 0.600586 0.312256
C7    C     C_3   0.075606 0.467127 0.363981 0.822184
C8    C     C_3   0.120808 0.499695 0.500878 -0.052943
C9    C     C_3   0.878090 0.500575 0.504207 0.006358
C10   C     C_3   0.929603 0.463786 0.368575 -0.713908
C11   C     C_3   0.381345 0.082071 0.556782 -0.087313
C12   C     C_3   0.380832 0.918947 0.556154 -0.117158
C13   C     C_3   0.509370 0.081550 0.365781 -0.264058
C14   C     C_3   0.510076 0.919243 0.365840 -0.272658
C15   C     C_3   0.608451 0.080342 0.564724 -0.228243
C16   C     C_3   0.607844 0.919007 0.565711 -0.257050
C17   C     C_R   0.502416 0.500319 0.257451 0.911958
C18   C     C_R   0.742041 0.500089 0.502258 0.906970
C19   C     C_R   0.501148 0.499629 0.742641 0.939416
C20   C     C_3   0.476890 0.627764 0.042152 -0.227879
C21   C     C_3   0.416206 0.411474 0.047377 -0.180962
C22   C     C_3   0.390390 0.537412 0.964578 0.007405
C23   C     C_3   0.502165 0.498697 0.877838 0.001747
C24   C     C_3   0.590422 0.588019 0.954104 -0.167417
C25   C     C_3   0.529817 0.372370 0.959371 -0.145113
C26   C     C_3   0.617769 0.461785 0.038116 -0.189928
H1    H     H_    0.891297 0.535855 0.297217 0.174698
H2    H     H_    0.895774 0.360017 0.342337 0.201459
H3    H     H_    0.302417 0.114709 0.496657 0.100547
H4    H     H_    0.302120 0.887374 0.495516 0.130931
H5    H     H_    0.429822 0.119378 0.309387 0.170215
H6    H     H_    0.431320 0.881299 0.308826 0.158954
H7    H     H_    0.697520 0.116260 0.517535 0.136690
H8    H     H_    0.697255 0.881728 0.520342 0.161448
H9    H     H_    0.611147 0.120274 0.663151 0.190510
H10   H     H_    0.608508 0.880432 0.664990 0.153688
H11   H     H_    0.596237 0.120041 0.316024 0.158448
H12   H     H_    0.597664 0.881512 0.316919 0.159123
H13   H     H_    0.454750 0.731763 0.079259 0.150289
H14   H     H_    0.344893 0.340211 0.089475 0.162986
H15   H     H_    0.661423 0.659431 0.911752 0.176801
H16   H     H_    0.553253 0.268567 0.922995 0.191075
H17   H     H_    0.710736 0.431102 0.073513 0.147480
H18   H     H_    0.110195 0.727599 0.490487 0.158204
H19   H     H_    0.100771 0.284898 0.564847 0.160825
H20   H     H_    0.095636 0.657122 0.646972 0.312093
H21   H     H_    0.105351 0.405004 0.691781 0.245482
H22   H     H_    0.902168 0.719485 0.462727 0.067390
H23   H     H_    0.891797 0.287241 0.572851 0.079104
N1    N     N_3   0.499750 0.138610 0.497240 -0.064366
N2    N     N_3   0.499750 0.861390 0.497240 -0.085694
O1    O     O_R   0.314910 0.616040 0.499970 -0.620365
O2    O     O_R   0.314910 0.383960 0.499970 -0.632363
O3    O     O_R   0.500080 0.616020 0.313900 -0.637751
O4    O     O_R   0.500080 0.383980 0.313900 -0.629339
O5    O     O_R   0.685320 0.616040 0.499930 -0.611433
O6    O     O_R   0.685320 0.383960 0.499930 -0.670338
O7    O     O_R   0.500150 0.616060 0.686000 -0.638227
O8    O     O_R   0.500150 0.383940 0.686000 -0.629021
Zn1   Zn    Zn3+2 0.500150 0.654960 0.499940 0.936329
Zn2   Zn    Zn3+2 0.500150 0.345040 0.499940 0.927099
C27   C     C_2   0.261190 0.577454 0.928666 0.415952
H24   H     H_    0.193883 0.612585 0.001132 0.117204
O9    O     O_2   0.230568 0.569378 0.818578 -0.598660
C28   C     C_2   0.349532 0.146476 0.685279 0.476629
H25   H     H_    0.271166 0.216817 0.695236 0.066795
O10   O     O_2   0.409986 0.120756 0.778980 -0.640327
C29   C     C_2   0.349155 0.858249 0.685855 0.550746
H26   H     H_    0.420687 0.841572 0.754897 0.094418
O11   O     O_2   0.239783 0.839223 0.718962 -0.602359
O12   O     O_3   0.872747 0.690368 0.656158 -0.699360
H27   H     H_    0.887746 0.790589 0.660914 0.324219
O13   O     O_3   0.880948 0.420239 0.725493 -0.700019
H28   H     H_    0.794971 0.381779 0.735399 0.320911
O14   O     O_3   0.122267 0.565522 0.275411 -0.809650
H29   H     H_    0.076229 0.652879 0.289157 0.305986
O15   O     O_3   0.121602 0.337507 0.326232 -0.782136
H30   H     H_    0.101804 0.325373 0.235317 0.346756

loop_
_geom_bond_atom_site_label_1
_geom_bond_atom_site_label_2
_ccdc_geom_bond_type
C10   H1    S    
C7    C10   S    
C1    C8    S    
O13   H28   S    
C16   N2    S    
C4    C8    S    
C6    C9    S    
C7    C8    S    
O3    Zn1   S    
O15   H30   S    
C12   C29   S    
C24   C26   S    
C22   C27   S    
O7    Zn1   S    
C15   C16   S    
C15   N1    S    
C1    O2    A    
C27   O9    D    
O1    Zn1   S    
C16   H8    S    
O2    Zn2   S    
C20   C24   S    
C29   H26   S    
C28   O10   D    
C23   C24   S    
C9    C10   S    
C17   O4    A    
C13   H11   S    
C18   O5    A    
C7    O15   S    
C21   C22   S    
C2    C17   S    
C24   H15   S    
C15   H9    S    
C26   H17   S    
C4    H19   S    
C19   O7    A    
C5    H22   S    
C3    H18   S    
O8    Zn2   S    
C2    C20   S    
C4    C6    S    
C3    C8    S    
C20   H13   S    
C7    O14   S    
C19   O8    A    
C25   C26   S    
O5    Zn1   S    
C19   C23   S    
O14   H29   S    
C5    C9    S    
C27   H24   S    
C14   H12   S    
C18   O6    A    
C14   N2    S    
C2    C21   S    
C2    C26   S    
C20   C22   S    
C12   N2    S    
C6    O13   S    
C10   H2    S    
C21   C25   S    
C12   H4    S    
C13   H5    S    
C14   H6    S    
C3    C5    S    
C25   H16   S    
C11   C12   S    
O6    Zn2   S    
C3    H20   S    
O12   H27   S    
C5    O12   S    
C11   N1    S    
C16   H10   S    
C21   H14   S    
O4    Zn2   S    
C23   C25   S    
C6    H23   S    
C1    O1    A    
C13   N1    S    
C9    C18   S    
C11   H3    S    
C29   O11   D    
C28   H25   S    
N1    Zn2   S    
C22   C23   S    
N2    Zn1   S    
C13   C14   S    
C17   O3    A    
C15   H7    S    
C11   C28   S    
C4    H21   S    
