data_mof_unit_27126.cif
_audit_creation_date              2012-12-10T20:34:53-0500
_audit_creation_method            fapswitch 2.2
_symmetry_space_group_name_H-M    P1
_symmetry_Int_Tables_number       1
_space_group_crystal_system       triclinic
_cell_length_a                    10.778787
_cell_length_b                    10.664457
_cell_length_c                    9.944131
_cell_angle_alpha                 91.712007
_cell_angle_beta                  90.685594
_cell_angle_gamma                 91.598045
_cell_volume                      1142.02863661

loop_
_atom_site_label
_atom_site_type_symbol
_atom_type_description
_atom_site_fract_x
_atom_site_fract_y
_atom_site_fract_z
_atom_type_partial_charge
C1    C     C_R   0.495438 0.260655 0.498144 0.905084
C2    C     C_3   0.879921 0.490254 0.496622 -0.420850
C3    C     C_3   0.935347 0.610785 0.575002 0.231078
C4    C     C_3   0.927345 0.493450 0.346374 0.126213
C5    C     C_R   0.419996 0.066330 0.589221 0.059639
C6    C     C_R   0.490683 0.128706 0.494466 -0.167708
C7    C     C_R   0.562459 0.063677 0.401482 -0.081217
C8    C     C_R   0.563812 0.934924 0.403983 -0.102652
C9    C     C_R   0.494623 0.871952 0.500794 -0.063621
C10   C     C_R   0.421629 0.937334 0.591396 0.126525
C11   C     C_3   0.284087 0.924426 0.604125 -0.511379
C12   C     C_R   0.258429 0.499821 0.498440 0.912552
C13   C     C_3   0.281330 0.065399 0.599422 0.501663
C14   C     C_R   0.484972 0.390613 0.067058 0.131619
C15   C     C_R   0.528743 0.604671 0.078942 -0.041915
C16   C     C_R   0.534259 0.605558 0.937133 0.363098
C17   C     C_R   0.484133 0.390805 0.925458 0.017644
C18   C     C_3   0.377598 0.299190 0.915974 -0.333486
C19   C     C_3   0.378724 0.298501 0.068999 0.457201
C20   C     C_R   0.494092 0.739356 0.500881 0.985538
C21   C     C_R   0.742270 0.492874 0.499755 1.046352
C22   C     C_3   0.075723 0.374466 0.559407 0.418588
C23   C     C_3   0.931827 0.367590 0.560279 0.122693
C24   C     C_3   0.077250 0.609191 0.579251 -0.385554
C25   C     C_3   0.070493 0.498247 0.345093 0.161216
C26   C     C_3   0.122891 0.497501 0.494098 -0.292724
H1    H     H_    0.892633 0.581633 0.306478 0.256889
H2    H     H_    0.120331 0.697654 0.544862 0.228713
H3    H     H_    0.616297 0.111883 0.326878 0.242224
H4    H     H_    0.617565 0.884861 0.329486 0.219926
H5    H     H_    0.238956 0.877672 0.514547 0.199400
H6    H     H_    0.256182 0.886229 0.702428 0.269071
H7    H     H_    0.233627 0.100724 0.508896 0.083433
H8    H     H_    0.549285 0.688425 0.139612 0.203023
H9    H     H_    0.109612 0.292374 0.500134 0.048313
H10   H     H_    0.292885 0.340187 0.872852 0.261018
H11   H     H_    0.405725 0.208781 0.869003 0.280895
H12   H     H_    0.293970 0.335106 0.116814 0.136516
H13   H     H_    0.903818 0.286207 0.494304 0.139178
H14   H     H_    0.108706 0.602248 0.685837 0.234801
H15   H     H_    0.903845 0.607746 0.679832 0.163950
H16   H     H_    0.104225 0.410054 0.298790 0.139897
N1    N     N_R   0.499150 0.499140 0.142800 -0.147300
N2    N     N_R   0.499150 0.499180 0.857150 -0.159266
O1    O     O_R   0.500020 0.316790 0.614690 -0.580231
O2    O     O_R   0.500000 0.316760 0.385350 -0.597398
O3    O     O_R   0.314800 0.500000 0.614670 -0.582498
O4    O     O_R   0.314790 0.499960 0.385330 -0.599872
O5    O     O_R   0.500000 0.683240 0.614650 -0.531239
O6    O     O_R   0.499980 0.683210 0.385310 -0.629638
O7    O     O_R   0.685210 0.500040 0.614670 -0.585559
O8    O     O_R   0.685200 0.500000 0.385330 -0.553000
Zn1   Zn    Zn3+2 0.500010 0.500020 0.653130 1.083169
Zn2   Zn    Zn3+2 0.499990 0.499980 0.346870 1.077934
F1    F     F_    0.125123 0.366704 0.688371 -0.556797
S1    S     S_3+6 0.887959 0.761709 0.516184 0.023473
O9    O     O_2   0.962080 0.802661 0.397709 -0.226540
O10   O     O_2   0.753936 0.755854 0.476653 -0.335920
O11   O     O_3   0.910185 0.869324 0.641871 -0.498014
H17   H     H_    0.873333 0.946766 0.608485 0.413731
F2    F     F_    0.241622 0.118834 0.719012 -0.584606
S2    S     S_3+6 0.592234 0.750268 0.878645 0.085764
O12   O     O_2   0.485286 0.824959 0.831472 -0.255633
O13   O     O_2   0.656481 0.825539 0.990897 -0.274568
O14   O     O_3   0.695922 0.728999 0.756929 -0.476854
H18   H     H_    0.775597 0.721386 0.806027 0.374323
F3    F     F_    0.414798 0.184658 0.117628 -0.602617
S3    S     S_3+6 0.873734 0.322539 0.723307 0.123408
O15   O     O_2   0.739781 0.280476 0.712342 -0.307534
O16   O     O_2   0.945411 0.212964 0.770838 -0.108935
O17   O     O_3   0.891222 0.440327 0.838768 -0.463987
H19   H     H_    0.808925 0.478965 0.844649 0.356318
S4    S     S_3+6 0.128961 0.620127 0.234254 0.100629
O18   O     O_2   0.196480 0.724099 0.312509 -0.296982
O19   O     O_2   0.217711 0.562071 0.136823 -0.307487
O20   O     O_3   0.014152 0.681603 0.143169 -0.461926
H20   H     H_    0.056395 0.740635 0.082478 0.405983
S5    S     S_3+6 0.864962 0.372225 0.227340 0.073734
O21   O     O_2   0.965174 0.302861 0.155063 -0.217777
O22   O     O_2   0.782209 0.278365 0.294860 -0.336870
O23   O     O_3   0.780129 0.444518 0.111848 -0.506995
H21   H     H_    0.745102 0.375608 0.052828 0.394734

loop_
_geom_bond_atom_site_label_1
_geom_bond_atom_site_label_2
_ccdc_geom_bond_type
C7    H3    S    
S4    O18   D    
C12   O4    A    
C4    C25   S    
C7    C8    A    
O4    Zn2   S    
C22   H9    S    
C20   O5    A    
C18   H11   S    
C24   C26   S    
C18   C19   S    
C5    C6    A    
O5    Zn1   S    
C1    O2    A    
C15   C16   A    
S1    O9    D    
C4    S5    S    
C20   O6    A    
C9    C20   S    
N2    Zn1   S    
S3    O15   D    
S2    O13   D    
C19   F3    S    
C9    C10   A    
C16   N2    A    
C15   H8    S    
C5    C13   S    
O3    Zn1   S    
C11   H5    S    
O11   H17   S    
S4    O19   D    
C14   C17   A    
C3    C24   S    
C16   S2    S    
C12   O3    A    
O8    Zn2   S    
O23   H21   S    
C1    C6    S    
O20   H20   S    
S5    O21   D    
C8    C9    A    
C25   C26   S    
C12   C26   S    
O7    Zn1   S    
C23   S3    S    
C2    C4    S    
C13   H7    S    
S2    O12   D    
C19   H12   S    
C3    S1    S    
N1    Zn2   S    
O2    Zn2   S    
C2    C21   S    
C17   C18   S    
S5    O22   D    
O6    Zn2   S    
C6    C7    A    
C11   H6    S    
S4    O20   S    
C21   O7    A    
C4    H1    S    
C3    H15   S    
S2    O14   S    
C14   C19   S    
C24   H2    S    
C25   H16   S    
C22   F1    S    
S1    O11   S    
C8    H4    S    
C2    C3    S    
C17   N2    A    
C15   N1    A    
C5    C10   A    
C11   C13   S    
S5    O23   S    
C1    O1    A    
S3    O17   S    
C23   H13   S    
C24   H14   S    
S1    O10   D    
C25   S4    S    
C10   C11   S    
O1    Zn1   S    
O17   H19   S    
C13   F2    S    
S3    O16   D    
O14   H18   S    
C22   C26   S    
C2    C23   S    
C22   C23   S    
C18   H10   S    
C21   O8    A    
C14   N1    A    
