data_mof_unit_8792.cif
_audit_creation_date              2012-12-10T20:34:11-0500
_audit_creation_method            fapswitch 2.2
_symmetry_space_group_name_H-M    P1
_symmetry_Int_Tables_number       1
_space_group_crystal_system       triclinic
_cell_length_a                    9.923615
_cell_length_b                    10.698111
_cell_length_c                    13.55031
_cell_angle_alpha                 90.703147
_cell_angle_beta                  82.219345
_cell_angle_gamma                 90.066724
_cell_volume                      1425.20282133

loop_
_atom_site_label
_atom_site_type_symbol
_atom_type_description
_atom_site_fract_x
_atom_site_fract_y
_atom_site_fract_z
_atom_type_partial_charge
C1    C     C_R   0.500825 0.739662 0.497654 0.888978
C2    C     C_1   0.455854 0.497378 0.790530 -0.118013
C3    C     C_R   0.410126 0.934884 0.441134 -0.001252
C4    C     C_R   0.507275 0.871100 0.486294 -0.110015
C5    C     C_R   0.618489 0.935894 0.515568 -0.181161
C6    C     C_R   0.617800 0.064654 0.516486 -0.208008
C7    C     C_R   0.505888 0.128176 0.488234 -0.124285
C8    C     C_R   0.409011 0.062707 0.442743 0.105052
C9    C     C_3   0.256404 0.069109 0.454749 -0.061442
C10   C     C_3   0.258308 0.924844 0.452510 -0.075682
C11   C     C_R   0.913087 0.527756 0.585025 0.161446
C12   C     C_R   0.474977 0.500435 0.685961 0.916395
C13   C     C_R   0.946838 0.462053 0.417259 0.159752
C14   C     C_R   0.089461 0.466342 0.418083 -0.203288
C15   C     C_R   0.055300 0.525738 0.585355 0.227668
C16   C     C_3   0.052675 0.643082 0.645956 -0.560167
C17   C     C_3   0.900058 0.648489 0.642297 -0.286418
C18   C     C_R   0.500462 0.260173 0.498388 0.873498
C19   C     C_R   0.524891 0.497455 0.314085 0.869703
C20   C     C_1   0.542429 0.473555 0.211007 -0.195581
C21   C     C_2   0.540540 0.424041 0.022651 -0.126882
C22   C     C_2   0.443875 0.485974 0.983265 -0.261631
C23   C     C_1   0.445726 0.492765 0.878812 0.026290
C24   C     C_1   0.547535 0.449149 0.124779 0.006441
H1    H     H_    0.371978 0.546065 0.029439 0.180486
H2    H     H_    0.158736 0.440786 0.352397 0.170745
H3    H     H_    0.082138 0.625803 0.720933 0.231926
H4    H     H_    0.109637 0.720044 0.605441 0.199752
H5    H     H_    0.869498 0.727259 0.597217 0.147181
H6    H     H_    0.700638 0.888118 0.544647 0.173358
H7    H     H_    0.699706 0.113525 0.545900 0.178559
H8    H     H_    0.214258 0.105337 0.530015 0.133890
H9    H     H_    0.217838 0.884942 0.525810 0.156769
N1    N     N_R   0.857130 0.500860 0.500650 -0.128939
N2    N     N_R   0.142770 0.500820 0.500650 -0.117220
O1    O     O_R   0.385310 0.683210 0.499990 -0.625147
O2    O     O_R   0.614650 0.683240 0.500000 -0.620219
O3    O     O_R   0.368820 0.499950 0.640340 -0.609105
O4    O     O_R   0.598170 0.499990 0.640350 -0.590892
O5    O     O_R   0.385350 0.316760 0.500000 -0.612271
O6    O     O_R   0.614690 0.316790 0.500010 -0.616054
O7    O     O_R   0.401830 0.500010 0.359650 -0.622542
O8    O     O_R   0.631180 0.500050 0.359660 -0.615492
Zn1   Zn    Zn3+2 0.346870 0.499980 0.499990 0.939749
Zn2   Zn    Zn3+2 0.653130 0.500020 0.500010 0.960426
C25   C     C_2   0.815431 0.638172 0.742641 1.005074
O9    O     O_2   0.725861 0.714996 0.767764 -0.634047
O10   O     O_R   0.839235 0.541953 0.806978 -0.773649
H10   H     H_    0.777655 0.548068 0.872890 0.347865
C26   C     C_2   0.641775 0.337499 0.966493 0.987479
O11   O     O_2   0.756707 0.332614 0.988984 -0.567044
O12   O     O_R   0.608071 0.258028 0.890803 -0.753094
H11   H     H_    0.506937 0.253949 0.887187 0.305044
C27   C     C_3   0.195351 0.138992 0.371282 -0.345070
C28   C     C_3   0.295718 0.171983 0.279055 -0.830382
H12   H     H_    0.373992 0.238088 0.299445 0.258534
H13   H     H_    0.346767 0.087166 0.244134 0.253043
H14   H     H_    0.240138 0.217986 0.223594 0.242066
H15   H     H_    0.107955 0.087521 0.347949 0.214267
H16   H     H_    0.151979 0.227444 0.404351 0.211227
C29   C     C_3   0.209311 0.854243 0.363791 -0.328618
C30   C     C_3   0.057275 0.825385 0.383432 -0.889524
H17   H     H_    0.996722 0.910702 0.405655 0.255068
H18   H     H_    0.023354 0.784933 0.315077 0.255082
H19   H     H_    0.037104 0.755951 0.443609 0.257626
H20   H     H_    0.232740 0.905954 0.293248 0.219055
H21   H     H_    0.264083 0.763603 0.352213 0.228768
C31   C     C_3   0.904031 0.413054 0.320612 -0.329597
C32   C     C_3   0.838789 0.282990 0.330456 -0.741295
H22   H     H_    0.853559 0.238610 0.401914 0.239226
H23   H     H_    0.729030 0.287569 0.323727 0.263216
H24   H     H_    0.885947 0.220596 0.269228 0.224197
H25   H     H_    0.845206 0.482720 0.285281 0.225519
H26   H     H_    0.994740 0.402552 0.263093 0.163604

loop_
_geom_bond_atom_site_label_1
_geom_bond_atom_site_label_2
_ccdc_geom_bond_type
C16   H4    S    
C32   H24   S    
C26   O12   S    
C28   H12   S    
O3    Zn1   S    
C30   H17   S    
C13   C14   A    
C17   H5    S    
C9    C10   S    
C29   H21   S    
C31   H26   S    
C30   H18   S    
C19   C20   S    
C9    H8    S    
C19   O7    A    
C1    O2    A    
O4    Zn2   S    
C1    C4    S    
C2    C12   S    
C7    C18   S    
C16   H3    S    
C6    H7    S    
C32   H23   S    
C13   N1    A    
N1    Zn2   S    
C27   H16   S    
C21   C22   D    
O12   H11   S    
N2    Zn1   S    
O8    Zn2   S    
C27   C28   S    
C5    C6    A    
O7    Zn1   S    
C12   O4    A    
C15   N2    A    
O10   H10   S    
C19   O8    A    
C26   O11   D    
C10   H9    S    
C21   C26   S    
C27   H15   S    
C28   H13   S    
C32   H22   S    
C12   O3    A    
C29   C30   S    
C25   O10   S    
O1    Zn1   S    
C10   C29   S    
C7    C8    A    
C18   O6    A    
O2    Zn2   S    
C15   C16   S    
C16   C17   S    
C20   C24   T    
O5    Zn1   S    
C17   C25   S    
C22   H1    S    
C2    C23   T    
C28   H14   S    
C3    C8    A    
C5    H6    S    
C21   C24   S    
C14   N2    A    
C3    C10   S    
O6    Zn2   S    
C25   O9    D    
C8    C9    S    
C18   O5    A    
C9    C27   S    
C30   H19   S    
C31   H25   S    
C22   C23   S    
C11   C15   A    
C29   H20   S    
C31   C32   S    
C11   N1    A    
C14   H2    S    
C6    C7    A    
C3    C4    A    
C1    O1    A    
C4    C5    A    
C13   C31   S    
C11   C17   S    
