data_mof_unit_44372.cif
_audit_creation_date              2012-10-26T20:39:30-0400
_audit_creation_method            fapswitch 2.2
_symmetry_space_group_name_H-M    P1
_symmetry_Int_Tables_number       1
_space_group_crystal_system       triclinic
_cell_length_a                    14.332063
_cell_length_b                    13.017516
_cell_length_c                    11.80933
_cell_angle_alpha                 100.47726
_cell_angle_beta                  93.685146
_cell_angle_gamma                 92.377289
_cell_volume                      2158.8517338

loop_
_atom_site_label
_atom_site_type_symbol
_atom_type_description
_atom_site_fract_x
_atom_site_fract_y
_atom_site_fract_z
_atom_type_partial_charge
C1    C     C_R   0.498247 0.298970 0.477535 0.559111
C2    C     C_R   0.454976 0.462977 0.843638 0.101952
C3    C     C_R   0.535941 0.534205 0.034267 -0.052421
C4    C     C_R   0.461978 0.470656 0.967088 -0.064732
C5    C     C_R   0.331188 0.499585 0.499936 0.554585
C6    C     C_R   0.668792 0.500282 0.500037 0.544868
C7    C     C_1   0.228817 0.499307 0.499859 -0.014883
C8    C     C_1   0.771122 0.499987 0.500009 -0.016065
C9    C     C_1   0.143355 0.499152 0.499847 -0.031943
C10   C     C_1   0.856546 0.499655 0.499933 -0.033508
C11   C     C_1   0.042661 0.499144 0.499842 0.000726
C12   C     C_R   0.498076 0.701021 0.522014 0.577124
C13   C     C_1   0.957208 0.499302 0.499857 -0.000847
C14   C     C_R   0.487293 0.814521 0.534085 0.004237
C15   C     C_R   0.493991 0.184518 0.461687 0.001308
C16   C     C_R   0.502805 0.012218 0.343195 0.003158
C17   C     C_R   0.445030 0.982780 0.639937 -0.013508
C18   C     C_R   0.511253 0.121583 0.355345 0.263447
C19   C     C_R   0.463794 0.876616 0.638520 0.258900
C20   C     C_R   0.469838 0.137979 0.554034 -0.168101
C21   C     C_R   0.496186 0.859355 0.435984 -0.172626
C22   C     C_3   0.509283 0.883995 0.835769 0.027492
C23   C     C_R   0.467191 0.029390 0.545371 -0.036808
C24   C     C_3   0.609350 0.924833 0.817921 -0.293618
C25   C     C_3   0.650124 0.000375 0.925202 -0.490105
C26   C     C_3   0.626113 0.156565 0.237616 0.004282
C27   C     C_3   0.680935 0.261778 0.274977 -0.243127
C28   C     C_3   0.781431 0.255677 0.239790 -0.484858
C29   C     C_1   0.503887 0.949088 0.228934 0.207929
C30   C     C_1   0.398967 0.042013 0.734535 0.197650
C31   C     C_1   0.386935 0.391071 0.771410 0.335022
C32   C     C_1   0.612718 0.608383 0.231345 0.324237
C33   C     C_1   0.657032 0.632802 0.798921 0.290250
C34   C     C_R   0.488600 0.966431 0.440709 -0.038320
C35   C     C_1   0.357802 0.347318 0.197729 0.338681
C36   C     C_3   0.243532 0.417649 0.975745 0.007845
C37   C     C_3   0.156967 0.350889 0.919038 -0.237647
C38   C     C_3   0.069881 0.414697 0.923267 -0.478665
C39   C     C_3   0.688169 0.740417 0.057243 0.010236
C40   C     C_3   0.785638 0.779899 0.113002 -0.231961
C41   C     C_3   0.791880 0.897575 0.158725 -0.484035
C42   C     C_R   0.399040 0.414766 0.025701 0.199885
C43   C     C_R   0.600089 0.588898 0.976056 0.193733
C44   C     C_R   0.415481 0.416038 0.144919 0.123487
C45   C     C_R   0.587447 0.580906 0.854785 0.130358
C46   C     C_R   0.543646 0.539541 0.157491 0.105568
Cu1   Cu    Cu3+1 0.506360 0.507730 0.615930 0.990267
Cu2   Cu    Cu3+1 0.493640 0.492270 0.384070 0.965344
H1    H     H_    0.513587 0.810845 0.356370 0.155575
H2    H     H_    0.628253 0.132165 0.142997 0.155736
H3    H     H_    0.661851 0.096114 0.278017 0.102355
H4    H     H_    0.645869 0.322021 0.234383 0.204986
H5    H     H_    0.682214 0.285273 0.370309 0.157882
H6    H     H_    0.818476 0.197181 0.281035 0.150736
H7    H     H_    0.819187 0.333246 0.268117 0.163456
H8    H     H_    0.782135 0.233419 0.144470 0.149829
H9    H     H_    0.253924 0.484868 0.930519 0.134128
H10   H     H_    0.230840 0.448266 0.067632 0.123724
H11   H     H_    0.168268 0.318730 0.827469 0.201604
H12   H     H_    0.456001 0.187346 0.634577 0.165448
H13   H     H_    0.145469 0.284310 0.964536 0.187254
H14   H     H_    0.056122 0.446239 0.014199 0.155684
H15   H     H_    0.008356 0.363939 0.881724 0.156930
H16   H     H_    0.079181 0.480536 0.876213 0.160254
H17   H     H_    0.634578 0.767278 0.118068 0.164588
H18   H     H_    0.675147 0.775166 0.979101 0.125647
H19   H     H_    0.803438 0.739284 0.185833 0.203372
H20   H     H_    0.838459 0.760798 0.048513 0.175266
H21   H     H_    0.789548 0.940742 0.086052 0.145480
H22   H     H_    0.859460 0.919937 0.210528 0.154373
H23   H     H_    0.516876 0.827786 0.895706 0.161691
H24   H     H_    0.733958 0.920335 0.214709 0.150854
H25   H     H_    0.468949 0.946868 0.882554 0.181015
H26   H     H_    0.654845 0.858191 0.799508 0.182243
H27   H     H_    0.611385 0.967527 0.744987 0.161761
H28   H     H_    0.612385 0.073950 0.935004 0.164943
H29   H     H_    0.725308 0.019387 0.916814 0.148412
H30   H     H_    0.642952 0.965281 0.003176 0.157723
N1    N     N_R   0.515930 0.519350 0.790130 -0.290465
N2    N     N_R   0.484070 0.480650 0.209870 -0.305092
N3    N     N_1   0.503516 0.899108 0.137300 -0.372978
N4    N     N_1   0.361925 0.089791 0.809524 -0.252317
N5    N     N_1   0.332224 0.333314 0.713679 -0.291996
N6    N     N_1   0.667738 0.663330 0.292017 -0.322519
N7    N     N_1   0.714138 0.674236 0.755552 -0.328171
N8    N     N_1   0.311146 0.291703 0.239083 -0.274401
O1    O     O_R   0.504510 0.354460 0.582000 -0.517787
O2    O     O_3   0.530884 0.167119 0.261463 -0.536672
O3    O     O_3   0.322310 0.355447 0.967500 -0.558921
O4    O     O_3   0.685609 0.629742 0.031628 -0.581457
O5    O     O_R   0.495490 0.645540 0.418000 -0.513062
O6    O     O_R   0.493770 0.341410 0.386200 -0.450257
O7    O     O_R   0.506230 0.658590 0.613800 -0.440497
O8    O     O_R   0.381420 0.506530 0.597920 -0.478861
O9    O     O_R   0.618580 0.493470 0.402080 -0.495863
O10   O     O_R   0.370680 0.493470 0.402120 -0.495158
O11   O     O_R   0.629320 0.506530 0.597880 -0.479117
O12   O     O_3   0.456291 0.829786 0.734838 -0.551265

loop_
_geom_bond_atom_site_label_1
_geom_bond_atom_site_label_2
_ccdc_geom_bond_type
C36   O3    S    
C1    O1    A    
C15   C18   A    
C22   O12   S    
Cu2   O9    S    
C33   C45   S    
C12   O5    A    
Cu1   N1    S    
C21   H1    S    
C5    O8    A    
C28   H8    S    
C3    C43   A    
C26   C27   S    
C17   C23   A    
C25   H29   S    
C14   C21   A    
C36   C37   S    
C36   H10   S    
C26   H2    S    
C35   N8    T    
C31   N5    T    
C33   N7    T    
C2    N1    A    
C16   C34   A    
C28   H7    S    
Cu2   O5    S    
C1    C15   S    
C20   H12   S    
C39   O4    S    
C17   C30   S    
C39   H17   S    
C42   C44   A    
C19   O12   S    
C38   H16   S    
C15   C20   A    
C32   N6    T    
C43   O4    S    
C25   H30   S    
C6    O11   A    
C44   N2    A    
C24   C25   S    
C36   H9    S    
C39   C40   S    
C5    C7    S    
C28   H6    S    
C6    C8    S    
C21   C34   A    
C16   C29   S    
C40   H19   S    
C18   O2    S    
C2    C31   S    
Cu1   O1    S    
C30   N4    T    
C2    C4    A    
C29   N3    T    
C37   C38   S    
C43   C45   A    
Cu1   Cu2   S    
C20   C23   A    
C23   C34   A    
Cu1   O7    S    
C45   N1    A    
C16   C18   A    
C35   C44   S    
C9    C11   S    
C37   H11   S    
C41   H24   S    
C26   O2    S    
C40   C41   S    
C12   C14   S    
C1    O6    A    
C40   H20   S    
C39   H18   S    
C22   C24   S    
C12   O7    A    
C3    C4    A    
C22   H23   S    
C5    O10   A    
C27   H4    S    
C41   H21   S    
C38   H15   S    
C7    C9    T    
Cu2   O10   S    
C32   C46   S    
C14   C19   A    
C10   C13   S    
C37   H13   S    
C27   H5    S    
C24   H27   S    
C3    C46   A    
Cu1   O11   S    
C42   O3    S    
Cu2   N2    S    
C26   H3    S    
C46   N2    A    
C11   C13   T    
C24   H26   S    
C4    C42   A    
C17   C19   A    
Cu1   O8    S    
C25   H28   S    
C8    C10   T    
C6    O9    A    
Cu2   O6    S    
C27   C28   S    
C22   H25   S    
C41   H22   S    
C38   H14   S    
