data_mof_unit_56310.cif
_audit_creation_date              2013-03-05T15:56:27-0500
_audit_creation_method            fapswitch 2.2
_symmetry_space_group_name_H-M    P1
_symmetry_Int_Tables_number       1
_space_group_crystal_system       triclinic
_cell_length_a                    24.304839
_cell_length_b                    24.26997
_cell_length_c                    25.746956
_cell_angle_alpha                 89.848904
_cell_angle_beta                  90.173114
_cell_angle_gamma                 90.198969
_cell_volume                      15187.3422417

loop_
_atom_site_label
_atom_site_type_symbol
_atom_site_description
_atom_site_fract_x
_atom_site_fract_y
_atom_site_fract_z
_atom_type_partial_charge
C1    C     C_R   0.638751 0.426362 0.429020 -0.017159
C2    C     C_R   0.362362 0.572365 0.575017 -0.098981
C3    C     C_R   0.427907 0.362840 0.423853 -0.090779
C4    C     C_R   0.558313 0.624024 0.594015 -0.024951
C5    C     C_R   0.362729 0.572890 0.424628 -0.010568
C6    C     C_R   0.637479 0.427639 0.575562 -0.091651
C7    C     C_R   0.572679 0.637740 0.425041 -0.030322
C8    C     C_R   0.433654 0.367682 0.585097 -0.080545
C9    C     C_R   0.624299 0.559917 0.594168 0.018951
C10   C     C_R   0.363020 0.427846 0.423336 0.004752
C11   C     C_R   0.426026 0.638232 0.572490 -0.045852
C12   C     C_R   0.573355 0.362123 0.425903 -0.059933
C13   C     C_R   0.368106 0.431992 0.585318 -0.041225
C14   C     C_R   0.637470 0.572765 0.424762 -0.029751
C15   C     C_R   0.572703 0.362723 0.575603 -0.005474
C16   C     C_R   0.428421 0.637206 0.423500 -0.066753
C17   C     C_R   0.124987 0.940734 0.906811 -0.023549
C18   C     C_R   0.870436 0.063950 0.088345 0.014515
C19   C     C_R   0.926603 0.861636 0.926862 -0.042151
C20   C     C_R   0.063906 0.128696 0.089700 -0.005881
C21   C     C_R   0.874942 0.059403 0.906762 -0.023121
C22   C     C_R   0.128985 0.935582 0.089478 0.018913
C23   C     C_R   0.074607 0.139810 0.931356 -0.023412
C24   C     C_R   0.935664 0.870300 0.088771 -0.009623
C25   C     C_R   0.129459 0.064905 0.088978 -0.001143
C26   C     C_R   0.861769 0.926035 0.926461 -0.075508
C27   C     C_R   0.934172 0.130015 0.088004 -0.075161
C28   C     C_R   0.059442 0.875490 0.906217 -0.034861
C29   C     C_R   0.870614 0.934511 0.088891 -0.004365
C30   C     C_R   0.138803 0.075236 0.928971 -0.090385
C31   C     C_R   0.064759 0.870083 0.088503 -0.074601
C32   C     C_R   0.940387 0.124756 0.906201 -0.036704
H1    H     H_    0.678657 0.445442 0.434073 0.142650
H2    H     H_    0.323119 0.551395 0.575854 0.151421
H3    H     H_    0.447279 0.322781 0.424337 0.109664
H4    H     H_    0.531608 0.657550 0.604730 0.141116
H5    H     H_    0.322525 0.553645 0.425444 0.130567
H6    H     H_    0.676725 0.448276 0.576027 0.155495
H7    H     H_    0.553623 0.677920 0.426394 0.115414
H8    H     H_    0.459031 0.332186 0.591656 0.153453
H9    H     H_    0.659355 0.535213 0.604941 0.107738
H10   H     H_    0.323355 0.447849 0.422301 0.136593
H11   H     H_    0.444370 0.678744 0.569061 0.142836
H12   H     H_    0.552887 0.322501 0.425462 0.118748
H13   H     H_    0.331919 0.456171 0.592336 0.155959
H14   H     H_    0.677424 0.553263 0.425400 0.127106
H15   H     H_    0.553531 0.322462 0.574692 0.135143
H16   H     H_    0.450363 0.675743 0.420964 0.162230
H17   H     H_    0.160075 0.966040 0.896877 0.102575
H18   H     H_    0.833382 0.041148 0.095837 0.141198
H19   H     H_    0.945569 0.821457 0.929291 0.101218
H20   H     H_    0.041337 0.165524 0.098270 0.110286
H21   H     H_    0.839742 0.034223 0.896874 0.110921
H22   H     H_    0.166384 0.957609 0.097865 0.121532
H23   H     H_    0.055601 0.179464 0.937418 0.122680
H24   H     H_    0.957478 0.832671 0.096293 0.119505
H25   H     H_    0.167769 0.044171 0.096229 0.112516
H26   H     H_    0.821554 0.944864 0.927947 0.122328
H27   H     H_    0.954868 0.168495 0.095324 0.095980
H28   H     H_    0.034306 0.840464 0.895662 0.119560
H29   H     H_    0.831887 0.954529 0.095526 0.139835
H30   H     H_    0.178559 0.055475 0.930240 0.123017
H31   H     H_    0.043809 0.831671 0.095432 0.106510
H32   H     H_    0.965669 0.159768 0.895747 0.136531
N1    N     N_R   0.592620 0.447430 0.448130 -0.071492
N2    N     N_R   0.407380 0.552570 0.551870 -0.064208
N3    N     N_R   0.447430 0.407380 0.448130 -0.058533
N4    N     N_R   0.552570 0.592620 0.551870 -0.068263
N5    N     N_R   0.407380 0.552570 0.448130 -0.067112
N6    N     N_R   0.592620 0.447430 0.551870 -0.067757
N7    N     N_R   0.552570 0.592620 0.448130 -0.064226
N8    N     N_R   0.447430 0.407380 0.551870 -0.068017
N9    N     N_R   0.592620 0.552570 0.551870 -0.062747
N10   N     N_R   0.407380 0.447430 0.448130 -0.066741
N11   N     N_R   0.447430 0.592620 0.551870 -0.072781
N12   N     N_R   0.552570 0.407380 0.448130 -0.059999
N13   N     N_R   0.407380 0.447430 0.551870 -0.067275
N14   N     N_R   0.592620 0.552570 0.448130 -0.063764
N15   N     N_R   0.552570 0.407380 0.551870 -0.068895
N16   N     N_R   0.447430 0.592620 0.448130 -0.068467
N17   N     N_R   0.092620 0.947430 0.948130 -0.062327
N18   N     N_R   0.907380 0.052570 0.051870 -0.070457
N19   N     N_R   0.947430 0.907380 0.948130 -0.061645
N20   N     N_R   0.052570 0.092620 0.051870 -0.070447
N21   N     N_R   0.907380 0.052570 0.948130 -0.063728
N22   N     N_R   0.092620 0.947430 0.051870 -0.067642
N23   N     N_R   0.052570 0.092620 0.948130 -0.064986
N24   N     N_R   0.947430 0.907380 0.051870 -0.069061
N25   N     N_R   0.092620 0.052570 0.051870 -0.063761
N26   N     N_R   0.907380 0.947430 0.948130 -0.058996
N27   N     N_R   0.947430 0.092620 0.051870 -0.058548
N28   N     N_R   0.052570 0.907380 0.948130 -0.067467
N29   N     N_R   0.907380 0.947430 0.051870 -0.067688
N30   N     N_R   0.092620 0.052570 0.948130 -0.056493
N31   N     N_R   0.052570 0.907380 0.051870 -0.061027
N32   N     N_R   0.947430 0.092620 0.948130 -0.069418
C33   C     C_R   0.327145 0.317220 0.751604 -0.305447
C34   C     C_R   0.743874 0.745133 0.360146 -0.305523
C35   C     C_R   0.260077 0.750733 0.637101 -0.289362
C36   C     C_R   0.747936 0.255679 0.365134 -0.309369
C37   C     C_R   0.658089 0.665552 0.768154 -0.296311
C38   C     C_R   0.267360 0.247853 0.356618 -0.308111
C39   C     C_R   0.732300 0.243422 0.637085 -0.293331
C40   C     C_R   0.245549 0.733503 0.361371 -0.295366
C41   C     C_R   0.845714 0.821152 0.262014 -0.304383
C42   C     C_R   0.250893 0.247298 0.872465 -0.297905
C43   C     C_R   0.825871 0.163428 0.259246 -0.320557
C44   C     C_R   0.173245 0.835346 0.739805 -0.312844
C45   C     C_R   0.164436 0.168099 0.263182 -0.304005
C46   C     C_R   0.760136 0.746951 0.864191 -0.302110
C47   C     C_R   0.168783 0.833008 0.261801 -0.308476
C48   C     C_R   0.821805 0.159934 0.739155 -0.307466
C49   C     C_1   0.309017 0.295315 0.800239 0.149264
C50   C     C_1   0.785718 0.776355 0.334534 0.150733
C51   C     C_1   0.222790 0.785351 0.664123 0.112208
C52   C     C_1   0.778985 0.219026 0.333644 0.147826
C53   C     C_1   0.689556 0.688677 0.809951 0.142775
C54   C     C_1   0.226631 0.213290 0.333573 0.151520
C55   C     C_1   0.769521 0.207842 0.663410 0.113723
C56   C     C_1   0.212197 0.773070 0.335210 0.157952
C57   C     C_1   0.816537 0.798978 0.305292 0.117392
C58   C     C_1   0.286870 0.274318 0.836736 0.147872
C59   C     C_1   0.802138 0.191674 0.302089 0.151289
C60   C     C_1   0.196804 0.810717 0.695061 0.141330
C61   C     C_1   0.195533 0.189337 0.305624 0.117785
C62   C     C_1   0.720253 0.712851 0.838510 0.144678
C63   C     C_1   0.189449 0.803126 0.305363 0.115391
C64   C     C_1   0.796406 0.183071 0.694357 0.134302
C65   C     C_R   0.355684 0.350576 0.650766 -0.239896
C66   C     C_R   0.666322 0.668255 0.394167 -0.346732
C67   C     C_R   0.332819 0.668321 0.605684 -0.297095
C68   C     C_R   0.671050 0.332039 0.400496 -0.279214
C69   C     C_R   0.620917 0.624674 0.672748 -0.332215
C70   C     C_R   0.335772 0.333333 0.389537 -0.350396
C71   C     C_R   0.665494 0.332476 0.609642 -0.304484
C72   C     C_R   0.333288 0.665898 0.390528 -0.308098
C73   C     C_R   0.870021 0.865443 0.164284 -0.316999
C74   C     C_R   0.170477 0.174236 0.908360 -0.307032
C75   C     C_R   0.867090 0.129226 0.163882 -0.311298
C76   C     C_R   0.127227 0.875008 0.831274 -0.343637
C77   C     C_R   0.129826 0.130436 0.166054 -0.333153
C78   C     C_R   0.833281 0.829437 0.896500 -0.352876
C79   C     C_R   0.130366 0.868652 0.165174 -0.326699
C80   C     C_R   0.871370 0.125292 0.831335 -0.338149
Ni1   Ni    Ni4+2 0.591800 0.500000 0.500000 0.270997
Ni2   Ni    Ni4+2 0.408200 0.500000 0.500000 0.272370
Ni3   Ni    Ni4+2 0.500000 0.408200 0.500000 0.257843
Ni4   Ni    Ni4+2 0.500000 0.591800 0.500000 0.263133
Ni5   Ni    Ni4+2 0.091800 0.000000 0.000000 0.289994
Ni6   Ni    Ni4+2 0.908200 0.000000 0.000000 0.288667
Ni7   Ni    Ni4+2 0.000000 0.908200 0.000000 0.264320
Ni8   Ni    Ni4+2 1.000000 0.091800 0.000000 0.263392
C81   C     C_R   0.628370 0.372495 0.414425 0.213737
C82   C     C_R   0.372718 0.626731 0.588237 0.237466
C83   C     C_R   0.374864 0.374556 0.408026 0.228251
C84   C     C_R   0.602804 0.604082 0.621853 0.227198
C85   C     C_R   0.374605 0.626400 0.408992 0.227581
C86   C     C_R   0.626300 0.374185 0.591011 0.261130
C87   C     C_R   0.626104 0.626518 0.410105 0.237366
C88   C     C_R   0.383065 0.381046 0.607327 0.204085
C89   C     C_R   0.104377 0.896275 0.879388 0.252664
C90   C     C_R   0.887978 0.110696 0.113736 0.240927
C91   C     C_R   0.872863 0.872089 0.912535 0.257320
C92   C     C_R   0.110429 0.110548 0.115407 0.243809
C93   C     C_R   0.895235 0.104082 0.879337 0.241848
C94   C     C_R   0.110487 0.888875 0.114938 0.237808
C95   C     C_R   0.129051 0.130731 0.918930 0.222429
C96   C     C_R   0.889351 0.887984 0.114591 0.232519
C97   C     C_R   0.291112 0.350816 0.723010 0.398152
C98   C     C_R   0.757041 0.710315 0.401951 0.407998
C99   C     C_R   0.315796 0.754153 0.651296 0.370138
C100  C     C_R   0.699167 0.237273 0.388364 0.506784
C101  C     C_R   0.656342 0.608260 0.760026 0.405671
C102  C     C_R   0.258404 0.271693 0.405231 0.413922
C103  C     C_R   0.678971 0.247178 0.657500 0.360833
C104  C     C_R   0.280717 0.750571 0.401286 0.419583
C105  C     C_R   0.251863 0.681840 0.337659 0.390847
C106  C     C_R   0.752276 0.282843 0.602128 0.406552
C107  C     C_R   0.311669 0.264633 0.325116 0.395350
C108  C     C_R   0.638079 0.702055 0.730223 0.387680
C109  C     C_R   0.760058 0.312093 0.362317 0.391857
C110  C     C_R   0.240311 0.707115 0.606681 0.408074
C111  C     C_R   0.691540 0.743421 0.336685 0.397400
C112  C     C_R   0.373647 0.294920 0.727803 0.376385
C113  C     C_R   0.851933 0.878228 0.256643 0.417587
C114  C     C_R   0.266908 0.198991 0.898304 0.472679
C115  C     C_R   0.882205 0.169177 0.248803 0.514332
C116  C     C_R   0.120899 0.859081 0.738093 0.397095
C117  C     C_R   0.161814 0.111253 0.254120 0.408330
C118  C     C_R   0.744060 0.783882 0.903289 0.413405
C119  C     C_R   0.111915 0.838463 0.253864 0.405622
C120  C     C_R   0.877302 0.144596 0.738673 0.387981
C121  C     C_R   0.791123 0.158963 0.785213 0.392824
C122  C     C_R   0.206532 0.847208 0.222605 0.417218
C123  C     C_R   0.813193 0.749662 0.842827 0.393727
C124  C     C_R   0.147174 0.206148 0.225261 0.418062
C125  C     C_R   0.202918 0.831410 0.786470 0.398210
C126  C     C_R   0.790394 0.138974 0.222818 0.394234
C127  C     C_R   0.195348 0.262476 0.870143 0.345382
C128  C     C_R   0.855487 0.785706 0.219960 0.418062
C129  C     C_R   0.306584 0.370130 0.673665 0.178501
C130  C     C_R   0.716386 0.674785 0.421945 0.198099
C131  C     C_R   0.351238 0.710914 0.638966 0.218242
C132  C     C_R   0.666210 0.275595 0.414851 0.162834
C133  C     C_R   0.633196 0.587550 0.713700 0.186319
C134  C     C_R   0.294307 0.312952 0.422956 0.178077
C135  C     C_R   0.647066 0.293792 0.646899 0.216912
C136  C     C_R   0.324202 0.716333 0.416932 0.252372
C137  C     C_R   0.297388 0.649182 0.350250 0.207062
C138  C     C_R   0.718045 0.326269 0.586476 0.254056
C139  C     C_R   0.344404 0.309381 0.340428 0.216489
C140  C     C_R   0.623990 0.682105 0.681033 0.228162
C141  C     C_R   0.718491 0.349846 0.373154 0.263358
C142  C     C_R   0.277458 0.667833 0.587764 0.256274
C143  C     C_R   0.654014 0.702429 0.351332 0.213755
C144  C     C_R   0.383096 0.305722 0.674937 0.171377
C145  C     C_R   0.865574 0.900412 0.207996 0.247594
C146  C     C_R   0.226155 0.167392 0.923933 0.135083
C147  C     C_R   0.904036 0.142797 0.204796 0.146831
C148  C     C_R   0.096862 0.878274 0.784289 0.187870
C149  C     C_R   0.140897 0.092222 0.206524 0.236664
C150  C     C_R   0.782369 0.822581 0.922523 0.202517
C151  C     C_R   0.092622 0.859143 0.206215 0.252522
C152  C     C_R   0.902835 0.127794 0.785183 0.201558
C153  C     C_R   0.815371 0.140294 0.831221 0.178913
C154  C     C_R   0.187318 0.862057 0.173279 0.232886
C155  C     C_R   0.848141 0.793451 0.855983 0.199281
C156  C     C_R   0.133428 0.187596 0.175454 0.225522
C157  C     C_R   0.180709 0.852701 0.832204 0.169365
C158  C     C_R   0.809807 0.128579 0.172881 0.258568
C159  C     C_R   0.155205 0.223039 0.881689 0.233911
C160  C     C_R   0.865161 0.807782 0.170496 0.243691
O1    O     O_3   0.239462 0.363213 0.742270 -0.588277
C161  C     C_3   0.201109 0.324444 0.722407 0.327829
H33   H     H_    0.202245 0.286182 0.746217 0.119132
H34   H     H_    0.209080 0.313145 0.681109 0.098823
C162  C     C_3   0.143450 0.348505 0.724545 -0.701669
H35   H     H_    0.141607 0.386973 0.701161 0.258679
H36   H     H_    0.113409 0.318413 0.708503 0.206868
H37   H     H_    0.131879 0.357813 0.765152 0.275386
O2    O     O_3   0.808327 0.713755 0.425255 -0.566356
C163  C     C_3   0.844905 0.678504 0.398684 0.322409
H38   H     H_    0.844008 0.685471 0.356024 0.058817
H39   H     H_    0.834489 0.634555 0.406143 0.139108
C164  C     C_3   0.903280 0.689265 0.417550 -0.824451
H40   H     H_    0.906243 0.681239 0.459949 0.280782
H41   H     H_    0.932299 0.661729 0.396929 0.197138
H42   H     H_    0.914944 0.732762 0.409593 0.254139
O3    O     O_3   0.333763 0.795019 0.684798 -0.577670
C165  C     C_3   0.343129 0.843699 0.655951 0.355993
H43   H     H_    0.304568 0.858696 0.637319 0.071451
H44   H     H_    0.374730 0.836912 0.625375 0.130002
C166  C     C_3   0.363966 0.888353 0.692420 -0.783658
H45   H     H_    0.403014 0.875084 0.711084 0.270633
H46   H     H_    0.371528 0.926959 0.670288 0.197854
H47   H     H_    0.332881 0.896444 0.722991 0.264406
O4    O     O_3   0.683899 0.182407 0.382941 -0.600763
C167  C     C_3   0.633203 0.177787 0.355397 0.269834
H48   H     H_    0.598196 0.195008 0.377588 0.136834
H49   H     H_    0.624252 0.133221 0.350599 0.137708
C168  C     C_3   0.634384 0.204343 0.301252 -0.970504
H50   H     H_    0.672713 0.193512 0.280785 0.314603
H51   H     H_    0.598584 0.189774 0.278121 0.257489
H52   H     H_    0.631919 0.249898 0.304345 0.251567
O5    O     O_3   0.673625 0.572612 0.798730 -0.566133
C169  C     C_3   0.730420 0.562607 0.792110 0.303812
H53   H     H_    0.754403 0.601487 0.793683 0.071283
H54   H     H_    0.738800 0.542312 0.754252 0.124466
C170  C     C_3   0.750688 0.525157 0.835480 -0.792068
H55   H     H_    0.728223 0.485245 0.834308 0.276564
H56   H     H_    0.795376 0.517335 0.830685 0.195952
H57   H     H_    0.743850 0.545048 0.873716 0.254312
O6    O     O_3   0.215272 0.253657 0.435916 -0.573981
C171  C     C_3   0.169847 0.288841 0.427802 0.292569
H58   H     H_    0.158228 0.290859 0.385935 0.063247
H59   H     H_    0.179041 0.331190 0.441947 0.141452
C172  C     C_3   0.120690 0.266703 0.457791 -0.794799
H60   H     H_    0.130490 0.264982 0.499927 0.273127
H61   H     H_    0.084717 0.294095 0.451736 0.198638
H62   H     H_    0.110025 0.224674 0.443970 0.253557
O7    O     O_3   0.661211 0.209649 0.694406 -0.590503
C173  C     C_3   0.642843 0.161507 0.668945 0.355401
H63   H     H_    0.677420 0.140525 0.648883 0.082203
H64   H     H_    0.609936 0.171159 0.640089 0.130227
C174  C     C_3   0.619185 0.121967 0.709046 -0.767217
H65   H     H_    0.584270 0.141638 0.729567 0.263244
H66   H     H_    0.604218 0.083978 0.689566 0.200888
H67   H     H_    0.651370 0.110652 0.737834 0.275960
O8    O     O_3   0.270815 0.800007 0.426295 -0.575488
C175  C     C_3   0.306059 0.841239 0.406181 0.307211
H68   H     H_    0.313869 0.836477 0.363818 0.060898
H69   H     H_    0.346036 0.840520 0.427085 0.167943
C176  C     C_3   0.279933 0.897327 0.414616 -0.883637
H70   H     H_    0.273145 0.904334 0.456719 0.274474
H71   H     H_    0.307495 0.930137 0.399388 0.211711
H72   H     H_    0.239828 0.899473 0.393920 0.260068
O9    O     O_3   0.217935 0.666578 0.296841 -0.567815
C177  C     C_3   0.168286 0.645527 0.317470 0.323007
H73   H     H_    0.147888 0.675862 0.343336 0.059115
H74   H     H_    0.175909 0.607140 0.340106 0.134441
C178  C     C_3   0.129134 0.632030 0.273071 -0.827740
H75   H     H_    0.147264 0.599700 0.247997 0.287068
H76   H     H_    0.089403 0.616778 0.288834 0.197667
H77   H     H_    0.121396 0.669480 0.249306 0.234768
O10   O     O_3   0.803973 0.276825 0.580458 -0.581052
C179  C     C_3   0.842906 0.305474 0.611141 0.280653
H78   H     H_    0.842409 0.291148 0.652250 0.077672
H79   H     H_    0.835068 0.350547 0.610320 0.142532
C180  C     C_3   0.900132 0.295274 0.589570 -0.778272
H80   H     H_    0.902449 0.309906 0.548715 0.252295
H81   H     H_    0.931170 0.317838 0.613133 0.210418
H82   H     H_    0.909581 0.250541 0.590935 0.258370
O11   O     O_3   0.317796 0.242916 0.275764 -0.555623
C181  C     C_3   0.343398 0.190799 0.279532 0.304274
H83   H     H_    0.325946 0.164673 0.311110 0.041049
H84   H     H_    0.388197 0.195977 0.286942 0.136887
C182  C     C_3   0.335615 0.160220 0.228536 -0.796170
H85   H     H_    0.354616 0.183962 0.196272 0.289352
H86   H     H_    0.355363 0.119099 0.230995 0.196102
H87   H     H_    0.291038 0.154582 0.220365 0.230969
O12   O     O_3   0.638666 0.758281 0.738894 -0.583021
C183  C     C_3   0.588489 0.772688 0.762881 0.307052
H88   H     H_    0.587120 0.756612 0.803355 0.073136
H89   H     H_    0.552195 0.756074 0.741307 0.151462
C184  C     C_3   0.583344 0.835139 0.764069 -0.788939
H90   H     H_    0.581321 0.851567 0.723812 0.284405
H91   H     H_    0.545240 0.846871 0.784938 0.206140
H92   H     H_    0.619297 0.853763 0.784179 0.232617
O13   O     O_3   0.808874 0.330824 0.341075 -0.595802
C185  C     C_3   0.851299 0.324303 0.378307 0.308126
H93   H     H_    0.866339 0.281077 0.378026 0.109660
H94   H     H_    0.837660 0.334991 0.418440 0.133808
C186  C     C_3   0.899017 0.362420 0.364803 -0.813491
H95   H     H_    0.885362 0.406004 0.366216 0.285314
H96   H     H_    0.933017 0.356546 0.393168 0.198618
H97   H     H_    0.914560 0.353379 0.325310 0.246413
O14   O     O_3   0.185580 0.705327 0.591683 -0.572699
C187  C     C_3   0.154977 0.676960 0.630070 0.287960
H98   H     H_    0.151791 0.701833 0.666101 0.074977
H99   H     H_    0.173666 0.636418 0.640103 0.117425
C188  C     C_3   0.097046 0.666651 0.609769 -0.723419
H100  H     H_    0.098590 0.641143 0.574054 0.266857
H101  H     H_    0.072489 0.644563 0.639633 0.198374
H102  H     H_    0.076748 0.706469 0.600646 0.252724
O15   O     O_3   0.680210 0.776221 0.293925 -0.562702
C189  C     C_3   0.663738 0.828749 0.311490 0.307930
H103  H     H_    0.693289 0.846368 0.340132 0.050250
H104  H     H_    0.622559 0.826368 0.330110 0.137738
C190  C     C_3   0.660258 0.867835 0.265323 -0.809756
H105  H     H_    0.628748 0.852914 0.237329 0.287762
H106  H     H_    0.648713 0.909661 0.278763 0.192911
H107  H     H_    0.700711 0.870222 0.245461 0.236884
O16   O     O_3   0.405431 0.256804 0.754083 -0.595939
C191  C     C_3   0.449837 0.285147 0.777543 0.314087
H108  H     H_    0.434677 0.313661 0.808133 0.086536
H109  H     H_    0.473849 0.309121 0.748290 0.156810
C192  C     C_3   0.488534 0.243775 0.802805 -0.732490
H110  H     H_    0.502761 0.213452 0.773579 0.279798
H111  H     H_    0.524910 0.265587 0.819096 0.215294
H112  H     H_    0.467186 0.221650 0.834747 0.231687
O17   O     O_3   0.849442 0.912080 0.299758 -0.563858
C193  C     C_3   0.795728 0.933375 0.304390 0.272576
H113  H     H_    0.767281 0.900657 0.317932 0.083300
H114  H     H_    0.779960 0.950566 0.267087 0.110045
C194  C     C_3   0.795954 0.979161 0.344579 -0.811410
H115  H     H_    0.823248 0.013314 0.331641 0.263518
H116  H     H_    0.753595 0.995234 0.349633 0.186858
H117  H     H_    0.810940 0.963115 0.382481 0.269219
O18   O     O_3   0.322125 0.184850 0.899878 -0.582455
C195  C     C_3   0.331023 0.135790 0.871170 0.326185
H118  H     H_    0.296157 0.105849 0.872742 0.084942
H119  H     H_    0.367103 0.114460 0.888397 0.164930
C196  C     C_3   0.344203 0.148624 0.814646 -0.916365
H120  H     H_    0.379950 0.176882 0.812743 0.305761
H121  H     H_    0.354611 0.109977 0.793951 0.238106
H122  H     H_    0.308224 0.167746 0.795129 0.247917
O19   O     O_3   0.914460 0.201126 0.281639 -0.594888
C197  C     C_3   0.934875 0.248269 0.254809 0.266059
H123  H     H_    0.962219 0.237143 0.222020 0.127833
H124  H     H_    0.960618 0.272085 0.282544 0.124054
C198  C     C_3   0.889332 0.286270 0.234541 -0.964035
H125  H     H_    0.857967 0.292791 0.264831 0.313469
H126  H     H_    0.907248 0.326680 0.223219 0.253551
H127  H     H_    0.869142 0.267994 0.199848 0.249424
O20   O     O_3   0.092385 0.861473 0.691575 -0.570926
C199  C     C_3   0.105048 0.911920 0.666852 0.291735
H128  H     H_    0.149847 0.914893 0.658136 0.075829
H129  H     H_    0.092764 0.947555 0.691397 0.120733
C200  C     C_3   0.073554 0.915384 0.615841 -0.763938
H130  H     H_    0.028602 0.913292 0.623282 0.270749
H131  H     H_    0.083193 0.954911 0.595982 0.200878
H132  H     H_    0.085444 0.880737 0.590149 0.254290
O21   O     O_3   0.174101 0.074289 0.293483 -0.562034
C201  C     C_3   0.230740 0.061418 0.291670 0.341827
H133  H     H_    0.255667 0.096167 0.306949 0.065922
H134  H     H_    0.244838 0.051770 0.251538 0.098482
C202  C     C_3   0.241475 0.011340 0.325767 -0.849686
H135  H     H_    0.215841 0.976094 0.312511 0.268764
H136  H     H_    0.285557 0.999742 0.323477 0.185432
H137  H     H_    0.231151 0.020781 0.366773 0.264962
O22   O     O_3   0.692302 0.779528 0.925177 -0.560464
C203  C     C_3   0.655333 0.811864 0.895660 0.281561
H138  H     H_    0.655086 0.799312 0.854281 0.074352
H139  H     H_    0.666361 0.856344 0.897528 0.131941
C204  C     C_3   0.597483 0.804446 0.916890 -0.749772
H140  H     H_    0.596034 0.817780 0.958091 0.282753
H141  H     H_    0.568147 0.829670 0.893857 0.197316
H142  H     H_    0.585013 0.760464 0.914321 0.247897
O23   O     O_3   0.075418 0.829266 0.294199 -0.562186
C205  C     C_3   0.060468 0.772943 0.295223 0.341739
H143  H     H_    0.094409 0.747985 0.311617 0.070792
H144  H     H_    0.049939 0.756809 0.255903 0.091309
C206  C     C_3   0.010534 0.765484 0.330006 -0.840593
H145  H     H_    0.975595 0.790252 0.314923 0.274360
H146  H     H_    0.998340 0.721355 0.330970 0.181321
H147  H     H_    0.020429 0.779046 0.370134 0.265383
O24   O     O_3   0.907284 0.148641 0.693239 -0.581978
C207  C     C_3   0.902988 0.098179 0.666378 0.303918
H148  H     H_    0.859328 0.088681 0.656400 0.084281
H149  H     H_    0.920329 0.063751 0.689940 0.130258
C208  C     C_3   0.935408 0.102265 0.616093 -0.796557
H150  H     H_    0.979363 0.111075 0.624733 0.269115
H151  H     H_    0.932452 0.062754 0.594595 0.210404
H152  H     H_    0.918554 0.135819 0.591376 0.248720
O25   O     O_3   0.736775 0.176123 0.785361 -0.574869
C209  C     C_3   0.734614 0.232046 0.800678 0.337906
H153  H     H_    0.743845 0.259079 0.766856 0.085726
H154  H     H_    0.764089 0.242057 0.832641 0.085309
C210  C     C_3   0.677069 0.245120 0.820206 -0.701916
H155  H     H_    0.667639 0.219594 0.854935 0.264776
H156  H     H_    0.674637 0.289306 0.831011 0.197261
H157  H     H_    0.645881 0.236555 0.789721 0.283673
O26   O     O_3   0.262409 0.839650 0.230200 -0.569189
C211  C     C_3   0.283581 0.886026 0.256712 0.290794
H158  H     H_    0.267348 0.887671 0.296965 0.072095
H159  H     H_    0.272932 0.925192 0.236339 0.136003
C212  C     C_3   0.345935 0.881943 0.259390 -0.779022
H160  H     H_    0.363419 0.883222 0.219603 0.286680
H161  H     H_    0.362799 0.917018 0.282101 0.188097
H162  H     H_    0.358192 0.842747 0.278445 0.249885
O27   O     O_3   0.828563 0.713470 0.804119 -0.573633
C213  C     C_3   0.850521 0.665806 0.827955 0.310330
H163  H     H_    0.817885 0.642647 0.849029 0.070937
H164  H     H_    0.883905 0.676237 0.856105 0.118709
C214  C     C_3   0.874924 0.628745 0.786454 -0.803815
H165  H     H_    0.910010 0.649956 0.767304 0.282995
H166  H     H_    0.889863 0.589942 0.804473 0.198590
H167  H     H_    0.843444 0.618598 0.756623 0.239309
O28   O     O_3   0.151461 0.262210 0.234385 -0.562519
C215  C     C_3   0.105739 0.278801 0.264247 0.321881
H168  H     H_    0.104304 0.256841 0.302257 0.072501
H169  H     H_    0.066560 0.270989 0.242885 0.107183
C216  C     C_3   0.110146 0.340201 0.275075 -0.816827
H170  H     H_    0.110468 0.363594 0.237944 0.285189
H171  H     H_    0.074432 0.353669 0.298603 0.191553
H172  H     H_    0.148641 0.349125 0.296903 0.248553
O29   O     O_3   0.254463 0.807147 0.787146 -0.559976
C217  C     C_3   0.248378 0.751001 0.800768 0.293879
H173  H     H_    0.223761 0.728565 0.770956 0.054944
H174  H     H_    0.228115 0.746267 0.839288 0.119280
C218  C     C_3   0.304859 0.724426 0.804154 -0.696941
H175  H     H_    0.330595 0.746214 0.833365 0.268417
H176  H     H_    0.300508 0.680583 0.815924 0.191743
H177  H     H_    0.325580 0.726235 0.765855 0.271501
O30   O     O_3   0.735170 0.131089 0.233385 -0.589376
C219  C     C_3   0.729422 0.083998 0.265482 0.280488
H178  H     H_    0.734402 0.096001 0.306876 0.117015
H179  H     H_    0.759773 0.051059 0.256184 0.120651
C220  C     C_3   0.672366 0.059184 0.258074 -0.798463
H180  H     H_    0.667761 0.043422 0.217859 0.290065
H181  H     H_    0.666457 0.024417 0.285651 0.183834
H182  H     H_    0.640236 0.090560 0.265145 0.253271
O31   O     O_3   0.179897 0.311777 0.847366 -0.596320
C221  C     C_3   0.188400 0.354331 0.883905 0.343385
H183  H     H_    0.232910 0.359022 0.893382 0.094996
H184  H     H_    0.165034 0.346053 0.920333 0.119096
C222  C     C_3   0.168219 0.408612 0.861354 -0.812684
H185  H     H_    0.123658 0.405677 0.852060 0.261237
H186  H     H_    0.174602 0.442124 0.890049 0.213097
H187  H     H_    0.191429 0.418835 0.825505 0.283000
O32   O     O_3   0.848927 0.729306 0.225540 -0.567816
C223  C     C_3   0.896600 0.707856 0.249665 0.298492
H188  H     H_    0.900631 0.723245 0.290114 0.068099
H189  H     H_    0.934480 0.719189 0.227698 0.132912
C224  C     C_3   0.892524 0.645361 0.251543 -0.791373
H190  H     H_    0.890598 0.628583 0.211488 0.285689
H191  H     H_    0.929190 0.628233 0.271644 0.190271
H192  H     H_    0.854972 0.632583 0.272952 0.248064
N33   N     N_R   0.268627 0.403763 0.645110 0.237989
O33   O     O_R   0.251358 0.387841 0.599663 -0.324639
O34   O     O_R   0.245515 0.445921 0.667150 -0.366320
N34   N     N_R   0.724670 0.647688 0.471230 0.260663
O35   O     O_R   0.772269 0.627244 0.483842 -0.360071
O36   O     O_R   0.685730 0.647833 0.505799 -0.361727
N35   N     N_R   0.404813 0.708891 0.662879 0.247629
O37   O     O_R   0.436236 0.752386 0.663884 -0.367627
O38   O     O_R   0.420726 0.664525 0.687034 -0.398885
N36   N     N_R   0.633927 0.258013 0.459045 0.243707
O39   O     O_R   0.625736 0.205898 0.468300 -0.379003
O40   O     O_R   0.626371 0.291938 0.497257 -0.431984
N37   N     N_R   0.619720 0.529852 0.709225 0.261168
O41   O     O_R   0.652748 0.492140 0.726946 -0.360665
O42   O     O_R   0.571774 0.514948 0.691407 -0.364917
N38   N     N_R   0.289263 0.332572 0.475227 0.257783
O43   O     O_R   0.271786 0.382270 0.483850 -0.394899
O44   O     O_R   0.292071 0.297866 0.513725 -0.296319
N39   N     N_R   0.597346 0.303142 0.675931 0.246913
O45   O     O_R   0.565328 0.262279 0.688614 -0.367775
O46   O     O_R   0.586519 0.351967 0.693940 -0.367834
N40   N     N_R   0.357745 0.732906 0.460092 0.243577
O47   O     O_R   0.404925 0.756486 0.451254 -0.452333
O48   O     O_R   0.334690 0.740485 0.504982 -0.377306
N41   N     N_R   0.308597 0.600371 0.320397 0.266242
O49   O     O_R   0.269169 0.566544 0.307778 -0.355176
O50   O     O_R   0.358109 0.590881 0.303597 -0.323777
N42   N     N_R   0.736858 0.362646 0.546367 0.248345
O51   O     O_R   0.765006 0.406311 0.558950 -0.432619
O52   O     O_R   0.740384 0.344203 0.499169 -0.384951
N43   N     N_R   0.385281 0.331406 0.305566 0.271117
O53   O     O_R   0.416028 0.298777 0.278216 -0.357368
O54   O     O_R   0.390298 0.384407 0.299266 -0.323991
N44   N     N_R   0.616367 0.720387 0.638890 0.260038
O55   O     O_R   0.583489 0.762226 0.643679 -0.352419
O56   O     O_R   0.645056 0.715367 0.596598 -0.320847
N45   N     N_R   0.723938 0.405255 0.354039 0.252754
O57   O     O_R   0.768447 0.433582 0.363228 -0.353996
O58   O     O_R   0.686675 0.425509 0.323093 -0.361631
N46   N     N_R   0.259304 0.629835 0.548575 0.255980
O59   O     O_R   0.215787 0.599467 0.555756 -0.380837
O60   O     O_R   0.283630 0.628846 0.503709 -0.416052
N47   N     N_R   0.604935 0.693678 0.320930 0.267176
O61   O     O_R   0.574441 0.735024 0.306733 -0.358157
O62   O     O_R   0.592369 0.644515 0.304574 -0.328795
N48   N     N_R   0.412571 0.266005 0.644428 0.252414
O63   O     O_R   0.454036 0.239054 0.663748 -0.320188
O64   O     O_R   0.393025 0.251143 0.599440 -0.351255
N49   N     N_R   0.876749 0.958240 0.203985 0.252783
O65   O     O_R   0.837564 0.991515 0.190034 -0.479469
O66   O     O_R   0.920436 0.978389 0.226292 -0.238091
N50   N     N_R   0.240240 0.132940 0.967831 0.252637
O67   O     O_R   0.289744 0.113753 0.973909 -0.359237
O68   O     O_R   0.206627 0.129762 0.006989 -0.374659
N51   N     N_R   0.960956 0.125019 0.204363 0.251335
O69   O     O_R   0.996131 0.144204 0.238009 -0.391023
O70   O     O_R   0.974221 0.080089 0.180039 -0.305293
N52   N     N_R   0.042742 0.902305 0.782798 0.259997
O71   O     O_R   0.032290 0.947230 0.808361 -0.355878
O72   O     O_R   0.005217 0.882516 0.751836 -0.269338
N53   N     N_R   0.128084 0.034715 0.200464 0.256984
O73   O     O_R   0.163811 0.997020 0.212601 -0.441410
O74   O     O_R   0.078983 0.019809 0.185942 -0.284653
N54   N     N_R   0.770722 0.852644 0.969404 0.264319
O75   O     O_R   0.721854 0.871980 0.978410 -0.354809
O76   O     O_R   0.807978 0.856707 0.005558 -0.364778
N55   N     N_R   0.035120 0.871832 0.200274 0.260356
O77   O     O_R   0.997572 0.835866 0.212629 -0.452593
O78   O     O_R   0.019964 0.920366 0.184360 -0.292580
N56   N     N_R   0.959756 0.111620 0.784746 0.256045
O79   O     O_R   0.975084 0.065821 0.806740 -0.353394
O80   O     O_R   0.995529 0.139747 0.758010 -0.296856
N57   N     N_R   0.783293 0.138866 0.878114 0.250315
O81   O     O_R   0.801589 0.162268 0.920211 -0.373086
O82   O     O_R   0.733830 0.118180 0.877720 -0.338708
N58   N     N_R   0.225537 0.867501 0.130949 0.261863
O83   O     O_R   0.271196 0.894953 0.136743 -0.349789
O84   O     O_R   0.216091 0.842538 0.087129 -0.341071
N59   N     N_R   0.897045 0.803396 0.825951 0.265918
O85   O     O_R   0.930550 0.763454 0.814933 -0.370951
O86   O     O_R   0.906474 0.852189 0.806848 -0.316335
N60   N     N_R   0.125882 0.226894 0.134106 0.257802
O87   O     O_R   0.096634 0.271001 0.141284 -0.374107
O88   O     O_R   0.151077 0.220380 0.090027 -0.344163
N61   N     N_R   0.212087 0.849871 0.879655 0.251724
O89   O     O_R   0.190151 0.829831 0.921737 -0.373630
O90   O     O_R   0.264098 0.862771 0.879798 -0.326551
N62   N     N_R   0.771216 0.118433 0.131492 0.258638
O91   O     O_R   0.775181 0.145586 0.088003 -0.353529
O92   O     O_R   0.730547 0.084106 0.137824 -0.332962
N63   N     N_R   0.100234 0.231523 0.862844 0.247236
O93   O     O_R   0.074551 0.277215 0.872838 -0.372738
O94   O     O_R   0.078829 0.197019 0.829827 -0.349988
N64   N     N_R   0.868329 0.771506 0.126508 0.258469
O95   O     O_R   0.896952 0.726375 0.128969 -0.371333
O96   O     O_R   0.840234 0.782061 0.084613 -0.316861

loop_
_geom_bond_atom_site_label_1
_geom_bond_atom_site_label_2
_geom_bond_distance
_ccdc_geom_bond_type
C183  H89   1.115809 S    
N59   O85   1.300642 A    
C124  C156  1.399385 A    
C47   C119  1.403243 A    
C192  H110  1.110690 S    
C5    H5    1.081819 S    
C175  C176  1.520456 S    
O25   C209  1.415557 S    
C137  N41   1.441062 S    
N35   O37   1.301034 A    
C103  C135  1.399608 A    
C4    H4    1.079533 S    
O14   C187  1.414686 S    
C142  N46   1.436170 S    
C78   C155  1.410943 A    
C220  H180  1.109979 S    
C173  H63   1.113260 S    
C124  O28   1.384891 S    
C33   C112  1.398588 A    
C202  H136  1.110473 S    
C27   C90   1.385103 A    
C122  O26   1.384269 S    
C178  H77   1.110612 S    
C183  C184  1.521665 S    
C7    C87   1.383533 A    
C25   C92   1.383296 A    
N60   O88   1.301473 A    
C69   C84   1.469397 S    
N23   N30   1.378004 A    
C26   C91   1.385985 A    
C45   C124  1.406229 A    
C171  H58   1.114490 S    
O29   C217  1.413535 S    
C148  N52   1.441092 S    
C34   C111  1.407012 A    
C127  C159  1.396484 A    
C35   C110  1.401238 A    
C11   C82   1.386034 A    
C160  N64   1.438754 S    
C76   C148  1.417344 A    
C110  O14   1.384592 S    
C108  O12   1.383350 S    
N47   O61   1.300556 A    
C9    C84   1.392892 A    
N46   O59   1.300441 A    
N57   O82   1.301211 A    
C132  N36   1.446697 S    
N64   O95   1.300903 A    
C53   C62   1.198929 T    
C13   C88   1.407237 A    
C147  N51   1.450679 S    
C66   C130  1.418178 A    
C172  H61   1.110559 S    
C55   C64   1.191757 T    
C2    H2    1.079790 S    
C165  C166  1.520316 S    
C188  H101  1.110509 S    
C76   C157  1.409955 A    
C206  H146  1.110495 S    
C164  H40   1.110558 S    
N29   Ni6   1.844667 S    
C161  H34   1.116462 S    
C44   C60   1.422085 S    
O16   C191  1.412791 S    
C111  C143  1.399148 A    
C163  C164  1.520205 S    
C185  H93   1.112195 S    
C42   C114  1.402189 A    
C111  O15   1.384454 S    
C196  H122  1.109722 S    
C78   C91   1.469843 S    
C181  H83   1.113784 S    
C212  H160  1.110550 S    
C46   C118  1.406762 A    
N18   N27   1.373227 A    
C66   C87   1.464003 S    
C16   N16   1.335896 A    
C161  C162  1.521291 S    
C114  O18   1.386836 S    
C199  H129  1.114597 S    
O26   C211  1.412621 S    
C79   C94   1.463490 S    
C107  O11   1.385567 S    
N39   O46   1.301607 A    
C70   C83   1.457221 S    
C224  H191  1.110604 S    
N36   O39   1.301236 A    
N3    N10   1.378004 A    
C125  O29   1.386175 S    
C36   C109  1.401246 A    
C117  O21   1.384331 S    
C23   C95   1.380889 A    
C192  H112  1.110076 S    
C223  H189  1.115230 S    
C170  H56   1.110558 S    
N3    Ni3   1.845573 S    
C200  H130  1.110768 S    
C204  H142  1.110717 S    
C199  C200  1.520456 S    
C24   H24   1.074465 S    
C177  H73   1.112864 S    
C17   H17   1.080183 S    
C119  C151  1.404194 A    
N38   O43   1.300054 A    
C166  H46   1.110429 S    
C212  H162  1.110419 S    
N56   O79   1.301234 A    
N6    N15   1.373227 A    
C44   C116  1.398930 A    
C75   C90   1.461365 S    
N42   O51   1.300568 A    
C43   C126  1.403541 A    
C23   H23   1.080881 S    
N11   Ni4   1.851245 S    
C26   N26   1.342987 A    
C223  C224  1.520291 S    
O21   C201  1.413601 S    
C99   O3    1.384789 S    
C9    H9    1.078728 S    
C123  C155  1.399844 A    
C80   C93   1.457148 S    
N62   O91   1.301395 A    
C104  C136  1.404117 A    
C65   C144  1.419563 A    
C76   C89   1.455670 S    
C121  C153  1.396652 A    
C30   N30   1.342948 A    
C194  H115  1.110897 S    
C13   H13   1.075019 S    
C221  H183  1.113779 S    
C136  N40   1.433845 S    
C198  H126  1.110294 S    
N17   Ni5   1.849630 S    
C18   N18   1.331406 A    
C214  H165  1.110614 S    
C98   C130  1.407052 A    
C70   C134  1.414301 A    
C201  H133  1.108962 S    
C47   C122  1.407333 A    
C149  N53   1.437747 S    
C22   C94   1.382455 A    
N16   Ni4   1.845592 S    
C71   C138  1.419944 A    
C190  H107  1.110876 S    
C222  H186  1.110408 S    
C219  H178  1.111761 S    
C164  H42   1.110801 S    
C73   C145  1.415985 A    
C46   C123  1.404741 A    
C102  C134  1.402281 A    
C7    H7    1.081698 S    
N48   O63   1.300306 A    
C8    H8    1.073940 S    
C100  O4    1.388390 S    
C204  H140  1.110593 S    
C165  H44   1.114454 S    
C73   C96   1.468049 S    
C143  N47   1.440203 S    
C77   C149  1.418880 A    
C118  O22   1.383573 S    
C215  H169  1.114154 S    
C190  H105  1.110547 S    
C52   C59   1.193993 T    
C36   C100  1.400519 A    
C134  N38   1.434505 S    
C129  N33   1.433828 S    
N26   Ni6   1.849447 S    
C211  H159  1.115339 S    
O22   C203  1.413675 S    
C56   C63   1.193978 T    
C22   H22   1.074586 S    
C210  H155  1.110496 S    
C114  C146  1.414456 A    
O3    C165  1.412038 S    
C224  H190  1.110574 S    
C97   O1    1.385449 S    
C29   C96   1.384974 A    
N47   O62   1.301402 A    
C30   C95   1.391794 A    
N52   O71   1.301253 A    
C118  C150  1.409949 A    
C166  H45   1.110806 S    
C215  C216  1.520102 S    
C193  H113  1.107391 S    
N32   Ni8   1.845592 S    
C169  H54   1.112941 S    
C106  C138  1.402567 A    
C100  C132  1.408389 A    
O2    C163  1.415065 S    
C44   C125  1.402660 A    
C184  H91   1.110458 S    
N40   O48   1.299755 A    
N17   N28   1.373227 A    
C15   N15   1.336365 A    
C40   C105  1.405126 A    
C121  O25   1.386409 S    
C200  H132  1.110802 S    
C1    N1    1.330136 A    
C6    H6    1.075859 S    
C27   N27   1.342148 A    
O1    C161  1.417511 S    
C155  N59   1.439278 S    
N4    Ni4   1.845569 S    
C65   C129  1.416556 A    
N54   O76   1.300352 A    
C2    C82   1.385543 A    
C172  H60   1.110729 S    
C25   H25   1.075527 S    
C73   C160  1.412702 A    
C19   N19   1.336505 A    
C6    C86   1.382229 A    
N58   O84   1.301432 A    
C28   C89   1.386836 A    
C68   C81   1.476457 S    
C207  H149  1.114471 S    
C128  O32   1.384679 S    
C28   H28   1.079961 S    
C29   H29   1.075072 S    
N2    Ni2   1.849626 S    
C217  H173  1.113904 S    
C49   C58   1.196272 T    
C31   H31   1.075439 S    
C32   H32   1.080852 S    
C15   C86   1.388040 A    
N35   O38   1.301424 A    
N22   N31   1.373227 A    
C194  H117  1.110618 S    
C141  N45   1.436604 S    
C4    N4    1.334366 A    
C212  H161  1.110562 S    
C174  H66   1.110381 S    
C175  H69   1.109500 S    
N9    Ni1   1.849444 S    
N41   O50   1.301488 A    
C214  H167  1.109993 S    
C176  H70   1.110620 S    
C207  C208  1.520485 S    
C189  H104  1.112294 S    
N51   O69   1.301176 A    
C3    H3    1.081745 S    
C42   C58   1.427791 S    
N28   Ni7   1.851245 S    
O32   C223  1.413306 S    
C19   C91   1.380331 A    
N33   O34   1.301317 A    
C205  H143  1.107063 S    
C17   C89   1.382706 A    
C112  O16   1.381621 S    
C46   C62   1.433613 S    
C180  H82   1.110924 S    
C33   C49   1.429325 S    
O12   C183  1.414087 S    
C208  H152  1.110843 S    
C187  H99   1.114579 S    
N23   Ni8   1.851074 S    
C20   N20   1.338822 A    
N24   Ni7   1.851074 S    
N37   O41   1.300385 A    
C80   C153  1.410122 A    
C146  N50   1.445143 S    
C189  C190  1.521173 S    
C71   C135  1.413195 A    
C203  H138  1.108849 S    
C218  H177  1.109300 S    
N43   O54   1.301456 A    
C126  O30   1.382874 S    
C70   C139  1.409607 A    
C67   C82   1.474063 S    
C131  N35   1.439601 S    
C2    N2    1.338736 A    
C169  C170  1.519906 S    
C10   C83   1.384553 A    
C166  H47   1.111016 S    
C125  C157  1.397824 A    
N49   O66   1.300247 A    
C187  C188  1.520529 S    
C128  C160  1.400566 A    
C133  N37   1.441858 S    
C14   C87   1.385640 A    
C39   C106  1.398595 A    
N37   O42   1.301522 A    
C167  H48   1.109826 S    
C197  H123  1.110476 S    
C37   C108  1.403817 A    
C11   N11   1.336675 A    
C202  H135  1.110376 S    
C151  N55   1.439768 S    
N21   N32   1.373227 A    
C77   C156  1.411206 A    
N25   Ni5   1.849444 S    
C171  H59   1.113050 S    
N44   O55   1.300683 A    
C34   C98   1.403574 A    
C75   C147  1.420753 A    
C77   C92   1.467553 S    
N46   O60   1.299585 A    
N57   O81   1.301428 A    
C162  H37   1.107542 S    
C159  N63   1.435389 S    
C12   H12   1.081219 S    
C109  C141  1.395545 A    
C104  O8    1.385309 S    
C213  H163  1.112391 S    
C32   C93   1.388470 A    
C213  H164  1.115218 S    
N13   Ni2   1.844667 S    
C65   C88   1.495785 S    
C178  H76   1.110525 S    
C206  H145  1.110670 S    
C10   H10   1.081115 S    
C171  C172  1.520258 S    
C98   O2    1.384100 S    
C153  N57   1.439446 S    
C36   C52   1.424891 S    
C43   C59   1.424782 S    
C101  O5    1.383290 S    
C211  H158  1.110919 S    
N8    N13   1.378004 A    
C14   H14   1.081821 S    
C208  H150  1.110747 S    
N1    N12   1.373227 A    
C185  H94   1.117552 S    
N56   O80   1.301094 A    
C186  H95   1.110452 S    
C39   C55   1.422022 S    
N50   O67   1.300517 A    
C207  H148  1.114494 S    
C176  H72   1.110779 S    
C196  H121  1.110311 S    
C30   H30   1.080602 S    
C35   C51   1.422472 S    
N27   Ni8   1.851245 S    
C210  H157  1.109089 S    
C209  H153  1.111883 S    
C181  H84   1.111608 S    
C20   C92   1.381317 A    
C21   C93   1.382763 A    
N34   O35   1.300333 A    
O7    C173  1.411684 S    
C175  H68   1.114046 S    
O13   C185  1.414776 S    
C216  H171  1.110606 S    
N21   Ni6   1.844676 S    
C5    N5    1.336143 A    
C50   C57   1.194889 T    
C37   C101  1.407164 A    
N38   O44   1.300847 A    
C185  C186  1.521531 S    
N36   O40   1.298465 A    
C54   C61   1.192869 T    
C67   C131  1.415093 A    
C181  C182  1.520926 S    
C186  H96   1.110488 S    
C183  H88   1.112302 S    
C192  H111  1.110619 S    
C170  H55   1.110752 S    
C105  O9    1.384330 S    
N5    Ni2   1.844676 S    
C177  H74   1.113410 S    
C216  H170  1.110628 S    
C182  H86   1.110480 S    
C195  H118  1.115157 S    
N19   Ni7   1.845573 S    
C116  C148  1.407835 A    
C21   N21   1.333569 A    
C68   C132  1.422501 A    
C179  C180  1.520533 S    
C8    N8    1.329445 A    
C130  N34   1.441591 S    
N63   O93   1.301128 A    
N39   O45   1.300110 A    
C120  C152  1.407152 A    
C40   C104  1.397449 A    
C202  H137  1.110589 S    
C163  H39   1.111767 S    
C72   C136  1.420010 A    
N15   Ni3   1.845589 S    
C112  C144  1.404910 A    
C165  H43   1.113433 S    
C218  H175  1.110634 S    
C177  C178  1.520791 S    
N62   O92   1.300862 A    
N55   O77   1.300288 A    
C174  H65   1.110887 S    
C79   C151  1.419318 A    
C168  H52   1.110521 S    
C145  N49   1.432122 S    
C221  H184  1.115352 S    
C3    C83   1.381194 A    
C163  H38   1.111002 S    
C66   C143  1.410183 A    
C1    C81   1.383375 A    
C26   H26   1.081245 S    
C201  H134  1.115294 S    
N42   O52   1.299301 A    
C4    C84   1.383625 A    
C206  H147  1.110569 S    
C219  H179  1.116577 S    
C164  H41   1.110599 S    
N48   O64   1.301971 A    
N31   Ni7   1.845589 S    
C161  H33   1.111746 S    
C197  H124  1.110162 S    
N8    Ni3   1.851074 S    
C18   H18   1.073113 S    
C221  C222  1.520518 S    
O20   C199  1.411857 S    
C6    N6    1.337777 A    
C144  N48   1.439306 S    
C51   C60   1.191954 T    
C16   C85   1.383595 A    
C173  H64   1.115048 S    
N10   Ni2   1.849447 S    
C178  H75   1.110599 S    
C123  O27   1.383292 S    
C201  C202  1.520218 S    
C195  H119  1.110531 S    
C157  N61   1.439881 S    
C38   C102  1.398263 A    
C174  H67   1.110679 S    
C219  C220  1.521599 S    
C25   N25   1.341135 A    
C37   C53   1.432922 S    
C122  C154  1.398589 A    
C197  C198  1.532737 S    
C194  H116  1.110367 S    
C199  H128  1.114455 S    
N60   O87   1.300957 A    
C140  N44   1.438577 S    
C29   N29   1.344235 A    
C18   C90   1.376666 A    
O11   C181  1.414570 S    
C168  H50   1.104548 S    
C193  H114  1.113637 S    
C31   N31   1.338827 A    
N2    N11   1.373227 A    
N50   O68   1.301525 A    
C17   N17   1.335613 A    
C22   N22   1.340352 A    
C99   C131  1.397766 A    
C184  H90   1.110546 S    
C48   C64   1.421779 S    
C195  C196  1.522283 S    
C97   C129  1.404923 A    
C72   C137  1.412674 A    
C35   C99   1.403865 A    
C176  H71   1.110308 S    
C223  H188  1.111248 S    
C170  H57   1.110803 S    
C200  H131  1.110491 S    
C120  O24   1.383139 S    
C101  C133  1.410276 A    
C109  O13   1.382857 S    
C191  H108  1.114157 S    
C40   C56   1.425341 S    
C193  C194  1.520375 S    
C156  N60   1.439206 S    
C107  C139  1.400811 A    
C216  H172  1.110919 S    
O9    C177  1.413300 S    
C222  H185  1.110562 S    
C15   H15   1.081362 S    
C12   C81   1.392203 A    
C16   H16   1.076963 S    
O24   C207  1.411481 S    
C189  H103  1.113037 S    
C1    H1    1.080985 S    
N43   O53   1.300632 A    
C115  C147  1.408924 A    
C180  H80   1.110840 S    
N30   Ni5   1.844667 S    
C119  O23   1.384976 S    
N53   O73   1.300396 A    
C113  C145  1.402255 A    
O10   C179  1.413070 S    
C74   C159  1.417554 A    
C24   C96   1.379337 A    
O4    C167  1.424040 S    
C222  H187  1.110253 S    
C204  H141  1.110566 S    
C7    N7    1.336428 A    
C117  C149  1.403961 A    
C102  O6    1.383719 S    
C48   C120  1.400636 A    
C69   C133  1.416890 A    
C162  H36   1.110473 S    
C43   C115  1.402543 A    
C33   C97   1.404185 A    
C108  C140  1.398266 A    
N41   O49   1.300749 A    
C105  C137  1.400087 A    
C214  H166  1.110418 S    
N14   Ni1   1.844667 S    
O23   C205  1.413395 S    
C41   C128  1.405974 A    
N12   Ni3   1.851245 S    
C45   C117  1.401036 A    
C217  C218  1.520925 S    
C115  O19   1.387743 S    
C113  O17   1.384381 S    
N51   O70   1.300951 A    
C11   H11   1.081688 S    
O5    C169  1.413304 S    
C205  H144  1.115144 S    
C38   C54   1.424400 S    
C34   C50   1.428070 S    
N7    Ni4   1.851074 S    
C190  H106  1.110567 S    
C71   C86   1.470933 S    
C23   N23   1.334031 A    
C67   C142  1.421148 A    
C38   C107  1.408534 A    
C182  H85   1.110556 S    
C9    N9    1.343735 A    
C217  H174  1.114154 S    
C39   C103  1.403481 A    
C186  H97   1.108556 S    
C179  H78   1.113303 S    
C203  H139  1.112514 S    
C218  H176  1.110397 S    
C13   N13   1.339386 A    
C80   C152  1.416104 A    
C210  H156  1.110404 S    
C106  O10   1.384677 S    
O31   C221  1.413107 S    
C205  C206  1.520497 S    
N22   Ni5   1.844676 S    
C168  H51   1.110257 S    
N4    N9    1.378004 A    
C135  N39   1.441816 S    
C74   C95   1.481698 S    
N63   O94   1.301009 A    
C116  O20   1.383123 S    
C184  H92   1.109821 S    
C167  H49   1.109684 S    
N40   O47   1.300212 A    
C198  H127  1.110554 S    
C203  C204  1.520036 S    
C24   N24   1.337775 A    
C127  O31   1.383746 S    
C31   C94   1.378424 A    
N49   O65   1.299986 A    
O30   C219  1.415356 S    
C41   C57   1.425864 S    
C28   N28   1.340831 A    
N6    Ni1   1.844676 S    
N53   O74   1.299962 A    
N55   O78   1.300235 A    
O19   C197  1.423516 S    
N18   Ni6   1.849626 S    
N44   O56   1.300999 A    
C173  C174  1.520532 S    
C72   C85   1.467913 S    
N20   Ni8   1.845569 S    
C45   C61   1.423481 S    
N54   O75   1.300302 A    
C32   N32   1.341046 A    
O28   C215  1.413545 S    
C191  H109  1.115536 S    
N45   O58   1.301286 A    
C47   C63   1.425161 S    
C152  N56   1.439459 S    
C172  H62   1.110781 S    
C167  C168  1.534612 S    
N20   N25   1.378004 A    
C79   C154  1.408810 A    
N1    Ni1   1.849630 S    
C179  H79   1.111187 S    
C182  H87   1.111093 S    
N58   O83   1.300783 A    
O8    C175  1.413295 S    
O18   C195  1.420642 S    
N33   O33   1.301135 A    
C188  H102  1.110797 S    
N19   N26   1.378004 A    
N24   N29   1.378004 A    
C139  N43   1.441384 S    
C3    N3    1.335133 A    
N61   O90   1.301235 A    
N64   O96   1.300284 A    
C126  C158  1.394821 A    
N59   O86   1.300952 A    
C68   C141  1.418346 A    
C138  N42   1.431843 S    
O6    C171  1.412789 S    
C191  C192  1.521606 S    
O17   C193  1.411238 S    
C5    C85   1.388288 A    
C220  H181  1.110564 S    
C213  C214  1.521560 S    
C12   N12   1.340912 A    
C224  H192  1.110512 S    
C20   H20   1.074078 S    
C27   H27   1.076011 S    
C196  H120  1.106133 S    
C158  N62   1.438641 S    
C21   H21   1.079864 S    
C10   N10   1.337808 A    
O27   C213  1.413585 S    
C198  H125  1.104302 S    
C180  H81   1.110482 S    
C209  H154  1.116152 S    
C150  N54   1.441389 S    
N34   O36   1.301177 A    
C215  H168  1.113708 S    
C75   C158  1.412128 A    
N52   O72   1.300983 A    
C14   N14   1.337590 A    
N61   O89   1.301395 A    
C162  H35   1.110534 S    
C48   C121  1.402851 A    
C220  H182  1.108411 S    
C211  C212  1.520427 S    
C41   C113  1.399468 A    
C169  H53   1.108201 S    
C19   H19   1.081644 S    
C74   C146  1.420411 A    
C208  H151  1.110478 S    
C187  H98   1.111200 S    
C110  C142  1.404393 A    
C69   C140  1.412323 A    
C188  H100  1.110672 S    
N5    N16   1.373227 A    
C103  O7    1.383490 S    
O15   C189  1.413402 S    
N45   O57   1.301156 A    
C154  N58   1.439673 S    
C78   C150  1.417995 A    
N7    N14   1.378004 A    
C42   C127  1.401660 A    
C209  C210  1.522439 S    
C8    C88   1.397353 A    
