data_mof_unit_54258.cif
_audit_creation_date              2012-12-10T17:21:19-0500
_audit_creation_method            fapswitch 2.2
_symmetry_space_group_name_H-M    P1
_symmetry_Int_Tables_number       1
_space_group_crystal_system       triclinic
_cell_length_a                    9.650402
_cell_length_b                    10.884591
_cell_length_c                    13.841819
_cell_angle_alpha                 92.993979
_cell_angle_beta                  84.218521
_cell_angle_gamma                 89.982196
_cell_volume                      1444.56104011

loop_
_atom_site_label
_atom_site_type_symbol
_atom_type_description
_atom_site_fract_x
_atom_site_fract_y
_atom_site_fract_z
_atom_type_partial_charge
C1    C     C_R   0.498791 0.737164 0.506310 0.784829
C2    C     C_1   0.465939 0.522094 0.786462 -0.202021
C3    C     C_R   0.276863 0.876003 0.624794 -0.215199
C4    C     C_R   0.156611 0.937591 0.662474 -0.333805
C5    C     C_R   0.150910 0.065350 0.662669 0.392701
C6    C     C_R   0.272631 0.130696 0.631974 0.459948
C7    C     C_R   0.384087 0.068381 0.572498 -0.119775
C8    C     C_R   0.385429 0.937510 0.570765 0.044049
C9    C     C_R   0.496370 0.871189 0.516844 -0.148088
C10   C     C_R   0.603685 0.932630 0.465473 -0.193396
C11   C     C_R   0.599698 0.058450 0.459837 0.392820
C12   C     C_R   0.477293 0.506400 0.682872 0.809583
C13   C     C_R   0.493936 0.129055 0.515330 -0.185075
C14   C     C_R   0.870322 0.356360 0.359975 -0.079859
C15   C     C_R   0.943628 0.301748 0.279044 -0.238898
C16   C     C_R   0.085446 0.301155 0.272475 -0.278659
C17   C     C_R   0.156031 0.349847 0.349681 0.460993
C18   C     C_R   0.083573 0.427631 0.427896 0.163753
C19   C     C_R   0.933798 0.429059 0.429941 0.138583
C20   C     C_R   0.916841 0.567381 0.566889 -0.035940
C21   C     C_R   0.064076 0.566875 0.567193 -0.047870
C22   C     C_R   0.498121 0.263175 0.506914 0.869746
C23   C     C_R   0.523259 0.499970 0.317084 0.824437
C24   C     C_1   0.537558 0.497625 0.213337 -0.174882
C25   C     C_2   0.554825 0.490751 0.021840 -0.167010
C26   C     C_2   0.456501 0.545088 0.977549 -0.171142
C27   C     C_1   0.460369 0.534151 0.873576 -0.000621
C28   C     C_1   0.546917 0.494858 0.126017 0.002311
Cu1   Cu    Cu3+1 0.359340 0.500010 0.500010 1.004846
Cu2   Cu    Cu3+1 0.640660 0.499990 0.499990 0.955707
H1    H     H_    0.370633 0.594679 0.019153 0.161569
H2    H     H_    0.763290 0.337198 0.364771 0.214225
H3    H     H_    0.889831 0.252563 0.223994 0.173461
H4    H     H_    0.140237 0.249628 0.211136 0.149374
H5    H     H_    0.110417 0.621489 0.622777 0.114047
H6    H     H_    0.639807 0.440082 0.980132 0.158470
H7    H     H_    0.686051 0.881381 0.421743 0.182538
H8    H     H_    0.281289 0.779578 0.638088 0.171781
H9    H     H_    0.070160 0.885886 0.695631 0.148318
H10   H     H_    0.854422 0.623151 0.621890 0.130749
N1    N     N_R   0.852210 0.498790 0.499090 -0.189837
N2    N     N_R   0.148080 0.498710 0.499060 -0.175567
O1    O     O_R   0.381190 0.680360 0.500010 -0.586808
O2    O     O_R   0.618760 0.680340 0.500000 -0.584289
O3    O     O_R   0.364420 0.499990 0.637850 -0.565278
O4    O     O_R   0.601990 0.499960 0.637840 -0.576325
O5    O     O_R   0.381240 0.319660 0.500000 -0.467585
O6    O     O_R   0.618810 0.319640 0.499990 -0.588852
O7    O     O_R   0.398010 0.500040 0.362160 -0.526628
O8    O     O_R   0.635580 0.500010 0.362150 -0.608960
O9    O     O_3   0.288647 0.306611 0.351759 -0.701734
H11   H     H_    0.320749 0.254742 0.292600 0.291507
O10   O     O_3   0.032694 0.129452 0.700530 -0.737282
H12   H     H_    0.957814 0.070276 0.719198 0.320591
O11   O     O_3   0.285139 0.251765 0.666192 -0.585523
C29   C     C_3   0.279971 0.259063 0.769575 0.097709
H13   H     H_    0.261916 0.169597 0.804762 0.121482
H14   H     H_    0.382968 0.289832 0.789932 0.127629
C30   C     C_3   0.167403 0.351678 0.812801 -0.264510
H15   H     H_    0.196942 0.445988 0.792577 0.211708
H16   H     H_    0.067063 0.331200 0.783011 0.265605
C31   C     C_3   0.144974 0.348645 0.923426 -0.945939
H17   H     H_    0.102489 0.258080 0.944837 0.261645
H18   H     H_    0.069476 0.421600 0.952800 0.257018
H19   H     H_    0.244498 0.364455 0.955734 0.265519
O12   O     O_3   0.695431 0.108587 0.392928 -0.725348
H20   H     H_    0.642554 0.162733 0.354216 0.293451

loop_
_geom_bond_atom_site_label_1
_geom_bond_atom_site_label_2
_ccdc_geom_bond_type
C7    C13   A    
C22   O6    A    
C23   C24   S    
C29   C30   S    
Cu2   N1    S    
Cu1   Cu2   S    
C21   H5    S    
Cu1   N2    S    
C24   C28   T    
C9    C10   A    
C1    O2    A    
C11   O12   S    
Cu2   O4    S    
C6    O11   S    
O11   C29   S    
C2    C12   S    
C17   O9    S    
C31   H17   S    
C20   N1    A    
Cu2   O8    S    
C7    C8    A    
C14   H2    S    
Cu1   O7    S    
O10   H12   S    
Cu1   O1    S    
C25   C28   S    
C11   C13   A    
Cu2   O2    S    
C26   C27   S    
C2    C27   T    
Cu1   O5    S    
C10   H7    S    
C4    C5    A    
Cu2   O6    S    
C29   H14   S    
C13   C22   S    
C22   O5    A    
C6    C7    A    
C18   N2    A    
C5    C6    A    
C20   H10   S    
C30   H16   S    
C23   O7    A    
C29   H13   S    
C25   H6    S    
C15   C16   A    
C19   N1    A    
C30   H15   S    
C1    C9    S    
C20   C21   A    
C3    H8    S    
C17   C18   A    
C3    C8    A    
C10   C11   A    
C5    O10   S    
O12   H20   S    
C18   C19   A    
C14   C15   A    
C8    C9    A    
C23   O8    A    
C31   H18   S    
C21   N2    A    
C30   C31   S    
C31   H19   S    
C16   H4    S    
C25   C26   D    
C4    H9    S    
C26   H1    S    
C14   C19   A    
C1    O1    A    
C3    C4    A    
O9    H11   S    
C16   C17   A    
Cu1   O3    S    
C12   O3    A    
C15   H3    S    
C12   O4    A    
