data_mof_unit_6772.cif
_audit_creation_date              2012-12-10T20:34:53-0500
_audit_creation_method            fapswitch 2.2
_symmetry_space_group_name_H-M    P1
_symmetry_Int_Tables_number       1
_space_group_crystal_system       triclinic
_cell_length_a                    10.654991
_cell_length_b                    10.663687
_cell_length_c                    9.893166
_cell_angle_alpha                 89.968032
_cell_angle_beta                  89.078707
_cell_angle_gamma                 90.059105
_cell_volume                      1123.93015465

loop_
_atom_site_label
_atom_site_type_symbol
_atom_type_description
_atom_site_fract_x
_atom_site_fract_y
_atom_site_fract_z
_atom_type_partial_charge
C1    C     C_R   0.503833 0.260071 0.500004 0.888850
C2    C     C_3   0.878466 0.497922 0.498752 0.132679
C3    C     C_3   0.928815 0.615850 0.423643 -0.439307
C4    C     C_3   0.929036 0.378382 0.424639 -0.149192
C5    C     C_R   0.520436 0.063874 0.622620 0.157856
C6    C     C_R   0.523835 0.128675 0.500500 -0.089800
C7    C     C_R   0.551472 0.064992 0.379647 -0.198796
C8    C     C_R   0.551592 0.935316 0.379611 -0.208512
C9    C     C_R   0.524131 0.871375 0.500457 -0.106958
C10   C     C_R   0.520638 0.936032 0.622637 0.112720
C11   C     C_3   0.428082 0.928611 0.737643 -0.432560
C12   C     C_R   0.257646 0.499408 0.500511 0.851015
C13   C     C_3   0.427781 0.070756 0.737479 -0.502821
C14   C     C_R   0.452483 0.399958 0.073001 0.093800
C15   C     C_R   0.560323 0.591019 0.070702 -0.103821
C16   C     C_R   0.561682 0.590125 0.926866 -0.070633
C17   C     C_R   0.444509 0.404889 0.930971 0.183241
C18   C     C_3   0.307076 0.370838 0.939935 -0.321518
C19   C     C_3   0.323337 0.349735 0.090832 -0.278176
C20   C     C_R   0.504020 0.739931 0.499919 0.877933
C21   C     C_R   0.742113 0.500158 0.499335 0.809939
C22   C     C_3   0.068465 0.499021 0.645840 -0.382222
C23   C     C_3   0.926501 0.502518 0.646265 -0.364151
C24   C     C_3   0.073008 0.616091 0.424380 -0.393667
C25   C     C_3   0.074023 0.378277 0.427789 -0.352257
C26   C     C_3   0.121041 0.498342 0.499709 0.099230
H1    H     H_    0.103029 0.583165 0.700158 0.213833
H2    H     H_    0.901256 0.384308 0.316692 0.105742
H3    H     H_    0.109443 0.617368 0.318273 0.190747
H4    H     H_    0.896281 0.617059 0.317260 0.182460
H5    H     H_    0.564388 0.114234 0.284618 0.159451
H6    H     H_    0.564417 0.886268 0.284526 0.163822
H7    H     H_    0.336852 0.886884 0.707959 0.218368
H8    H     H_    0.469947 0.887714 0.829947 0.206320
H9    H     H_    0.336413 0.111795 0.707485 0.207783
H10   H     H_    0.469488 0.112076 0.829613 0.194144
H11   H     H_    0.099194 0.412411 0.698481 0.182432
H12   H     H_    0.609875 0.664029 0.871914 0.126084
H13   H     H_    0.283261 0.285761 0.880716 0.122363
H14   H     H_    0.263446 0.409300 0.157464 0.192935
H15   H     H_    0.889128 0.422964 0.707584 0.220260
H16   H     H_    0.894019 0.590330 0.696841 0.167745
H17   H     H_    0.107110 0.702727 0.474781 0.176788
H18   H     H_    0.892734 0.702563 0.473406 0.175765
H19   H     H_    0.110778 0.375146 0.322220 0.176442
H20   H     H_    0.111154 0.293725 0.479736 0.206140
N1    N     N_R   0.499150 0.499140 0.142800 -0.099010
N2    N     N_R   0.499150 0.499180 0.857150 -0.071285
O1    O     O_R   0.500020 0.316790 0.614690 -0.623923
O2    O     O_R   0.500000 0.316760 0.385350 -0.614499
O3    O     O_R   0.314800 0.500000 0.614670 -0.591442
O4    O     O_R   0.314790 0.499960 0.385330 -0.624030
O5    O     O_R   0.500000 0.683240 0.614650 -0.609778
O6    O     O_R   0.499980 0.683210 0.385310 -0.622785
O7    O     O_R   0.685210 0.500040 0.614670 -0.629999
O8    O     O_R   0.685200 0.500000 0.385330 -0.641182
Zn1   Zn    Zn3+2 0.500010 0.500020 0.653130 0.977815
Zn2   Zn    Zn3+2 0.499990 0.499980 0.346870 0.949455
H21   H     H_    0.606815 0.666057 0.123824 0.129490
C27   C     C_2   0.217439 0.478668 0.920178 0.430884
H22   H     H_    0.117495 0.461772 0.932611 0.041678
O9    O     O_2   0.254498 0.585130 0.897179 -0.562903
C28   C     C_2   0.324406 0.213716 0.130863 0.429289
H23   H     H_    0.381012 0.146660 0.074252 0.052268
O10   O     O_2   0.261945 0.177724 0.227817 -0.579506
C29   C     C_2   0.873400 0.257163 0.478716 0.381553
H24   H     H_    0.801757 0.209318 0.421455 0.057725
O11   O     O_2   0.905288 0.213560 0.587025 -0.582313

loop_
_geom_bond_atom_site_label_1
_geom_bond_atom_site_label_2
_ccdc_geom_bond_type
C17   C18   S    
C3    H4    S    
C29   O11   D    
C18   H13   S    
C28   O10   D    
C20   O6    A    
C6    C7    A    
O3    Zn1   S    
C1    O2    A    
C25   H19   S    
C21   O8    A    
C9    C10   A    
C9    C20   S    
C2    C4    S    
C23   H15   S    
C17   N2    A    
C15   N1    A    
C10   C11   S    
C16   N2    A    
C2    C21   S    
C29   H24   S    
C20   O5    A    
N2    Zn1   S    
N1    Zn2   S    
C4    C29   S    
C11   C13   S    
C14   C17   A    
C3    C24   S    
C14   N1    A    
C23   H16   S    
C1    O1    A    
C27   H22   S    
C15   C16   A    
C25   H20   S    
C18   C27   S    
C4    H2    S    
C12   C26   S    
O8    Zn2   S    
C13   H9    S    
C2    C3    S    
C22   H1    S    
O7    Zn1   S    
C22   C26   S    
C5    C6    A    
O4    Zn2   S    
C3    H18   S    
C7    H5    S    
C19   H14   S    
C5    C10   A    
C28   H23   S    
C8    H6    S    
C4    C25   S    
C11   H7    S    
C12   O3    A    
O1    Zn1   S    
C13   H10   S    
C27   O9    D    
C7    C8    A    
O6    Zn2   S    
C19   C28   S    
C2    C23   S    
C21   O7    A    
C24   H17   S    
O5    Zn1   S    
C22   C23   S    
C18   C19   S    
C15   H21   S    
C1    C6    S    
C12   O4    A    
C25   C26   S    
C24   H3    S    
C22   H11   S    
C5    C13   S    
C14   C19   S    
C11   H8    S    
C24   C26   S    
C16   H12   S    
C8    C9    A    
O2    Zn2   S    
