data_mof_unit_10250.cif
_audit_creation_date              2012-12-11T15:48:41-0500
_audit_creation_method            fapswitch 2.2
_symmetry_space_group_name_H-M    P1
_symmetry_Int_Tables_number       1
_space_group_crystal_system       triclinic
_cell_length_a                    10.962748
_cell_length_b                    10.963461
_cell_length_c                    18.827013
_cell_angle_alpha                 90.523465
_cell_angle_beta                  90.326239
_cell_angle_gamma                 60.627757
_cell_volume                      1971.84702287

loop_
_atom_site_label
_atom_site_type_symbol
_atom_type_description
_atom_site_fract_x
_atom_site_fract_y
_atom_site_fract_z
_atom_type_partial_charge
C1    C     C_R   0.242121 0.644337 0.610948 0.562359
C2    C     C_3   0.669346 0.551885 0.799271 0.090117
C3    C     C_3   0.699528 0.673893 0.812032 0.049344
C4    C     C_3   0.671138 0.648670 0.675789 0.042607
C5    C     C_3   0.819912 0.626000 0.690906 0.083815
C6    C     C_3   0.650504 0.539234 0.718963 -0.182941
C7    C     C_R   0.683399 0.150848 0.822310 0.027541
C8    C     C_R   0.781291 0.171288 0.784721 -0.034806
C9    C     C_R   0.772139 0.184844 0.710929 0.032428
C10   C     C_R   0.575532 0.144619 0.710232 -0.180830
C11   C     C_R   0.574170 0.148601 0.783244 -0.165673
C12   C     C_R   0.654211 0.622554 0.600532 0.578265
C13   C     C_3   0.936331 0.085141 0.783691 -0.194336
C14   C     C_3   0.927392 0.101307 0.703500 0.083090
C15   C     C_R   0.671115 0.168079 0.672667 0.053663
C16   C     C_R   0.182331 0.666440 0.835789 0.029815
C17   C     C_R   0.155093 0.575800 0.794442 0.010365
C18   C     C_R   0.164902 0.573096 0.720784 0.052962
C19   C     C_R   0.224115 0.756960 0.727336 -0.097982
C20   C     C_R   0.218952 0.756288 0.801094 -0.118879
C21   C     C_3   0.226787 0.420086 0.797939 -0.288008
C22   C     C_3   0.234155 0.417987 0.717594 -0.275337
C23   C     C_R   0.629353 0.226722 0.602036 0.529398
C24   C     C_R   0.201323 0.662246 0.685822 0.077727
C25   C     C_R   0.662235 0.685400 0.173417 -0.062009
C26   C     C_R   0.758675 0.566862 0.208152 0.051019
C27   C     C_R   0.764039 0.555515 0.280162 -0.002047
C28   C     C_R   0.585290 0.796606 0.291440 0.312262
C29   C     C_R   0.573840 0.804662 0.216236 0.272160
C30   C     C_3   0.795176 0.419917 0.195273 -0.240542
C31   C     C_3   0.799004 0.405540 0.275126 -0.207540
C32   C     C_R   0.670536 0.664478 0.323560 -0.044971
C33   C     C_R   0.667840 0.137821 0.179780 -0.033872
C34   C     C_R   0.215694 0.652819 0.403724 0.590018
C35   C     C_R   0.552210 0.148196 0.214194 -0.010993
C36   C     C_R   0.541579 0.161526 0.286658 0.099752
C37   C     C_R   0.777635 0.120783 0.295351 -0.131972
C38   C     C_R   0.785377 0.119100 0.221441 0.190541
C39   C     C_3   0.400846 0.248991 0.200471 0.149617
C40   C     C_3   0.389170 0.270813 0.280514 0.491465
C41   C     C_R   0.650388 0.157508 0.327885 -0.082786
C42   C     C_R   0.062489 0.719718 0.195130 0.010433
C43   C     C_R   0.090916 0.815555 0.229623 -0.025678
C44   C     C_R   0.123096 0.803565 0.300414 0.013331
C45   C     C_R   0.644923 0.625253 0.393863 0.552072
C46   C     C_R   0.077802 0.610233 0.309879 -0.063199
C47   C     C_R   0.052539 0.616503 0.236355 0.226061
C48   C     C_3   0.199256 0.854954 0.209348 -0.108321
C49   C     C_3   0.235989 0.841447 0.286753 0.486392
C50   C     C_R   0.129316 0.693192 0.340102 -0.040246
C51   C     C_R   0.702633 0.099064 0.895167 0.543102
C52   C     C_R   0.723920 0.688377 0.888125 0.546528
C53   C     C_R   0.119095 0.705643 0.906178 0.550587
C54   C     C_R   0.678505 0.103082 0.105187 0.565902
C55   C     C_R   0.696967 0.693412 0.099034 0.536481
C56   C     C_R   0.617563 0.225909 0.396357 0.543645
C57   C     C_R   0.032722 0.743006 0.119418 0.585688
C58   C     C_3   0.576934 0.811263 0.781536 -0.224607
C59   C     C_3   0.560029 0.796544 0.701418 -0.248356
C60   C     C_3   0.835009 0.643615 0.771301 -0.241620
Cr1   Cr    Cr6+3 0.392960 0.397920 0.502240 1.064636
Cr2   Cr    Cr6+3 0.398340 0.708480 0.501250 1.031508
Cr3   Cr    Cr6+3 0.708670 0.393570 0.496460 1.012497
Cr4   Cr    Cr6+3 0.937650 0.938540 0.007610 1.011589
Cr5   Cr    Cr6+3 0.625330 0.937370 0.994520 1.022079
Cr6   Cr    Cr6+3 0.937940 0.625230 0.001190 1.029374
H1    H     H_    0.599881 0.897738 0.790364 0.128318
H2    H     H_    0.970506 0.977474 0.802153 0.186351
H3    H     H_    0.987809 0.139132 0.810085 0.081541
H4    H     H_    0.234576 0.832861 0.830589 0.134297
H5    H     H_    0.708699 0.410463 0.169339 0.099015
H6    H     H_    0.712581 0.390363 0.295491 0.141426
H7    H     H_    0.905111 0.332794 0.296162 0.188503
H8    H     H_    0.342720 0.197678 0.178803 0.198013
H9    H     H_    0.155856 0.963103 0.189245 0.209089
H10   H     H_    0.760445 0.451923 0.817764 0.112273
O1    O     O_R   0.507380 0.255700 0.581440 -0.539360
O2    O     O_R   0.524480 0.695810 0.424040 -0.454715
O3    O     O_R   0.736390 0.504290 0.414790 -0.520027
O4    O     O_R   0.691300 0.277290 0.422170 -0.520143
O5    O     O_3   0.499990 0.499990 0.499980 -0.267102
O6    O     O_R   0.089400 0.825690 0.930570 -0.531982
O7    O     O_R   0.818460 0.054440 0.929850 -0.508355
O8    O     O_R   0.606060 0.077150 0.915510 -0.532891
O9    O     O_R   0.646550 0.806680 0.917570 -0.506870
O10   O     O_R   0.837170 0.593410 0.915250 -0.540588
O11   O     O_R   0.065200 0.635530 0.931570 -0.494730
O12   O     O_R   0.280320 0.527350 0.578930 -0.511823
O13   O     O_R   0.068260 0.828890 0.091840 -0.514584
O14   O     O_R   0.798870 0.057410 0.079340 -0.517410
O15   O     O_R   0.584930 0.080350 0.076780 -0.475716
O16   O     O_R   0.626960 0.809650 0.067060 -0.504103
O17   O     O_R   0.816040 0.596610 0.076510 -0.501998
O18   O     O_R   0.045610 0.638500 0.081060 -0.484035
O19   O     O_3   0.833640 0.833710 0.001100 -0.279409
O20   O     O_R   0.260510 0.739590 0.584590 -0.533867
O21   O     O_R   0.532300 0.695080 0.573820 -0.525484
O22   O     O_R   0.744840 0.503500 0.576370 -0.524385
O23   O     O_R   0.699120 0.276560 0.571960 -0.515772
O24   O     O_R   0.498940 0.256500 0.419860 -0.443620
O25   O     O_R   0.272500 0.528080 0.429150 -0.449788
O26   O     O_R   0.252060 0.740380 0.423010 -0.503383
H11   H     H_    0.729642 0.432953 0.701515 0.086825
H12   H     H_    0.924000 0.544757 0.791050 0.111634
H13   H     H_    0.898025 0.516552 0.676071 0.160763
H14   H     H_    0.493949 0.133226 0.683384 0.127171
H15   H     H_    0.492083 0.136654 0.808341 0.136921
H16   H     H_    0.975906 0.162338 0.682615 0.102491
O27   O     O_3   0.967924 0.974627 0.667699 -0.699525
H17   H     H_    0.965377 0.995299 0.616347 0.337588
H18   H     H_    0.247302 0.831859 0.702927 0.144130
H19   H     H_    0.477226 0.838925 0.809309 0.161074
H20   H     H_    0.158001 0.380794 0.818807 0.130793
H21   H     H_    0.330020 0.377119 0.824683 0.158415
H22   H     H_    0.341428 0.373396 0.696546 0.169597
H23   H     H_    0.167395 0.380346 0.691552 0.130562
O28   O     O_3   0.501175 0.914956 0.330857 -0.582013
H24   H     H_    0.538371 0.901221 0.379949 0.314290
O29   O     O_3   0.471234 0.927475 0.187425 -0.652966
H25   H     H_    0.434262 0.903804 0.144510 0.320101
H26   H     H_    0.899842 0.360467 0.169995 0.189089
H27   H     H_    0.453520 0.813557 0.691187 0.132105
H28   H     H_    0.864369 0.114180 0.326282 0.174545
O30   O     O_3   0.905841 0.107797 0.193154 -0.711145
H29   H     H_    0.882517 0.164157 0.149570 0.332425
O31   O     O_3   0.375373 0.368367 0.161151 -0.717535
H30   H     H_    0.448095 0.394649 0.172256 0.308540
O32   O     O_3   0.359466 0.405370 0.302319 -0.664392
H31   H     H_    0.441054 0.418210 0.291912 0.278145
O33   O     O_3   0.301740 0.227815 0.312794 -0.593451
H32   H     H_    0.206175 0.289429 0.294177 0.340911
H33   H     H_    0.078181 0.526833 0.340425 0.168421
O34   O     O_3   0.034804 0.511429 0.206706 -0.716147
H34   H     H_    0.101356 0.470561 0.166855 0.376187
H35   H     H_    0.568595 0.879029 0.671715 0.123125
H36   H     H_    0.283047 0.774905 0.174932 0.093443
O35   O     O_3   0.372264 0.733008 0.300787 -0.654098
H37   H     H_    0.387389 0.647304 0.275098 0.283991
O36   O     O_3   0.207569 0.970075 0.317251 -0.608529
H38   H     H_    0.234575 0.952594 0.367978 0.373350
H39   H     H_    0.860233 0.728889 0.781965 0.145631
O37   O     O_3   0.850399 0.714729 0.649956 -0.689854
H40   H     H_    0.798901 0.810829 0.670026 0.346984
O38   O     O_3   0.547666 0.575110 0.835321 -0.721145
H41   H     H_    0.575847 0.541501 0.884655 0.326715
H42   H     H_    0.545592 0.550452 0.707623 0.163477

loop_
_geom_bond_atom_site_label_1
_geom_bond_atom_site_label_2
_ccdc_geom_bond_type
C44   C49   S    
C8    C9    A    
Cr5   O16   S    
C23   O23   A    
O31   H30   S    
C49   O35   S    
C14   O27   S    
C2    O38   S    
C32   C45   S    
Cr1   O25   S    
C35   C36   A    
Cr4   O14   S    
C9    C14   S    
O32   H31   S    
C30   H5    S    
C7    C8    A    
C41   C56   S    
C5    H13   S    
C7    C11   A    
C29   O29   S    
C26   C27   A    
C8    C13   S    
C57   O13   A    
Cr3   O5    S    
C58   H19   S    
C28   C29   A    
C37   C38   A    
C54   O14   A    
Cr3   O22   S    
Cr2   O20   S    
C28   O28   S    
C46   H33   S    
C30   C31   S    
C6    H42   S    
C31   H7    S    
C40   O32   S    
C39   H8    S    
C16   C53   S    
Cr3   O23   S    
C37   H28   S    
C19   C20   A    
Cr1   O1    S    
C22   H23   S    
C31   H6    S    
C45   O2    A    
C4    C12   S    
C43   C48   S    
C12   O22   A    
C55   O17   A    
Cr6   O18   S    
C3    C60   S    
C1    O12   A    
C15   C23   S    
C39   O31   S    
C13   C14   S    
C47   O34   S    
C37   C41   A    
C48   H9    S    
C20   H4    S    
C36   C41   A    
C2    C6    S    
Cr4   O13   S    
C53   O11   A    
C42   C57   S    
Cr2   O2    S    
Cr3   O4    S    
C25   C29   A    
O36   H38   S    
C14   H16   S    
C34   C50   S    
C34   O25   A    
Cr5   O19   S    
C27   C31   S    
C28   C32   A    
C4    C6    S    
Cr6   O11   S    
C16   C17   A    
Cr5   O8    S    
Cr3   O3    S    
C25   C26   A    
C17   C21   S    
C53   O6    A    
C35   C39   S    
C43   C44   A    
Cr4   O7    S    
C55   O16   A    
Cr1   O12   S    
C60   H39   S    
Cr2   O21   S    
C30   H26   S    
C36   C40   S    
C16   C20   A    
C17   C18   A    
C60   H12   S    
C45   O3    A    
C34   O26   A    
C6    H11   S    
C23   O1    A    
O29   H25   S    
Cr4   O6    S    
C12   O21   A    
Cr6   O17   S    
C21   H20   S    
C22   H22   S    
Cr2   O5    S    
C52   O9    A    
C10   C15   A    
C26   C30   S    
C57   O18   A    
C49   O36   S    
C11   H15   S    
O34   H34   S    
C18   C24   A    
C10   H14   S    
Cr1   O24   S    
C42   C43   A    
C56   O24   A    
C51   O7    A    
C39   C40   S    
C2    H10   S    
C44   C50   A    
C33   C54   S    
Cr5   O15   S    
C40   O33   S    
C46   C47   A    
C48   C49   S    
C5    C60   S    
C27   C32   A    
C18   C22   S    
C19   C24   A    
C48   H36   S    
C25   C55   S    
Cr4   O19   S    
C21   H21   S    
Cr6   O10   S    
C3    C52   S    
Cr5   O9    S    
C19   H18   S    
O35   H37   S    
C46   C50   A    
C33   C38   A    
C56   O4    A    
O38   H41   S    
C52   O10   A    
C2    C3    S    
C58   C59   S    
C7    C51   S    
C54   O15   A    
Cr1   O5    S    
O28   H24   S    
C5    O37   S    
C13   H3    S    
C59   H27   S    
C1    O20   A    
C4    C59   S    
C59   H35   S    
C33   C35   A    
O33   H32   S    
C42   C47   A    
C9    C15   A    
C10   C11   A    
C3    C58   S    
C58   H1    S    
C4    C5    S    
C1    C24   S    
O27   H17   S    
O37   H40   S    
Cr6   O19   S    
C21   C22   S    
C51   O8    A    
C38   O30   S    
O30   H29   S    
Cr2   O26   S    
C13   H2    S    
