data_mof_unit_49746.cif
_audit_creation_date              2012-12-10T17:44:38-0500
_audit_creation_method            fapswitch 2.2
_symmetry_space_group_name_H-M    P1
_symmetry_Int_Tables_number       1
_space_group_crystal_system       triclinic
_cell_length_a                    9.974684
_cell_length_b                    10.718107
_cell_length_c                    15.561423
_cell_angle_alpha                 93.857363
_cell_angle_beta                  68.060377
_cell_angle_gamma                 91.42434
_cell_volume                      1539.68559222

loop_
_atom_site_label
_atom_site_type_symbol
_atom_type_description
_atom_site_fract_x
_atom_site_fract_y
_atom_site_fract_z
_atom_type_partial_charge
C1    C     C_R   0.505659 0.738555 0.491721 0.890966
C2    C     C_R   0.737404 0.499054 0.029167 0.114887
C3    C     C_R   0.588566 0.492218 0.084023 0.001539
C4    C     C_R   0.409444 0.499956 0.675289 0.942152
C5    C     C_R   0.838668 0.506013 0.072182 -0.172502
C6    C     C_R   0.792252 0.503126 0.168590 -0.243408
C7    C     C_R   0.543601 0.517790 0.180179 0.362603
C8    C     C_R   0.309906 0.870219 0.423202 -0.197777
C9    C     C_R   0.179894 0.923329 0.430406 -0.275527
C10   C     C_R   0.136317 0.038535 0.480171 0.525644
C11   C     C_R   0.231649 0.104529 0.513269 -0.131276
C12   C     C_R   0.421281 0.473922 0.908113 -0.105897
C13   C     C_R   0.370746 0.056503 0.497612 0.013955
C14   C     C_R   0.398630 0.931373 0.465916 0.109269
C15   C     C_R   0.511291 0.870911 0.481605 -0.099945
C16   C     C_R   0.494001 0.260432 0.506065 0.853382
C17   C     C_R   0.614083 0.939250 0.505752 -0.225366
C18   C     C_R   0.603215 0.066698 0.517738 -0.193593
C19   C     C_R   0.484040 0.126688 0.512255 -0.097450
C20   C     C_R   0.797901 0.682456 0.606121 -0.147761
C21   C     C_R   0.837398 0.785149 0.649133 -0.371207
C22   C     C_R   0.974325 0.791399 0.652103 0.370619
C23   C     C_R   0.288577 0.412501 0.955073 0.084391
C24   C     C_R   0.069769 0.689068 0.614410 0.455495
C25   C     C_R   0.041101 0.592146 0.554683 -0.000947
C26   C     C_R   0.897930 0.590904 0.552861 0.064677
C27   C     C_R   0.954910 0.414086 0.448794 -0.067844
C28   C     C_R   0.590292 0.503200 0.324440 0.885362
C29   C     C_R   0.097990 0.414263 0.446889 0.185752
C30   C     C_R   0.354812 0.485542 0.774713 -0.076507
C31   C     C_R   0.644004 0.507987 0.223149 -0.122094
C32   C     C_R   0.193525 0.384215 0.908750 -0.169869
C33   C     C_R   0.229265 0.416575 0.817717 -0.330450
C34   C     C_R   0.529315 0.480206 0.946493 0.059444
C35   C     C_R   0.441791 0.525863 0.823556 0.392481
C36   C     C_R   0.488443 0.462904 0.041399 0.024885
C37   C     C_R   0.352901 0.408491 0.089880 -0.337447
C38   C     C_R   0.254718 0.379091 0.046436 0.431381
C39   C     C_R   0.678051 0.493926 0.891958 -0.186248
C40   C     C_R   0.781338 0.498731 0.932747 -0.214735
H1    H     H_    0.953089 0.510917 0.031469 0.170254
H2    H     H_    0.871856 0.500929 0.200427 0.194333
H3    H     H_    0.894863 0.504577 0.889149 0.155188
H4    H     H_    0.094736 0.332367 0.941068 0.204893
H5    H     H_    0.160711 0.385622 0.780431 0.183884
H6    H     H_    0.326277 0.381804 0.160102 0.180300
H7    H     H_    0.716455 0.493734 0.817087 0.197576
H8    H     H_    0.117343 0.305576 0.156307 0.330066
H9    H     H_    0.949411 0.031982 0.468319 0.319888
H10   H     H_    0.370478 0.608482 0.191364 0.333597
H11   H     H_    0.937159 0.956719 0.717127 0.348686
H12   H     H_    0.702101 0.894454 0.516670 0.171720
H13   H     H_    0.174924 0.740883 0.695314 0.362079
H14   H     H_    0.297144 0.331980 0.384360 0.254675
H15   H     H_    0.198815 0.331968 0.319240 0.158862
H16   H     H_    0.552194 0.669693 0.841994 0.340018
H17   H     H_    0.339722 0.780902 0.384460 0.198013
H18   H     H_    0.111228 0.872556 0.400248 0.142110
H19   H     H_    0.191770 0.190439 0.554452 0.185775
H20   H     H_    0.688144 0.118178 0.532105 0.195009
H21   H     H_    0.922882 0.343974 0.406783 0.154674
H22   H     H_    0.686663 0.677802 0.617057 0.266097
H23   H     H_    0.758130 0.857430 0.684174 0.185009
N1    N     N_R   0.856800 0.501200 0.500850 -0.124636
N2    N     N_R   0.142390 0.501280 0.500880 -0.111939
N3    N     N_3   0.193015 0.320086 0.386634 -0.430800
O1    O     O_R   0.385310 0.683220 0.500000 -0.561010
O2    O     O_3   0.003119 0.090020 0.496224 -0.787528
O3    O     O_3   0.406015 0.562672 0.231954 -0.783014
O4    O     O_3   0.015202 0.893112 0.696280 -0.777549
O5    O     O_3   0.181592 0.678690 0.643807 -0.711924
O6    O     O_3   0.539986 0.620616 0.789086 -0.801326
O7    O     O_R   0.614640 0.683250 0.500010 -0.656157
O8    O     O_R   0.319840 0.499980 0.632240 -0.561435
O9    O     O_R   0.549160 0.500000 0.632250 -0.596585
O10   O     O_R   0.385360 0.316750 0.499990 -0.661124
O11   O     O_R   0.614690 0.316780 0.500000 -0.613112
O12   O     O_R   0.450840 0.500000 0.367750 -0.575534
O13   O     O_R   0.680160 0.500020 0.367760 -0.628696
O14   O     O_3   0.124864 0.320512 0.092459 -0.789240
Zn1   Zn    Zn3+2 0.346880 0.499980 0.499990 0.985345
Zn2   Zn    Zn3+2 0.653120 0.500020 0.500010 0.952526

loop_
_geom_bond_atom_site_label_1
_geom_bond_atom_site_label_2
_ccdc_geom_bond_type
H9    O2    S    
C27   C29   A    
C33   H5    S    
C12   C23   A    
C38   O14   S    
C30   C35   A    
C3    C36   A    
C36   C37   A    
H10   O3    S    
C9    H18   S    
C3    C7    A    
C5    C6    A    
C16   O11   A    
C28   O13   A    
C26   N1    A    
C4    O9    A    
C27   H21   S    
C40   H3    S    
C8    C9    A    
H16   O6    S    
C1    C15   S    
H11   O4    S    
C28   O12   A    
C9    C10   A    
C4    O8    A    
C6    C31   A    
C13   C14   A    
C11   H19   S    
C17   H12   S    
C7    C31   A    
C13   C19   A    
C34   C39   A    
C25   N2    A    
C24   C25   A    
C10   C11   A    
C39   C40   A    
C18   C19   A    
C25   C26   A    
C37   C38   A    
C8    H17   S    
N2    Zn1   S    
C17   C18   A    
C32   H4    S    
C12   C35   A    
N1    Zn2   S    
C29   N2    A    
C18   H20   S    
C35   O6    S    
O1    Zn1   S    
C22   C24   A    
C2    C5    A    
O8    Zn1   S    
C12   C34   A    
H13   O5    S    
O7    Zn2   S    
H15   N3    S    
C39   H7    S    
C15   C17   A    
C5    H1    S    
C8    C14   A    
C30   C33   A    
C16   O10   A    
C28   C31   S    
O10   Zn1   S    
C7    O3    S    
O13   Zn2   S    
O9    Zn2   S    
H14   N3    S    
C10   O2    S    
C23   C38   A    
C1    O7    A    
C23   C32   A    
H8    O14   S    
C2    C3    A    
C32   C33   A    
C11   C13   A    
O12   Zn1   S    
C20   C26   A    
O11   Zn2   S    
C16   C19   S    
C1    O1    A    
C34   C36   A    
C20   H22   S    
C21   H23   S    
C27   N1    A    
C29   N3    S    
C2    C40   A    
C20   C21   A    
C6    H2    S    
C14   C15   A    
C37   H6    S    
C21   C22   A    
C22   O4    S    
C4    C30   S    
C24   O5    S    
