data_mof_unit_22933.cif
_audit_creation_date              2012-12-10T20:50:09-0500
_audit_creation_method            fapswitch 2.2
_symmetry_space_group_name_H-M    P1
_symmetry_Int_Tables_number       1
_space_group_crystal_system       triclinic
_cell_length_a                    19.206164
_cell_length_b                    8.930249
_cell_length_c                    8.105625
_cell_angle_alpha                 89.999842
_cell_angle_beta                  90.000085
_cell_angle_gamma                 89.999978
_cell_volume                      1390.24297404

loop_
_atom_site_label
_atom_site_type_symbol
_atom_type_description
_atom_site_fract_x
_atom_site_fract_y
_atom_site_fract_z
_atom_type_partial_charge
C1    C     C_R   0.500000 0.217994 0.500000 0.917393
C2    C     C_R   0.253170 0.394746 0.401512 -0.023879
C3    C     C_R   0.180638 0.600663 0.600306 -0.098544
C4    C     C_R   0.819363 0.600639 0.399665 -0.098551
C5    C     C_R   0.819366 0.399398 0.600343 -0.098552
C6    C     C_R   0.180635 0.399371 0.399691 -0.098544
C7    C     C_R   0.144990 0.500020 0.499998 -0.007756
C8    C     C_R   0.855011 0.500021 0.500005 -0.007749
C9    C     C_R   0.289702 0.500007 0.500000 -0.189491
C10   C     C_R   0.710299 0.500007 0.500001 -0.189498
C11   C     C_R   0.930116 0.500026 0.500003 0.292669
C12   C     C_R   0.500000 0.782006 0.500000 0.917385
C13   C     C_R   0.069885 0.500025 0.500000 0.292673
C14   C     C_2   0.289313 0.724995 0.693618 0.445306
C15   C     C_2   0.710689 0.724952 0.306318 0.445309
C16   C     C_2   0.710697 0.275066 0.693686 0.445321
C17   C     C_2   0.289305 0.275021 0.306379 0.445313
C18   C     C_R   0.365345 0.500001 0.500000 0.802305
C19   C     C_R   0.634656 0.500001 0.500000 0.802310
C20   C     C_1   0.500000 0.065197 0.500000 -0.176844
C21   C     C_1   0.500000 0.934803 0.500000 -0.176845
C22   C     C_R   0.253173 0.605276 0.598485 -0.023875
C23   C     C_R   0.746828 0.605252 0.401484 -0.023873
C24   C     C_R   0.746831 0.394770 0.598520 -0.023875
H1    H     H_    0.151421 0.679504 0.674878 0.192191
H2    H     H_    0.848580 0.679461 0.325069 0.192187
H3    H     H_    0.848586 0.320580 0.674940 0.192186
H4    H     H_    0.151415 0.320536 0.325118 0.192191
H5    H     H_    0.343781 0.749976 0.672204 0.073410
H6    H     H_    0.656224 0.749956 0.327745 0.073414
H7    H     H_    0.656234 0.250047 0.672251 0.073406
H8    H     H_    0.343772 0.250030 0.327794 0.073406
N1    N     N_1   0.500000 0.500000 0.073640 -0.019128
N2    N     N_1   0.500000 0.500000 0.926360 -0.019128
N3    N     N_R   0.034534 0.499474 0.355467 -0.141571
N4    N     N_R   0.965467 0.499529 0.644536 -0.141567
N5    N     N_R   0.965466 0.500523 0.355469 -0.141567
N6    N     N_R   0.034535 0.500577 0.644534 -0.141571
O1    O     O_R   0.500000 0.285350 0.636850 -0.612481
O2    O     O_2   0.741814 0.799233 0.203494 -0.535460
O3    O     O_2   0.741823 0.200799 0.796520 -0.535458
O4    O     O_2   0.258176 0.200706 0.203594 -0.535461
O5    O     O_R   0.500000 0.714650 0.363150 -0.612483
O6    O     O_R   0.500000 0.714650 0.636850 -0.612482
O7    O     O_R   0.500000 0.285350 0.363150 -0.612480
O8    O     O_R   0.398140 0.500000 0.636920 -0.614389
O9    O     O_R   0.601860 0.500000 0.363080 -0.614389
O10   O     O_R   0.601860 0.500000 0.636920 -0.614388
O11   O     O_R   0.398140 0.500000 0.363080 -0.614388
O12   O     O_2   0.258186 0.799319 0.796398 -0.535462
Zn1   Zn    Zn3+2 0.500000 0.500000 0.682780 1.011676
Zn2   Zn    Zn3+2 0.500000 0.500000 0.317220 1.011675

loop_
_geom_bond_atom_site_label_1
_geom_bond_atom_site_label_2
_ccdc_geom_bond_type
C5    C8    A    
O1    Zn1   S    
C2    C17   S    
C6    C7    A    
C10   C23   A    
C4    H2    S    
C7    C13   S    
C10   C19   S    
C4    C8    A    
O11   Zn2   S    
C16   O3    D    
C14   C22   S    
C15   C23   S    
N1    N2    T    
N2    Zn1   S    
C16   C24   S    
C14   O12   D    
N1    Zn2   S    
C5    H3    S    
C1    O7    A    
C13   N6    A    
C2    C6    A    
C5    C24   A    
C8    C11   S    
C18   O8    A    
O6    Zn1   S    
N4    N6    A    
C11   N4    A    
N3    N5    A    
O5    Zn2   S    
C13   N3    A    
C12   O5    A    
C3    C7    A    
C9    C22   A    
C19   O9    A    
C15   O2    D    
C1    O1    A    
C14   H5    S    
C12   C21   S    
C9    C18   S    
C3    H1    S    
C20   C21   T    
C15   H6    S    
C12   O6    A    
C1    C20   S    
O9    Zn2   S    
C11   N5    A    
C17   H8    S    
C17   O4    D    
C3    C22   A    
O7    Zn2   S    
C10   C24   A    
C4    C23   A    
C19   O10   A    
C2    C9    A    
O8    Zn1   S    
O10   Zn1   S    
C6    H4    S    
C18   O11   A    
C16   H7    S    
