data_mof_unit_59252.cif
_audit_creation_date              2013-03-05T15:52:47-0500
_audit_creation_method            fapswitch 2.2
_symmetry_space_group_name_H-M    P1
_symmetry_Int_Tables_number       1
_space_group_crystal_system       triclinic
_cell_length_a                    6.964177
_cell_length_b                    15.026222
_cell_length_c                    21.283828
_cell_angle_alpha                 73.32355
_cell_angle_beta                  90.829478
_cell_angle_gamma                 90.902304
_cell_volume                      2133.19502771

loop_
_atom_site_label
_atom_site_type_symbol
_atom_site_description
_atom_site_fract_x
_atom_site_fract_y
_atom_site_fract_z
_atom_type_partial_charge
O1    O     O_R   0.648150 0.130050 0.214300 -0.591392
O2    O     O_R   0.351850 0.869950 0.785700 -0.598420
O3    O     O_R   0.320490 0.006660 0.340150 -0.597581
O4    O     O_R   0.679510 0.993340 0.659850 -0.600995
O5    O     O_R   0.146100 0.869940 0.285700 -0.590206
O6    O     O_R   0.853900 0.130060 0.714300 -0.594634
C1    C     C_R   0.489686 0.000617 0.367249 0.913669
C2    C     C_R   0.510531 0.998962 0.632820 0.906683
O7    O     O_R   0.318690 0.137980 0.218120 -0.605027
O8    O     O_R   0.681310 0.862020 0.781880 -0.602278
O9    O     O_R   0.144280 0.002190 0.162800 -0.601432
O10   O     O_R   0.855720 0.997810 0.837200 -0.594041
C3    C     C_R   0.487983 0.175047 0.203750 1.001171
C4    C     C_R   0.510980 0.824191 0.791309 1.003483
O11   O     O_R   0.649960 0.997790 0.337200 -0.589703
O12   O     O_R   0.350040 0.002210 0.662800 -0.589675
O13   O     O_3   0.479300 0.955290 0.231990 -0.276046
O14   O     O_3   0.520700 0.044710 0.768010 -0.277740
V1    V     V_3+5 0.206040 0.008290 0.253340 1.154415
V2    V     V_3+5 0.793960 0.991710 0.746660 1.150136
O15   O     O_R   0.814320 0.993320 0.159850 -0.587927
O16   O     O_R   0.185680 0.006680 0.840150 -0.608354
C5    C     C_R   0.981186 0.000922 0.132655 0.924672
C6    C     C_R   0.018934 0.002922 0.866864 0.923677
O17   O     O_R   0.816120 0.862000 0.281880 -0.601140
O18   O     O_R   0.183880 0.138000 0.718120 -0.593081
C7    C     C_R   0.984871 0.825041 0.295342 0.961076
C8    C     C_R   0.015496 0.175358 0.705779 0.952093
V3    V     V_3+5 0.705540 0.991700 0.246660 1.164519
V4    V     V_3+5 0.294460 0.008300 0.753340 1.155023
O19   O     O_3   0.982150 0.044700 0.268010 -0.279450
O20   O     O_3   0.017850 0.955300 0.731990 -0.277089
C9    C     C_R   0.001653 0.724461 0.321253 -0.159375
C10   C     C_R   0.008589 0.276641 0.679330 -0.143233
C11   C     C_R   0.141911 0.583251 0.309063 0.222789
C12   C     C_R   0.009168 0.429928 0.696492 0.212396
C13   C     C_R   0.088759 0.676411 0.282676 -0.205010
C14   C     C_R   0.012045 0.332393 0.721300 -0.224304
C15   C     C_R   0.973328 0.681761 0.387813 -0.236498
C16   C     C_R   0.003492 0.316811 0.611854 -0.244577
C17   C     C_R   0.044104 0.592020 0.418255 0.111381
C18   C     C_R   0.031521 0.413222 0.583994 0.109430
C19   C     C_R   0.115037 0.540289 0.377429 0.032917
C20   C     C_R   0.027084 0.470656 0.626985 0.052036
C21   C     C_R   0.046370 0.552418 0.488099 -0.045719
C22   C     C_R   0.062914 0.454109 0.514873 -0.043389
C23   C     C_R   0.127115 0.402659 0.472196 0.209123
C24   C     C_R   0.053079 0.608293 0.531937 0.203252
C25   C     C_R   0.162534 0.447474 0.406086 -0.314105
C26   C     C_R   0.049218 0.566818 0.599698 -0.320303
H1    H     H_    0.973505 0.270721 0.582526 0.159401
H2    H     H_    0.898249 0.720424 0.415144 0.155497
C27   C     C_3   0.849849 0.959085 0.982707 -0.230046
C28   C     C_3   0.150272 0.052070 0.015985 -0.176756
C29   C     C_3   0.997697 0.916365 0.038411 -0.214591
C30   C     C_3   0.002007 0.094168 0.960003 -0.237614
H3    H     H_    0.991664 0.843634 0.070385 0.112762
H4    H     H_    0.001144 0.167008 0.928096 0.124876
H5    H     H_    0.729045 0.924249 0.964685 0.144597
H6    H     H_    0.272757 0.089767 0.030743 0.130926
C31   C     C_3   0.986037 0.004143 0.061903 -0.141054
C32   C     C_3   0.015531 0.005742 0.936855 -0.206017
C33   C     C_3   0.841222 0.046032 0.006833 0.323816
C34   C     C_3   0.160454 0.964737 0.992551 0.295253
C35   C     C_3   0.642010 0.055208 0.467977 -0.137477
C36   C     C_3   0.360311 0.942912 0.532419 -0.124914
C37   C     C_3   0.474870 0.085532 0.504116 -0.143106
C38   C     C_3   0.527396 0.912571 0.496168 -0.125881
H7    H     H_    0.457329 0.156558 0.508379 0.118024
H8    H     H_    0.546516 0.841383 0.492022 0.100671
H9    H     H_    0.758602 0.101201 0.441130 0.127178
H10   H     H_    0.245302 0.897072 0.560234 0.123655
C39   C     C_3   0.503601 0.998478 0.562367 -0.088553
C40   C     C_3   0.498209 0.999844 0.437923 -0.087147
C41   C     C_3   0.671419 0.968033 0.527040 -0.098248
C42   C     C_3   0.330655 0.030123 0.473332 -0.101939
H11   H     H_    0.812185 0.942720 0.549759 0.124610
H12   H     H_    0.189824 0.055099 0.450508 0.121024
C43   C     C_R   0.506076 0.276508 0.176825 -0.276128
C44   C     C_R   0.500420 0.721647 0.816680 -0.264504
C45   C     C_R   0.685060 0.415335 0.180051 0.077693
C46   C     C_R   0.459576 0.567781 0.799427 0.120019
C47   C     C_R   0.623568 0.324137 0.210913 0.134184
C48   C     C_R   0.479124 0.665970 0.773700 0.110544
C49   C     C_R   0.438726 0.322096 0.112921 0.037235
C50   C     C_R   0.500621 0.679956 0.884663 0.048171
C51   C     C_R   0.524176 0.408244 0.077671 0.036394
C52   C     C_R   0.514946 0.582872 0.910448 0.024385
C53   C     C_R   0.636614 0.457609 0.113348 0.038379
C54   C     C_R   0.476662 0.526345 0.868620 0.036671
C55   C     C_R   0.503871 0.446846 0.007964 0.089129
C56   C     C_R   0.554202 0.541051 0.978420 0.102917
C57   C     C_R   0.655137 0.589766 0.016161 -0.171239
C58   C     C_R   0.454735 0.392546 0.965874 -0.179691
C59   C     C_R   0.697020 0.548785 0.081779 -0.208107
C60   C     C_R   0.452932 0.430140 0.897887 -0.214374
H13   H     H_    0.226960 0.407265 0.377377 0.148272
H14   H     H_    0.072036 0.612027 0.630302 0.140544
H15   H     H_    0.775532 0.590656 0.107343 0.133948
H16   H     H_    0.430916 0.381672 0.869583 0.122955
N1    N     N_2   0.446362 0.732629 0.927150 -0.106124
H17   H     H_    0.505629 0.798293 0.916080 0.142410
C61   C     C_3   0.242547 0.726555 0.941395 -0.889990
H18   H     H_    0.215607 0.749031 0.985574 0.245866
H19   H     H_    0.188533 0.653747 0.952046 0.252832
H20   H     H_    0.160549 0.771258 0.899213 0.247818
N2    N     N_2   0.274253 0.286601 0.086735 -0.119218
H21   H     H_    0.256120 0.215520 0.100987 0.164478
C62   C     C_3   0.098162 0.334978 0.089877 -0.862582
H22   H     H_    0.981898 0.309001 0.063313 0.240891
H23   H     H_    0.116025 0.410846 0.066297 0.253392
H24   H     H_    0.055271 0.322747 0.141825 0.246088
N3    N     N_2   0.454144 0.710475 0.705328 -0.113093
H25   H     H_    0.353839 0.681254 0.680882 0.186201
C63   C     C_3   0.627242 0.744859 0.668829 -0.953407
H26   H     H_    0.642100 0.712969 0.628145 0.248623
H27   H     H_    0.758421 0.729790 0.700383 0.256804
H28   H     H_    0.617195 0.820676 0.647270 0.251141
N4    N     N_2   0.680879 0.278961 0.276941 -0.093913
H29   H     H_    0.814986 0.296191 0.291397 0.189063
C64   C     C_3   0.533241 0.268524 0.326011 -0.944875
H30   H     H_    0.576330 0.306225 0.361999 0.246019
H31   H     H_    0.514503 0.194036 0.352405 0.242436
H32   H     H_    0.392380 0.295662 0.303936 0.245660
N5    N     N_2   0.809234 0.460389 0.215365 -0.125633
H33   H     H_    0.922181 0.498693 0.190459 0.173604
C65   C     C_3   0.723823 0.494422 0.265476 -0.889868
H34   H     H_    0.721983 0.571534 0.249360 0.253640
H35   H     H_    0.809528 0.470547 0.311343 0.247843
H36   H     H_    0.575454 0.467441 0.276699 0.283207
N6    N     N_2   0.406170 0.512956 0.756660 -0.112418
H37   H     H_    0.333026 0.451668 0.775846 0.189047
C66   C     C_3   0.528604 0.511747 0.702611 -0.916129
H38   H     H_    0.583622 0.440572 0.709571 0.254284
H39   H     H_    0.651591 0.559876 0.698322 0.275471
H40   H     H_    0.444209 0.532040 0.656206 0.252605
H41   H     H_    0.714342 0.658534 0.994375 0.134637
H42   H     H_    0.431419 0.318799 0.983894 0.150726
H43   H     H_    0.012633 0.298368 0.773485 0.119199
H44   H     H_    0.114126 0.713239 0.231763 0.126419
N7    N     N_2   0.223875 0.532851 0.268223 -0.116864
H45   H     H_    0.166129 0.467723 0.273106 0.165031
C67   C     C_3   0.284288 0.581481 0.202158 -0.958801
H46   H     H_    0.352019 0.531828 0.179744 0.271189
H47   H     H_    0.391347 0.636607 0.203236 0.268941
H48   H     H_    0.159441 0.612311 0.170922 0.237124
N8    N     N_2   0.993998 0.486015 0.740939 -0.117170
H49   H     H_    0.959459 0.554813 0.722629 0.163160
C68   C     C_3   0.930809 0.444857 0.807838 -0.935239
H50   H     H_    0.912730 0.500108 0.832470 0.259157
H51   H     H_    0.039993 0.396179 0.836364 0.241491
H52   H     H_    0.791052 0.408123 0.808409 0.265088
N9    N     N_2   0.185529 0.308798 0.496371 -0.111322
H53   H     H_    0.332101 0.301418 0.494893 0.167271
C69   C     C_3   0.078359 0.243794 0.470074 -1.009679
H54   H     H_    0.094399 0.172725 0.503770 0.256486
H55   H     H_    0.132916 0.245366 0.420961 0.258893
H56   H     H_    0.922610 0.260096 0.466250 0.261887
N10   N     N_2   0.101451 0.704608 0.509052 -0.108707
H57   H     H_    0.243644 0.718698 0.517061 0.170382
C70   C     C_3   0.970826 0.766994 0.527015 -1.008295
H58   H     H_    0.994258 0.838465 0.494393 0.257925
H59   H     H_    0.996328 0.767167 0.578603 0.254501
H60   H     H_    0.819669 0.746166 0.520914 0.258228
N11   N     N_2   0.664372 0.089489 0.015210 -0.106926
H61   H     H_    0.572316 0.098352 0.975594 0.170737
C71   C     C_3   0.687969 0.172351 0.036022 -0.971624
H62   H     H_    0.549704 0.187650 0.054906 0.234789
H63   H     H_    0.734055 0.231638 0.994164 0.247518
H64   H     H_    0.794961 0.162648 0.076402 0.256553
N12   N     N_2   0.342598 0.923355 0.987518 -0.124437
H65   H     H_    0.349181 0.897511 0.948133 0.174168
C72   C     C_3   0.420006 0.864712 0.048893 -0.942489
H66   H     H_    0.550393 0.828956 0.040100 0.245507
H67   H     H_    0.315915 0.809432 0.073299 0.244157
H68   H     H_    0.457181 0.907429 0.082242 0.280652

loop_
_geom_bond_atom_site_label_1
_geom_bond_atom_site_label_2
_geom_bond_distance
_ccdc_geom_bond_type
C67   H48   1.109837 S    
C36   C38   1.549740 S    
N12   H65   1.021803 S    
C3    C43   1.470801 S    
N1    H17   1.027609 S    
C51   C55   1.435334 A    
C69   H55   1.111144 S    
N2    C62   1.447452 S    
N8    H49   1.025830 S    
O4    C2    1.295606 A    
V1    O19   1.722484 S    
C70   H58   1.109887 S    
C27   H5    1.104967 S    
C23   C25   1.398280 A    
N11   H61   1.030683 S    
C28   H6    1.107384 S    
C72   H66   1.107349 S    
C7    C9    1.458521 S    
C38   C41   1.549562 S    
N12   C72   1.451710 S    
O9    V1    1.995747 S    
C48   N3    1.425814 S    
C40   C42   1.541287 S    
C10   C16   1.389166 A    
O16   C6    1.293673 A    
C11   C13   1.403953 A    
C42   H12   1.109918 S    
O3    C1    1.297293 A    
C68   H51   1.109543 S    
C59   H15   1.080685 S    
C21   C24   1.422959 A    
C38   C40   1.538155 S    
C67   H46   1.108424 S    
C29   C31   1.542492 S    
O13   V3    1.713448 S    
C18   C22   1.440810 A    
C47   N4    1.428220 S    
C31   C33   1.532799 S    
O7    C3    1.298369 A    
C56   C57   1.407158 A    
C64   H32   1.112943 S    
C32   C34   1.539231 S    
C61   H18   1.105799 S    
C45   C47   1.402060 A    
O5    C7    1.288942 A    
O7    V1    2.026199 S    
C36   H10   1.108492 S    
C52   C56   1.426468 A    
O8    V2    2.026199 S    
C63   H27   1.112824 S    
C13   H44   1.081662 S    
C66   H40   1.109003 S    
C44   C50   1.402063 A    
C14   H43   1.081234 S    
N10   C70   1.447444 S    
O3    V1    1.995418 S    
C37   C39   1.535752 S    
C4    C44   1.480296 S    
C1    C40   1.501231 S    
C11   C19   1.426181 A    
C44   C48   1.410738 A    
C45   C53   1.417097 A    
C2    O12   1.303459 A    
C24   C26   1.397781 A    
C15   H2    1.077783 S    
C8    C10   1.464661 S    
N11   C71   1.442734 S    
C69   H56   1.112429 S    
C72   H67   1.108868 S    
C17   C19   1.419682 A    
C18   C20   1.427538 A    
C70   H59   1.110455 S    
C71   H62   1.101266 S    
O11   V3    1.998898 S    
C71   H64   1.108181 S    
C27   C29   1.557733 S    
O15   C5    1.294555 A    
O17   V3    2.035994 S    
C24   N10   1.424796 S    
C28   C30   1.561520 S    
C26   H14   1.076369 S    
C49   C51   1.422658 A    
V4    O20   2.164630 S    
C57   H41   1.081624 S    
C71   H63   1.110909 S    
O8    C4    1.300248 A    
C68   H52   1.109819 S    
C55   C56   1.414888 A    
C19   C25   1.395346 A    
C1    O11   1.301708 A    
C23   N9    1.419477 S    
C35   C37   1.548515 S    
C21   C22   1.428460 A    
C36   C39   1.536238 S    
O15   V3    2.000611 S    
C9    C13   1.389927 A    
C35   C40   1.537792 S    
C37   H7    1.105516 S    
N7    C67   1.451154 S    
C53   C59   1.402538 A    
C65   H35   1.107617 S    
C27   C32   1.545861 S    
C12   N8    1.442077 S    
N10   H57   1.031363 S    
C33   N11   1.439990 S    
N2    H21   1.029398 S    
C63   H28   1.102208 S    
C36   C42   1.548099 S    
C29   C34   1.537759 S    
O10   V2    1.995747 S    
O1    V3    2.037711 S    
C30   C33   1.537353 S    
C61   H19   1.112182 S    
C9    C15   1.392799 A    
C58   C60   1.394168 A    
C41   H11   1.109947 S    
C64   H30   1.111164 S    
N4    C64   1.450697 S    
C11   N7    1.435520 S    
O14   V4    1.713447 S    
C38   H8    1.108497 S    
C52   C54   1.416010 A    
O18   V4    2.035994 S    
C46   C48   1.423857 A    
C29   H3    1.109858 S    
N5    H33   1.026496 S    
C58   H42   1.074075 S    
C30   C32   1.548559 S    
C62   H24   1.112062 S    
N9    C69   1.450207 S    
C39   C41   1.542803 S    
N6    H37   1.024565 S    
C43   C49   1.412829 A    
C70   H60   1.109936 S    
N5    C65   1.447024 S    
N3    H25   1.030718 S    
V2    O20   1.722485 S    
C72   H68   1.110751 S    
C20   C26   1.401032 A    
C67   H47   1.110633 S    
C22   C23   1.431191 A    
C6    C32   1.502925 S    
O16   V4    2.000606 S    
C45   N5    1.423321 S    
C10   C14   1.388740 A    
C16   C18   1.410614 A    
N6    C66   1.446234 S    
C35   C41   1.547251 S    
N4    H29   1.031381 S    
C54   C60   1.408448 A    
C65   H34   1.110246 S    
O5    V1    2.032136 S    
C28   C31   1.544165 S    
O17   C7    1.300432 A    
C16   H1    1.073638 S    
O6    V2    2.032136 S    
O10   C6    1.304149 A    
O18   C8    1.298622 A    
C46   C54   1.428859 A    
N1    C61   1.451708 S    
O2    V4    2.037713 S    
C49   N2    1.428261 S    
C34   N12   1.440205 S    
C62   H23   1.111733 S    
C46   N6    1.434036 S    
C65   H36   1.107892 S    
V3    O19   2.164631 S    
C35   H9    1.110200 S    
N7    H45   1.029902 S    
C12   C14   1.408403 A    
C43   C47   1.403746 A    
C27   C33   1.537068 S    
C66   H38   1.110355 S    
C28   C34   1.534773 S    
C60   H16   1.078182 S    
C50   C52   1.408096 A    
O9    C5    1.298976 A    
C2    C39   1.501687 S    
O13   V1    2.177779 S    
C30   H4    1.110255 S    
C61   H20   1.111065 S    
O14   V2    2.177778 S    
N8    C68   1.451796 S    
O2    C4    1.299309 A    
C64   H31   1.105457 S    
C12   C20   1.435966 A    
C25   H13   1.080775 S    
O4    V2    1.995421 S    
O6    C8    1.293678 A    
C5    C31   1.493553 S    
O1    C3    1.296582 A    
C15   C17   1.411156 A    
C57   C59   1.383849 A    
C62   H22   1.109533 S    
C69   H54   1.108645 S    
C66   H39   1.099911 S    
C51   C53   1.423995 A    
C17   C21   1.433893 A    
C37   C42   1.548835 S    
N3    C63   1.449402 S    
N9    H53   1.030397 S    
C68   H50   1.111281 S    
C50   N1    1.420237 S    
O12   V4    1.998898 S    
C63   H26   1.110129 S    
C55   C58   1.409678 A    
