data_mof_unit_62173.cif
_audit_creation_date              2012-10-26T19:37:44-0400
_audit_creation_method            fapswitch 2.2
_symmetry_space_group_name_H-M    P1
_symmetry_Int_Tables_number       1
_space_group_crystal_system       triclinic
_cell_length_a                    11.706297
_cell_length_b                    15.857741
_cell_length_c                    17.117015
_cell_angle_alpha                 95.673878
_cell_angle_beta                  91.617784
_cell_angle_gamma                 91.505051
_cell_volume                      3159.34775483

loop_
_atom_site_label
_atom_site_type_symbol
_atom_type_description
_atom_site_fract_x
_atom_site_fract_y
_atom_site_fract_z
_atom_type_partial_charge
C1    C     C_R   0.499239 0.489935 0.348678 0.561428
C2    C     C_R   0.475066 0.108560 0.482871 0.192807
C3    C     C_R   0.595862 0.846945 0.565415 -0.130672
C4    C     C_R   0.404138 0.153055 0.434585 -0.130672
C5    C     C_R   0.589015 0.757539 0.560842 0.014637
C6    C     C_R   0.410985 0.242461 0.439158 0.014638
C7    C     C_R   0.283930 0.500643 0.499966 0.560992
C8    C     C_R   0.716069 0.499357 0.500034 0.560993
C9    C     C_1   0.162343 0.501605 0.500015 0.010315
C10   C     C_1   0.837657 0.498395 0.499985 0.010315
C11   C     C_1   0.059885 0.500816 0.500009 -0.011083
C12   C     C_R   0.500761 0.510065 0.651322 0.561429
C13   C     C_1   0.940115 0.499184 0.499991 -0.011083
C14   C     C_R   0.498499 0.484656 0.262705 -0.011430
C15   C     C_R   0.501501 0.515344 0.737295 -0.011429
C16   C     C_R   0.511845 0.558361 0.224643 -0.143833
C17   C     C_R   0.488155 0.441639 0.775357 -0.143833
C18   C     C_R   0.510715 0.553426 0.143156 -0.092721
C19   C     C_R   0.489285 0.446574 0.856843 -0.092721
C20   C     C_R   0.496210 0.474142 0.098047 0.238754
C21   C     C_R   0.503790 0.525858 0.901953 0.238754
C22   C     C_R   0.483159 0.400467 0.136297 0.109201
C23   C     C_R   0.484326 0.405759 0.218030 -0.124285
C24   C     C_R   0.516841 0.599533 0.863703 0.109201
C25   C     C_R   0.515674 0.594241 0.781970 -0.124285
C26   C     C_R   0.443166 0.754911 0.461883 0.213961
C27   C     C_R   0.556834 0.245089 0.538117 0.213961
C28   C     C_R   0.448098 0.843606 0.465080 -0.084562
C29   C     C_R   0.551902 0.156394 0.534920 -0.084562
C30   C     C_R   0.524934 0.891440 0.517129 0.192808
Cu1   Cu    Cu3+1 0.494550 0.415220 0.496180 1.003817
Cu2   Cu    Cu3+1 0.505450 0.584780 0.503820 1.003817
H1    H     H_    0.476517 0.380041 0.742266 0.166991
H2    H     H_    0.343571 0.118651 0.393424 0.131123
H3    H     H_    0.644339 0.724585 0.598555 0.137257
H4    H     H_    0.355661 0.275415 0.401445 0.137257
H5    H     H_    0.523483 0.619959 0.257734 0.166991
H6    H     H_    0.478721 0.388238 0.884139 0.173802
H7    H     H_    0.521279 0.611762 0.115861 0.173802
H8    H     H_    0.473765 0.348053 0.246352 0.155792
H9    H     H_    0.526235 0.651947 0.753648 0.155792
H10   H     H_    0.608629 0.125392 0.573342 0.155603
H11   H     H_    0.391371 0.874608 0.426658 0.155603
H12   H     H_    0.656429 0.881349 0.606576 0.131123
I1    I     I_    0.461128 0.279492 0.072287 -0.293440
I2    I     I_    0.538872 0.720508 0.927713 -0.293440
I3    I     I_    0.680324 0.303704 0.620832 -0.315765
I4    I     I_    0.319676 0.696296 0.379168 -0.315765
N1    N     N_2   0.494325 0.465844 0.014785 -0.209947
N2    N     N_2   0.505675 0.534156 0.985215 -0.209947
N3    N     N_R   0.513630 0.712130 0.509560 -0.221727
N4    N     N_R   0.486370 0.287870 0.490440 -0.221728
N5    N     N_2   0.533225 0.982676 0.522636 -0.225517
N6    N     N_2   0.466775 0.017324 0.477364 -0.225517
O1    O     O_R   0.494910 0.420530 0.382500 -0.513095
O2    O     O_R   0.505090 0.579470 0.617500 -0.513095
O3    O     O_R   0.504100 0.563720 0.388950 -0.479021
O4    O     O_R   0.495900 0.436280 0.611050 -0.479021
O5    O     O_R   0.332600 0.428410 0.496780 -0.504807
O6    O     O_R   0.667400 0.571590 0.503220 -0.504806
O7    O     O_R   0.341800 0.571600 0.503230 -0.464577
O8    O     O_R   0.658200 0.428400 0.496770 -0.464577

loop_
_geom_bond_atom_site_label_1
_geom_bond_atom_site_label_2
_ccdc_geom_bond_type
C14   C23   A    
C3    C30   A    
C2    C4    A    
C18   H7    S    
C10   C13   T    
Cu2   N3    S    
C20   N1    S    
C19   H6    S    
C1    O3    A    
C29   H10   S    
C27   C29   A    
C11   C13   S    
C16   H5    S    
C28   H11   S    
C26   C28   A    
Cu1   Cu2   S    
C12   C15   S    
C26   I4    S    
Cu1   N4    S    
C3    C5    A    
C24   I2    S    
C28   C30   A    
C1    O1    A    
C24   C25   A    
C12   O4    A    
C6    N4    A    
C26   N3    A    
C8    O6    A    
C9    C11   T    
Cu1   O8    S    
C12   O2    A    
C17   H1    S    
Cu2   O3    S    
C2    C29   A    
C5    H3    S    
Cu1   O4    S    
C7    O5    A    
C21   N2    S    
C17   C19   A    
C6    H4    S    
Cu2   O7    S    
C18   C20   A    
C30   N5    S    
C4    H2    S    
C3    H12   S    
C15   C25   A    
C4    C6    A    
Cu2   O6    S    
C27   I3    S    
C23   H8    S    
C7    C9    S    
C22   I1    S    
C27   N4    A    
C16   C18   A    
N1    N2    D    
C2    N6    S    
C21   C24   A    
C25   H9    S    
C15   C17   A    
C22   C23   A    
C7    O7    A    
C1    C14   S    
Cu1   O1    S    
C14   C16   A    
N5    N6    D    
Cu2   O2    S    
C8    C10   S    
C5    N3    A    
C8    O8    A    
C20   C22   A    
C19   C21   A    
Cu1   O5    S    
