data_mof_unit_24680.cif
_audit_creation_date              2012-12-10T20:43:21-0500
_audit_creation_method            fapswitch 2.2
_symmetry_space_group_name_H-M    P1
_symmetry_Int_Tables_number       1
_space_group_crystal_system       triclinic
_cell_length_a                    15.806969
_cell_length_b                    10.586741
_cell_length_c                    9.914089
_cell_angle_alpha                 89.911461
_cell_angle_beta                  89.053081
_cell_angle_gamma                 89.983015
_cell_volume                      1658.83754052

loop_
_atom_site_label
_atom_site_type_symbol
_atom_type_description
_atom_site_fract_x
_atom_site_fract_y
_atom_site_fract_z
_atom_type_partial_charge
C1    C     C_R   0.512322 0.261857 0.499323 0.878417
C2    C     C_R   0.042862 0.556163 0.610858 -0.222072
C3    C     C_1   0.823905 0.499343 0.498668 -0.057057
C4    C     C_1   0.176091 0.499148 0.504504 -0.066356
C5    C     C_1   0.251031 0.499539 0.503280 -0.189261
C6    C     C_1   0.748979 0.499463 0.497408 -0.157281
C7    C     C_R   0.547624 0.064734 0.615017 0.091141
C8    C     C_R   0.541777 0.133445 0.496243 -0.161766
C9    C     C_R   0.556643 0.069274 0.372967 0.036407
C10   C     C_R   0.533459 0.941284 0.369798 -0.041969
C11   C     C_R   0.523100 0.874341 0.494142 -0.208283
C12   C     C_R   0.339489 0.499900 0.500974 0.914467
C13   C     C_R   0.544342 0.935992 0.613237 0.073527
C14   C     C_3   0.507808 0.930574 0.753340 -0.196370
C15   C     C_3   0.507302 0.074557 0.751816 -0.503498
C16   C     C_R   0.434783 0.446588 0.073153 0.104643
C17   C     C_R   0.566574 0.547231 0.068688 0.014001
C18   C     C_R   0.566905 0.544903 0.925441 -0.137720
C19   C     C_R   0.434892 0.445344 0.931058 0.097888
C20   C     C_3   0.341981 0.477251 0.927522 -0.005575
C21   C     C_3   0.342889 0.480936 0.082813 -0.312929
C22   C     C_R   0.502642 0.741447 0.498978 0.891855
C23   C     C_R   0.660524 0.499929 0.499071 0.889571
C24   C     C_R   0.954979 0.556785 0.610759 0.010475
C25   C     C_R   0.913004 0.499821 0.502742 0.115403
C26   C     C_R   0.957894 0.442426 0.396988 -0.192409
C27   C     C_R   0.045472 0.441767 0.398036 -0.185817
C28   C     C_R   0.087215 0.498682 0.504762 0.157231
H1    H     H_    0.076587 0.600544 0.692556 0.142107
H2    H     H_    0.549630 0.120241 0.825813 0.199416
H3    H     H_    0.619850 0.584098 0.868873 0.169127
H4    H     H_    0.305205 0.405498 0.133686 0.153291
H5    H     H_    0.925186 0.398550 0.314001 0.150283
H6    H     H_    0.080563 0.397595 0.315917 0.139741
H7    H     H_    0.444189 0.886260 0.761192 0.176303
H8    H     H_    0.442240 0.114407 0.748823 0.199477
N1    N     N_R   0.499440 0.499140 0.142800 -0.126387
N2    N     N_R   0.499440 0.499180 0.857150 -0.117877
O1    O     O_R   0.500010 0.316790 0.614690 -0.615341
O2    O     O_R   0.500000 0.316760 0.385350 -0.633479
O3    O     O_R   0.378030 0.499990 0.614640 -0.621454
O4    O     O_R   0.378020 0.499950 0.385300 -0.608579
O5    O     O_R   0.500000 0.683240 0.614650 -0.610125
O6    O     O_R   0.499990 0.683210 0.385310 -0.602206
O7    O     O_R   0.621980 0.500050 0.614700 -0.619359
O8    O     O_R   0.621970 0.500010 0.385360 -0.626410
Zn1   Zn    Zn3+2 0.500010 0.500020 0.653130 0.950258
Zn2   Zn    Zn3+2 0.499990 0.499980 0.346870 0.956545
C29   C     C_1   0.635243 0.610608 0.133461 0.258583
N3    N     N_1   0.690748 0.662796 0.183850 -0.208073
C30   C     C_1   0.325616 0.600453 0.861051 0.269861
N4    N     N_1   0.312679 0.696669 0.809738 -0.235173
C31   C     C_3   0.288575 0.367055 0.871750 -0.412938
C32   C     C_3   0.192999 0.391881 0.885271 -0.352839
C33   C     C_3   0.142037 0.283699 0.825724 -0.856738
H9    H     H_    0.157838 0.272303 0.716809 0.264943
H10   H     H_    0.155660 0.194089 0.879602 0.261515
H11   H     H_    0.073411 0.304662 0.836366 0.254294
H12   H     H_    0.174830 0.403114 0.993348 0.219693
H13   H     H_    0.176394 0.480162 0.831274 0.227815
H14   H     H_    0.305278 0.350447 0.764234 0.228487
H15   H     H_    0.303951 0.278274 0.926490 0.193219
C34   C     C_1   0.327195 0.606828 0.142869 0.281556
N5    N     N_1   0.314524 0.705209 0.189784 -0.199178
C35   C     C_1   0.909324 0.616003 0.721251 0.152966
N6    N     N_1   0.872697 0.663345 0.809683 -0.195857
C36   C     C_3   0.594033 0.133804 0.247488 -0.387353
C37   C     C_3   0.675598 0.068099 0.198260 -0.356837
C38   C     C_3   0.713585 0.135107 0.074985 -0.854147
H16   H     H_    0.668079 0.134438 0.990868 0.260101
H17   H     H_    0.729815 0.234356 0.100000 0.256115
H18   H     H_    0.772154 0.085524 0.041509 0.260598
H19   H     H_    0.722689 0.068691 0.280358 0.227312
H20   H     H_    0.663166 0.968371 0.170767 0.249113
H21   H     H_    0.546482 0.135014 0.166095 0.205041
H22   H     H_    0.612777 0.232490 0.268896 0.231458
C39   C     C_1   0.509173 0.888609 0.241249 0.228359
N7    N     N_1   0.488783 0.847144 0.138927 -0.199525
C40   C     C_1   0.570593 0.879179 0.846439 0.259512
N8    N     N_1   0.621165 0.840290 0.918569 -0.223875

loop_
_geom_bond_atom_site_label_1
_geom_bond_atom_site_label_2
_ccdc_geom_bond_type
C8    C9    A    
C33   H9    S    
C16   C21   S    
C23   O7    A    
C1    C8    S    
C19   C20   S    
C3    C6    T    
C7    C8    A    
C32   H13   S    
C31   C32   S    
C26   C27   A    
C2    H1    S    
C20   C30   S    
C37   H20   S    
C38   H17   S    
C12   O4    A    
C1    O2    A    
C31   H14   S    
C22   O6    A    
C37   C38   S    
C9    C10   A    
C16   N1    A    
C37   H19   S    
C7    C15   S    
C23   O8    A    
C13   C14   S    
C4    C28   S    
C10   C39   S    
C32   H12   S    
O7    Zn1   S    
C27   H6    S    
C21   H4    S    
O8    Zn2   S    
C30   N4    T    
C3    C25   S    
C24   C25   A    
C5    C12   S    
C17   C29   S    
C14   H7    S    
C20   C31   S    
C17   N1    A    
C25   C26   A    
C39   N7    T    
C34   N5    T    
C38   H18   S    
C36   C37   S    
C9    C36   S    
C12   O3    A    
C19   N2    A    
C31   H15   S    
C26   H5    S    
C22   O5    A    
C17   C18   A    
O3    Zn1   S    
O4    Zn2   S    
C14   C40   S    
N1    Zn2   S    
N2    Zn1   S    
C24   C35   S    
C29   N3    T    
C33   H10   S    
C2    C24   A    
C36   H21   S    
C15   H8    S    
C15   H2    S    
O1    Zn1   S    
O2    Zn2   S    
C32   C33   S    
C4    C5    T    
C36   H22   S    
C11   C22   S    
C18   N2    A    
C11   C13   A    
C16   C19   A    
C6    C23   S    
C38   H16   S    
C21   C34   S    
C10   C11   A    
C1    O1    A    
C40   N8    T    
C7    C13   A    
C20   C21   S    
C35   N6    T    
C33   H11   S    
C27   C28   A    
C14   C15   S    
C2    C28   A    
C18   H3    S    
O5    Zn1   S    
O6    Zn2   S    
