data_mof_unit_61786.cif
_audit_creation_date              2013-03-05T15:41:23-0500
_audit_creation_method            fapswitch 2.2
_symmetry_space_group_name_H-M    P1
_symmetry_Int_Tables_number       1
_space_group_crystal_system       triclinic
_cell_length_a                    18.516683
_cell_length_b                    18.517005
_cell_length_c                    34.441818
_cell_angle_alpha                 90.001239
_cell_angle_beta                  90.000683
_cell_angle_gamma                 90.011011
_cell_volume                      11809.1868651

loop_
_atom_site_label
_atom_site_type_symbol
_atom_site_description
_atom_site_fract_x
_atom_site_fract_y
_atom_site_fract_z
_atom_type_partial_charge
Zn1   Zn    Zn3+2 0.414160 0.000000 0.467250 0.960590
Zn2   Zn    Zn3+2 0.000000 0.414160 0.467250 0.960475
Zn3   Zn    Zn3+2 0.585840 0.000000 0.467250 0.960588
Zn4   Zn    Zn3+2 1.000000 0.585840 0.467250 0.960475
Zn5   Zn    Zn3+2 0.914160 0.500000 0.967250 0.960599
Zn6   Zn    Zn3+2 0.500000 0.914160 0.967250 0.960503
Zn7   Zn    Zn3+2 0.085840 0.500000 0.967250 0.960485
Zn8   Zn    Zn3+2 0.500000 0.085840 0.967250 0.960573
Zn9   Zn    Zn3+2 0.500000 0.085780 0.532750 0.968084
Zn10  Zn    Zn3+2 0.914220 0.500000 0.532750 0.968069
Zn11  Zn    Zn3+2 0.500000 0.914220 0.532750 0.968080
Zn12  Zn    Zn3+2 0.085780 0.500000 0.532750 0.968068
Zn13  Zn    Zn3+2 1.000000 0.585780 0.032750 0.967966
Zn14  Zn    Zn3+2 0.414220 0.000000 0.032750 0.968101
Zn15  Zn    Zn3+2 1.000000 0.414220 0.032750 0.968175
Zn16  Zn    Zn3+2 0.585780 0.000000 0.032750 0.968042
O1    O     O_3   0.500000 0.000000 0.500000 -0.488275
O2    O     O_3   1.000000 0.500000 0.500000 -0.488228
O3    O     O_3   1.000000 0.500000 0.000000 -0.488255
O4    O     O_3   0.500000 0.000000 0.000000 -0.488250
O5    O     O_R   0.500000 0.939870 0.587440 -0.642405
O6    O     O_R   0.060130 0.500000 0.587440 -0.642403
O7    O     O_R   0.500000 0.060130 0.587440 -0.642408
O8    O     O_R   0.939870 0.500000 0.587440 -0.642398
O9    O     O_R   0.000000 0.439870 0.087440 -0.642697
O10   O     O_R   0.560130 0.000000 0.087440 -0.642440
O11   O     O_R   1.000000 0.560130 0.087440 -0.642123
O12   O     O_R   0.439870 0.000000 0.087440 -0.642389
O13   O     O_R   0.439940 0.000000 0.412560 -0.638622
O14   O     O_R   0.000000 0.439940 0.412560 -0.638693
O15   O     O_R   0.560060 0.000000 0.412560 -0.638619
O16   O     O_R   1.000000 0.560060 0.412560 -0.638685
O17   O     O_R   0.939940 0.500000 0.912560 -0.638576
O18   O     O_R   0.500000 0.939940 0.912560 -0.638918
O19   O     O_R   0.060060 0.500000 0.912560 -0.638736
O20   O     O_R   0.500000 0.060060 0.912560 -0.638391
O21   O     O_R   0.415450 0.144560 0.522930 -0.642708
O22   O     O_R   0.855440 0.415450 0.522930 -0.645369
O23   O     O_R   0.584550 0.855440 0.522930 -0.642707
O24   O     O_R   0.144560 0.584550 0.522930 -0.645372
O25   O     O_R   0.584550 0.144560 0.522930 -0.645536
O26   O     O_R   0.144560 0.415450 0.522930 -0.642930
O27   O     O_R   0.415450 0.855440 0.522930 -0.645533
O28   O     O_R   0.855440 0.584550 0.522930 -0.642929
O29   O     O_R   0.915450 0.644560 0.022930 -0.642982
O30   O     O_R   0.355440 0.915450 0.022930 -0.645594
O31   O     O_R   0.084550 0.355440 0.022930 -0.642652
O32   O     O_R   0.644560 0.084550 0.022930 -0.645320
O33   O     O_R   0.084550 0.644560 0.022930 -0.645642
O34   O     O_R   0.644560 0.915450 0.022930 -0.642993
O35   O     O_R   0.915450 0.355440 0.022930 -0.645261
O36   O     O_R   0.355440 0.084550 0.022930 -0.642652
O37   O     O_R   0.644640 0.915430 0.477080 -0.642070
O38   O     O_R   0.084570 0.644640 0.477080 -0.643611
O39   O     O_R   0.355360 0.084570 0.477080 -0.642069
O40   O     O_R   0.915430 0.355360 0.477080 -0.643614
O41   O     O_R   0.355360 0.915430 0.477080 -0.643800
O42   O     O_R   0.915430 0.644640 0.477080 -0.642293
O43   O     O_R   0.644640 0.084570 0.477080 -0.643797
O44   O     O_R   0.084570 0.355360 0.477080 -0.642294
O45   O     O_R   0.144640 0.415430 0.977080 -0.642315
O46   O     O_R   0.584570 0.144640 0.977080 -0.643852
O47   O     O_R   0.855360 0.584570 0.977080 -0.642051
O48   O     O_R   0.415430 0.855360 0.977080 -0.643546
O49   O     O_R   0.855360 0.415430 0.977080 -0.643815
O50   O     O_R   0.415430 0.144640 0.977080 -0.642304
O51   O     O_R   0.144640 0.584570 0.977080 -0.643597
O52   O     O_R   0.584570 0.855360 0.977080 -0.642047
C1    C     C_R   0.500000 0.000001 0.605732 0.810155
C2    C     C_R   0.000000 0.500000 0.605732 0.810155
C3    C     C_R   1.000000 0.500001 0.105732 0.810158
C4    C     C_R   0.500000 0.999999 0.105732 0.810179
C5    C     C_R   0.500000 1.000000 0.394207 0.827280
C6    C     C_R   1.000000 0.499999 0.394207 0.826998
C7    C     C_R   0.999999 0.500000 0.894207 0.827145
C8    C     C_R   0.500000 0.999999 0.894207 0.827131
C9    C     C_R   0.361650 0.138713 0.499922 0.853199
C10   C     C_R   0.861256 0.361682 0.499896 0.849791
C11   C     C_R   0.638350 0.861287 0.499922 0.853185
C12   C     C_R   0.138744 0.638318 0.499897 0.849788
C13   C     C_R   0.638631 0.138432 0.500130 0.849475
C14   C     C_R   0.138410 0.361346 0.500152 0.853062
C15   C     C_R   0.361369 0.861569 0.500130 0.849471
C16   C     C_R   0.861591 0.638653 0.500152 0.853048
C17   C     C_R   0.861650 0.638714 0.999922 0.853054
C18   C     C_R   0.361568 0.861369 0.000130 0.849544
C19   C     C_R   0.138654 0.361591 0.000152 0.853209
C20   C     C_R   0.638744 0.138318 0.999897 0.849704
C21   C     C_R   0.138318 0.638744 0.999896 0.849649
C22   C     C_R   0.638410 0.861346 0.000152 0.853108
C23   C     C_R   0.861369 0.361569 0.000130 0.849630
C24   C     C_R   0.361287 0.138349 0.999922 0.853124
C25   C     C_2   0.192332 0.751501 0.477709 -0.162578
C26   C     C_2   0.248124 0.191959 0.478020 -0.160443
C27   C     C_2   0.807668 0.248495 0.477709 -0.162587
C28   C     C_2   0.751875 0.808040 0.478021 -0.160447
C29   C     C_2   0.806830 0.750661 0.477106 -0.160863
C30   C     C_2   0.750240 0.193578 0.476791 -0.162551
C31   C     C_2   0.193170 0.249338 0.477105 -0.160865
C32   C     C_2   0.249759 0.806419 0.476790 -0.162560
C33   C     C_2   0.692331 0.251503 0.977710 -0.162766
C34   C     C_2   0.748125 0.691960 0.978020 -0.160416
C35   C     C_2   0.306420 0.749760 0.976790 -0.162357
C36   C     C_2   0.250663 0.306828 0.977106 -0.160861
C37   C     C_2   0.308041 0.251874 0.978021 -0.160627
C38   C     C_2   0.251503 0.692333 0.977708 -0.162555
C39   C     C_2   0.693171 0.749339 0.977104 -0.160668
C40   C     C_2   0.749758 0.306421 0.976791 -0.162550
C41   C     C_2   0.196168 0.691576 0.499486 -0.295003
C42   C     C_2   0.308315 0.196056 0.499576 -0.293346
C43   C     C_2   0.803832 0.308423 0.499485 -0.295000
C44   C     C_2   0.691685 0.803945 0.499576 -0.293341
C45   C     C_2   0.806709 0.694450 0.501668 -0.293657
C46   C     C_2   0.694421 0.193330 0.501610 -0.294137
C47   C     C_2   0.193291 0.305549 0.501668 -0.293661
C48   C     C_2   0.305578 0.806671 0.501610 -0.294132
C49   C     C_2   0.696168 0.191576 0.999486 -0.294949
C50   C     C_2   0.808315 0.696056 0.999575 -0.293402
C51   C     C_2   0.306670 0.805579 0.001610 -0.294153
C52   C     C_2   0.194452 0.306711 0.001668 -0.293626
C53   C     C_2   0.303944 0.191685 0.999576 -0.293290
C54   C     C_2   0.191576 0.696168 0.999485 -0.295048
C55   C     C_2   0.693291 0.805549 0.001668 -0.293678
C56   C     C_2   0.805578 0.306671 0.001610 -0.294110
H1    H     H_    0.145643 0.760879 0.459285 0.175485
H2    H     H_    0.238552 0.145080 0.459765 0.176438
H3    H     H_    0.854357 0.239115 0.459286 0.175483
H4    H     H_    0.761447 0.854918 0.459766 0.176439
H5    H     H_    0.849337 0.755857 0.455545 0.176612
H6    H     H_    0.755090 0.151388 0.455027 0.175072
H7    H     H_    0.150663 0.244142 0.455543 0.176610
H8    H     H_    0.244909 0.848607 0.455025 0.175070
H9    H     H_    0.645641 0.260881 0.959287 0.175337
H10   H     H_    0.738553 0.645080 0.959764 0.176464
H11   H     H_    0.348609 0.744911 0.955025 0.175180
H12   H     H_    0.255859 0.349333 0.955544 0.176595
H13   H     H_    0.354921 0.261444 0.959766 0.176280
H14   H     H_    0.260883 0.645644 0.959286 0.175508
H15   H     H_    0.650666 0.744144 0.955542 0.176731
H16   H     H_    0.744907 0.348608 0.955026 0.175059
H17   H     H_    0.242525 0.679126 0.517343 0.150528
H18   H     H_    0.320902 0.242537 0.517313 0.151456
H19   H     H_    0.757475 0.320875 0.517342 0.150531
H20   H     H_    0.679099 0.757464 0.517313 0.151457
H21   H     H_    0.766591 0.688229 0.524217 0.151699
H22   H     H_    0.688530 0.233147 0.524339 0.149732
H23   H     H_    0.233408 0.311770 0.524218 0.151699
H24   H     H_    0.311470 0.766857 0.524339 0.149734
H25   H     H_    0.742526 0.179126 0.017342 0.150560
H26   H     H_    0.820903 0.742538 0.017313 0.151406
H27   H     H_    0.266856 0.811469 0.024340 0.149707
H28   H     H_    0.188231 0.266595 0.024218 0.151721
H29   H     H_    0.257462 0.179099 0.017314 0.151488
H30   H     H_    0.179124 0.742526 0.017341 0.150481
H31   H     H_    0.733407 0.811769 0.024219 0.151674
H32   H     H_    0.811469 0.266858 0.024340 0.149752
C57   C     C_R   0.050187 0.542172 0.668105 -0.257792
C58   C     C_R   0.457877 0.949772 0.668103 -0.257747
C59   C     C_R   0.949814 0.457826 0.668103 -0.257783
C60   C     C_R   0.542119 0.050230 0.668106 -0.257748
C61   C     C_R   0.550246 0.042100 0.168106 -0.257720
C62   C     C_R   0.957877 0.449773 0.168103 -0.257805
C63   C     C_R   0.449757 0.957895 0.168104 -0.257818
C64   C     C_R   0.042120 0.550230 0.168105 -0.257730
C65   C     C_R   0.000001 0.499999 0.647948 -0.029170
C66   C     C_R   0.499998 0.000002 0.647948 -0.029039
C67   C     C_R   0.500001 0.999998 0.147948 -0.029144
C68   C     C_R   0.999999 0.500001 0.147948 -0.029123
C69   C     C_R   0.950429 0.456498 0.708618 0.121276
C70   C     C_R   0.543449 0.049615 0.708620 0.121299
C71   C     C_R   0.049570 0.543501 0.708620 0.121276
C72   C     C_R   0.456549 0.950385 0.708618 0.121303
C73   C     C_R   0.450370 0.956566 0.208618 0.121321
C74   C     C_R   0.043449 0.549615 0.208620 0.121249
C75   C     C_R   0.549631 0.043429 0.208620 0.121244
C76   C     C_R   0.956549 0.450387 0.208618 0.121306
C77   C     C_R   0.999999 0.500000 0.729163 0.089621
C78   C     C_R   0.499999 0.999999 0.729163 0.089614
C79   C     C_R   0.500001 0.999998 0.229163 0.089654
C80   C     C_R   0.999999 0.500000 0.229163 0.089595
C81   C     C_R   0.902332 0.412339 0.728818 -0.226513
C82   C     C_R   0.587559 0.097756 0.728822 -0.226504
C83   C     C_R   0.097666 0.587662 0.728822 -0.226492
C84   C     C_R   0.412440 0.902242 0.728818 -0.226515
C85   C     C_R   0.402211 0.912475 0.228818 -0.226529
C86   C     C_R   0.087559 0.597756 0.228822 -0.226483
C87   C     C_R   0.597790 0.087521 0.228822 -0.226501
C88   C     C_R   0.912439 0.402245 0.228818 -0.226521
C89   C     C_R   0.403846 0.910111 0.269159 -0.194005
C90   C     C_R   0.089924 0.596118 0.269162 -0.194093
C91   C     C_R   0.596154 0.089886 0.269162 -0.194008
C92   C     C_R   0.910076 0.403880 0.269159 -0.194083
C93   C     C_R   0.903967 0.409980 0.769158 -0.194031
C94   C     C_R   0.589923 0.096118 0.769162 -0.194025
C95   C     C_R   0.096029 0.590022 0.769162 -0.194052
C96   C     C_R   0.410078 0.903877 0.769158 -0.194054
C97   C     C_R   0.452968 0.953036 0.290436 0.097832
C98   C     C_R   0.046980 0.547013 0.290438 0.097856
C99   C     C_R   0.547031 0.046961 0.290438 0.097837
C100  C     C_R   0.953020 0.452985 0.290436 0.097854
C101  C     C_R   0.953026 0.452977 0.790436 0.097847
C102  C     C_R   0.546980 0.047013 0.790438 0.097874
C103  C     C_R   0.046969 0.547025 0.790438 0.097847
C104  C     C_R   0.453022 0.952982 0.790436 0.097817
C105  C     C_R   0.500000 0.999999 0.270139 -0.033882
C106  C     C_R   1.000000 0.499999 0.270139 -0.033757
C107  C     C_R   0.999998 0.500000 0.770140 -0.033835
C108  C     C_R   0.500000 0.999998 0.770139 -0.033819
C109  C     C_R   0.456936 0.949084 0.331304 0.091775
C110  C     C_R   0.050930 0.543044 0.331306 0.091175
C111  C     C_R   0.543062 0.050915 0.331306 0.091774
C112  C     C_R   0.949071 0.456952 0.331304 0.091175
C113  C     C_R   0.956990 0.449038 0.831305 0.091807
C114  C     C_R   0.550930 0.043043 0.831306 0.091141
C115  C     C_R   0.043004 0.550964 0.831307 0.091152
C116  C     C_R   0.449072 0.956949 0.831304 0.091812
C117  C     C_R   0.499999 1.000000 0.351639 -0.052767
C118  C     C_R   0.000001 0.499998 0.351639 -0.052833
C119  C     C_R   0.999998 0.500000 0.851640 -0.052745
C120  C     C_R   0.500001 0.999997 0.851639 -0.052789
H33   H     H_    0.088525 0.575130 0.652183 0.151829
H34   H     H_    0.424958 0.911401 0.652180 0.151668
H35   H     H_    0.911476 0.424868 0.652180 0.151830
H36   H     H_    0.575039 0.088602 0.652184 0.151668
H37   H     H_    0.588629 0.075006 0.152184 0.151884
H38   H     H_    0.924958 0.411402 0.152181 0.151677
H39   H     H_    0.411373 0.924989 0.152181 0.151682
H40   H     H_    0.075040 0.588601 0.152184 0.151860
H41   H     H_    0.863776 0.378926 0.713382 0.146572
H42   H     H_    0.620930 0.136348 0.713388 0.146527
H43   H     H_    0.136222 0.621074 0.713387 0.146569
H44   H     H_    0.379070 0.863651 0.713382 0.146526
H45   H     H_    0.363608 0.879119 0.213383 0.146527
H46   H     H_    0.120931 0.636347 0.213388 0.146577
H47   H     H_    0.636394 0.120877 0.213387 0.146570
H48   H     H_    0.879068 0.363654 0.213382 0.146527
H49   H     H_    0.365357 0.875006 0.283348 0.158140
H50   H     H_    0.125045 0.634593 0.283353 0.158147
H51   H     H_    0.634643 0.124991 0.283353 0.158139
H52   H     H_    0.874955 0.365405 0.283348 0.158145
H53   H     H_    0.865527 0.374818 0.783346 0.158149
H54   H     H_    0.625044 0.134593 0.783353 0.158141
H55   H     H_    0.134467 0.625185 0.783352 0.158136
H56   H     H_    0.374958 0.865400 0.783347 0.158142
C121  C     C_3   0.417810 0.888532 0.352526 -0.880460
H57   H     H_    0.428045 0.836248 0.337721 0.227913
H58   H     H_    0.436747 0.880113 0.382674 0.238724
H59   H     H_    0.358878 0.899531 0.352982 0.244573
C122  C     C_3   0.111495 0.582151 0.352529 -0.879293
H60   H     H_    0.119900 0.563221 0.382680 0.238828
H61   H     H_    0.163779 0.571891 0.337729 0.227738
H62   H     H_    0.100519 0.641086 0.352981 0.244853
C123  C     C_3   0.582187 0.111468 0.352529 -0.880452
H63   H     H_    0.571953 0.163752 0.337725 0.227916
H64   H     H_    0.563249 0.119888 0.382677 0.238723
H65   H     H_    0.641119 0.100469 0.352987 0.244571
C124  C     C_3   0.888507 0.417844 0.352526 -0.879295
H66   H     H_    0.836223 0.428104 0.337725 0.227741
H67   H     H_    0.899483 0.358909 0.352975 0.244850
H68   H     H_    0.880102 0.436773 0.382677 0.238830
C125  C     C_3   0.917915 0.388453 0.852528 -0.880613
H69   H     H_    0.928244 0.336169 0.837741 0.227919
H70   H     H_    0.936814 0.380090 0.882688 0.238733
H71   H     H_    0.858968 0.399372 0.852957 0.244581
C126  C     C_3   0.611494 0.082152 0.852529 -0.879250
H72   H     H_    0.663778 0.071891 0.837729 0.227720
H73   H     H_    0.600518 0.141086 0.852980 0.244891
H74   H     H_    0.619899 0.063222 0.882680 0.238797
C127  C     C_3   0.082074 0.611552 0.852532 -0.879252
H75   H     H_    0.071742 0.663835 0.837745 0.227768
H76   H     H_    0.063174 0.619914 0.882691 0.238815
H77   H     H_    0.141022 0.600636 0.852961 0.244803
C128  C     C_3   0.388511 0.917836 0.852526 -0.880515
H78   H     H_    0.336226 0.928094 0.837726 0.227936
H79   H     H_    0.399491 0.858902 0.852976 0.244531
H80   H     H_    0.380106 0.936764 0.882677 0.238753

loop_
_geom_bond_atom_site_label_1
_geom_bond_atom_site_label_2
_geom_bond_distance
_ccdc_geom_bond_type
O40   C10   1.279668 A    
C85   H45   1.083931 S    
C79   C105  1.411305 A    
C121  H58   1.107003 S    
Zn8   O50   1.937262 S    
C16   C45   1.450287 S    
Zn12  O6    1.942589 S    
C98   C106  1.415294 A    
O10   C4    1.279293 A    
C22   C55   1.450282 S    
O7    C1    1.279307 A    
C97   C105  1.415293 A    
C90   H50   1.081285 S    
C39   C55   1.341282 D    
C49   H25   1.080880 S    
C5    C117  1.466116 S    
C89   H49   1.081284 S    
Zn16  O32   1.936372 S    
O43   C13   1.279606 A    
C113  C119  1.419469 A    
C27   C30   1.471544 S    
O8    C2    1.279288 A    
Zn14  O30   1.936357 S    
C27   H3    1.086387 S    
C55   H31   1.080860 S    
Zn15  O3    1.948171 S    
C28   C44   1.341275 D    
C73   C85   1.394841 A    
C122  H60   1.107002 S    
C100  C112  1.411384 A    
C78   C108  1.411312 A    
C53   H29   1.080859 S    
C11   C44   1.450288 S    
C96   H56   1.081284 S    
O13   C5    1.279202 A    
C71   C83   1.394852 A    
O37   C11   1.279688 A    
C91   C99   1.412735 A    
C14   C47   1.450283 S    
O42   C16   1.279681 A    
O16   C6    1.279213 A    
C125  H69   1.110549 S    
O39   C9    1.279669 A    
Zn2   O44   1.937263 S    
Zn15  O9    1.942575 S    
C95   C103  1.412756 A    
C21   C54   1.450159 S    
C73   C79   1.411268 A    
C36   C52   1.341278 D    
C45   H21   1.080856 S    
C94   C102  1.412737 A    
C47   H23   1.080858 S    
O27   C15   1.277638 A    
O51   C21   1.279666 A    
C128  H80   1.107004 S    
C93   C101  1.412755 A    
C28   H4    1.086375 S    
Zn7   O51   1.936927 S    
C50   H26   1.080858 S    
C124  H66   1.110532 S    
Zn8   O20   1.943165 S    
Zn6   O48   1.936932 S    
C72   C78   1.411272 A    
C42   H18   1.080859 S    
O14   C6    1.279216 A    
C35   H11   1.086410 S    
C1    C66   1.454013 S    
Zn7   O45   1.937278 S    
Zn7   O3    1.949046 S    
Zn12  O26   1.936700 S    
O45   C19   1.279684 A    
O35   C23   1.277640 A    
O44   C14   1.279663 A    
C82   H42   1.083933 S    
Zn14  O36   1.936706 S    
C104  C108  1.415297 A    
Zn8   O46   1.936916 S    
C81   H41   1.083943 S    
O26   C14   1.277515 A    
C12   C41   1.450160 S    
Zn16  O34   1.936700 S    
O52   C22   1.279663 A    
C116  C128  1.521860 S    
O32   C20   1.277607 A    
O24   C12   1.277607 A    
C64   C74   1.395657 A    
C10   C43   1.450158 S    
C82   C94   1.390417 A    
C60   C66   1.398228 A    
C96   C104  1.412737 A    
O20   C8    1.279216 A    
C126  H72   1.110531 S    
C123  H63   1.110528 S    
C110  C122  1.521856 S    
O38   C12   1.279669 A    
C88   H48   1.083932 S    
C121  H59   1.110203 S    
C43   H19   1.080880 S    
C112  C124  1.521855 S    
C58   C72   1.395656 A    
Zn4   O2    1.949077 S    
Zn12  O2    1.948116 S    
C29   H5    1.086376 S    
C33   C40   1.471543 S    
Zn6   O52   1.937263 S    
O25   C13   1.277637 A    
C58   H34   1.084882 S    
C102  C108  1.415296 A    
C121  H57   1.110528 S    
C70   C82   1.394843 A    
C57   H33   1.084889 S    
C54   H30   1.080879 S    
C6    C118  1.466116 S    
O12   C4    1.279291 A    
Zn7   O19   1.943167 S    
C40   C56   1.341298 D    
C63   H39   1.084881 S    
C115  C119  1.419466 A    
C74   C86   1.394841 A    
C69   C77   1.411284 A    
C36   C37   1.471640 S    
C62   H38   1.084880 S    
O34   C22   1.277517 A    
O18   C8    1.279212 A    
C76   C88   1.394845 A    
C61   H37   1.084878 S    
C26   H2    1.086374 S    
C51   H27   1.080873 S    
C111  C117  1.419464 A    
O48   C18   1.279606 A    
C91   H51   1.081284 S    
C52   H28   1.080858 S    
C103  C115  1.411389 A    
Zn13  O3    1.948130 S    
Zn10  O28   1.936706 S    
C27   C43   1.341250 D    
Zn14  O4    1.948139 S    
C64   C68   1.398227 A    
C97   C109  1.411378 A    
C84   H44   1.083932 S    
C38   H14   1.086387 S    
Zn5   O49   1.936945 S    
C104  C116  1.411386 A    
C2    C65   1.454006 S    
C57   C65   1.398234 A    
C125  H70   1.107006 S    
Zn15  O31   1.936690 S    
Zn9   O7    1.942595 S    
C41   H17   1.080880 S    
O50   C24   1.279684 A    
O22   C10   1.277596 A    
Zn10  O8    1.942578 S    
C84   C96   1.390418 A    
Zn5   O3    1.949025 S    
O46   C20   1.279669 A    
Zn11  O5    1.942575 S    
C102  C114  1.411380 A    
Zn6   O18   1.943185 S    
Zn5   O17   1.943179 S    
C124  H67   1.110204 S    
O31   C19   1.277531 A    
Zn10  O22   1.936357 S    
Zn12  O24   1.936372 S    
Zn3   O15   1.943167 S    
C34   H10   1.086376 S    
C103  C107  1.415310 A    
Zn1   O41   1.936945 S    
C123  H65   1.110203 S    
Zn5   O47   1.937270 S    
C126  H73   1.110206 S    
Zn13  O11   1.942595 S    
C72   C84   1.394844 A    
C83   C95   1.390414 A    
C81   C93   1.390417 A    
C7    C119  1.466099 S    
C63   C67   1.398228 A    
Zn16  O4    1.948116 S    
O19   C7    1.279200 A    
C28   C29   1.471641 S    
C38   C54   1.341253 D    
O41   C15   1.279616 A    
C128  H78   1.110532 S    
C101  C107  1.415314 A    
C109  C121  1.521860 S    
C37   C53   1.341280 D    
C34   C39   1.471638 S    
C64   H40   1.084882 S    
Zn8   O4    1.949077 S    
C59   C69   1.395664 A    
C115  C127  1.521866 S    
Zn11  O27   1.936347 S    
C80   C106  1.411309 A    
C25   C32   1.471544 S    
C46   H22   1.080872 S    
C18   C51   1.450095 S    
C87   C91   1.390413 A    
O9    C3    1.279304 A    
Zn9   O1    1.948130 S    
C60   H36   1.084882 S    
O15   C5    1.279200 A    
C70   C78   1.411271 A    
C122  H61   1.110531 S    
Zn15  O35   1.936347 S    
C23   C56   1.450095 S    
C127  H76   1.107006 S    
C87   H47   1.083931 S    
O23   C11   1.277529 A    
C4    C67   1.454013 S    
Zn13  O33   1.936360 S    
O36   C24   1.277534 A    
O17   C7    1.279195 A    
Zn2   O14   1.943185 S    
Zn4   O42   1.937262 S    
C30   H6    1.086407 S    
C63   C73   1.395653 A    
C83   H43   1.083941 S    
O11   C3    1.279307 A    
C90   C98   1.412738 A    
C40   H16   1.086410 S    
Zn9   O21   1.936693 S    
C89   C97   1.412736 A    
O49   C23   1.279614 A    
C95   H55   1.081293 S    
Zn11  O1    1.948171 S    
C122  H62   1.110204 S    
C100  C106  1.415294 A    
C36   H12   1.086377 S    
C114  C126  1.521858 S    
Zn4   O38   1.936916 S    
C69   C81   1.394852 A    
C93   H53   1.081293 S    
C15   C48   1.450094 S    
C35   C51   1.341300 D    
C116  C120  1.419465 A    
O33   C21   1.277597 A    
Zn2   O2    1.949039 S    
O28   C16   1.277536 A    
Zn16  O10   1.942589 S    
C34   C50   1.341275 D    
C125  H71   1.110221 S    
C75   C79   1.411271 A    
C32   H8    1.086407 S    
C85   C89   1.390416 A    
C94   H54   1.081284 S    
C33   H9    1.086389 S    
C30   C46   1.341303 D    
Zn6   O4    1.949039 S    
C88   C92   1.390416 A    
C101  C113  1.411392 A    
C74   C80   1.411272 A    
Zn9   O25   1.936360 S    
C110  C118  1.419462 A    
C31   H7    1.086375 S    
O29   C17   1.277512 A    
C3    C68   1.454013 S    
C13   C46   1.450095 S    
C109  C117  1.419466 A    
C32   C48   1.341298 D    
C124  H68   1.107004 S    
C75   C87   1.394843 A    
C56   H32   1.080873 S    
Zn1   O39   1.937270 S    
C33   C49   1.341257 D    
C19   C52   1.450287 S    
C114  C120  1.419462 A    
C24   C53   1.450291 S    
C57   C71   1.395663 A    
Zn13  O29   1.936693 S    
Zn3   O37   1.937278 S    
C48   H24   1.080871 S    
C44   H20   1.080859 S    
Zn1   O13   1.943179 S    
C111  C123  1.521861 S    
C112  C118  1.419463 A    
C26   C31   1.471639 S    
Zn10  O2    1.948139 S    
C61   C75   1.395652 A    
C31   C47   1.341284 D    
C128  H79   1.110206 S    
C26   C42   1.341277 D    
C59   H35   1.084892 S    
C35   C38   1.471544 S    
C99   C111  1.411375 A    
C92   C100  1.412735 A    
C39   H15   1.086377 S    
C17   C50   1.450286 S    
C98   C110  1.411381 A    
C126  H74   1.107005 S    
C25   H1    1.086388 S    
C92   H52   1.081286 S    
C62   C68   1.398227 A    
C37   H13   1.086375 S    
Zn4   O16   1.943165 S    
C58   C66   1.398228 A    
C59   C65   1.398232 A    
C76   C80   1.411270 A    
C62   C76   1.395656 A    
Zn1   O1    1.949025 S    
C77   C107  1.411322 A    
Zn11  O23   1.936690 S    
C123  H64   1.107004 S    
C127  H77   1.110221 S    
O5    C1    1.279304 A    
C61   C67   1.398226 A    
C60   C70   1.395657 A    
C86   H46   1.083930 S    
C71   C77   1.411284 A    
Zn3   O1    1.949046 S    
Zn2   O40   1.936932 S    
C86   C90   1.390417 A    
C113  C125  1.521868 S    
Zn14  O12   1.942578 S    
C20   C49   1.450160 S    
C127  H75   1.110549 S    
C8    C120  1.466116 S    
C29   C45   1.341284 D    
C9    C42   1.450286 S    
O6    C2    1.279289 A    
C99   C105  1.415293 A    
O47   C17   1.279668 A    
C25   C41   1.341255 D    
O30   C18   1.277638 A    
O21   C9    1.277511 A    
Zn3   O43   1.936927 S    
