data_mof_unit_15637.cif
_audit_creation_date              2012-12-10T18:05:46-0500
_audit_creation_method            fapswitch 2.2
_symmetry_space_group_name_H-M    P1
_symmetry_Int_Tables_number       1
_space_group_crystal_system       triclinic
_cell_length_a                    10.937216
_cell_length_b                    10.79787
_cell_length_c                    9.620241
_cell_angle_alpha                 90.531137
_cell_angle_beta                  90.799188
_cell_angle_gamma                 90.582892
_cell_volume                      1135.91770634

loop_
_atom_site_label
_atom_site_type_symbol
_atom_type_description
_atom_site_fract_x
_atom_site_fract_y
_atom_site_fract_z
_atom_type_partial_charge
C1    C     C_R   0.499424 0.262529 0.499512 0.964102
C2    C     C_R   0.500576 0.737471 0.500488 0.964102
C3    C     C_R   0.871708 0.496284 0.503872 -0.056478
C4    C     C_R   0.128292 0.503716 0.496128 -0.056478
C5    C     C_R   0.941363 0.488638 0.628091 0.010021
C6    C     C_R   0.058637 0.511362 0.371909 0.010021
C7    C     C_R   0.562129 0.063961 0.395852 0.538586
C8    C     C_R   0.437870 0.936039 0.604148 0.538587
C9    C     C_R   0.563304 0.935714 0.396947 0.480008
C10   C     C_R   0.436696 0.064286 0.603052 0.480008
C11   C     C_R   0.501009 0.871439 0.500975 -0.484513
C12   C     C_R   0.498991 0.128561 0.499025 -0.484513
C13   C     C_R   0.469913 0.395535 0.071423 0.746070
C14   C     C_R   0.530087 0.604464 0.928577 0.746070
C15   C     C_R   0.471672 0.395457 0.924067 -0.237799
C16   C     C_R   0.528328 0.604542 0.075933 -0.237799
C17   C     C_R   0.262398 0.501976 0.498659 0.785188
C18   C     C_R   0.737602 0.498024 0.501341 0.785188
C19   C     C_R   0.209187 0.652526 0.060386 -0.136812
C20   C     C_R   0.790812 0.347474 0.939614 -0.136812
C21   C     C_R   0.157901 0.640420 0.191490 -0.135422
C22   C     C_R   0.842099 0.359580 0.808510 -0.135423
C23   C     C_R   0.112451 0.525153 0.233742 0.062845
C24   C     C_R   0.887549 0.474847 0.766258 0.062845
C25   C     C_R   0.116746 0.422719 0.143728 -0.065056
C26   C     C_R   0.883254 0.577281 0.856272 -0.065056
C27   C     C_R   0.169070 0.433920 0.012768 0.186823
C28   C     C_R   0.830930 0.566080 0.987232 0.186824
C29   C     C_R   0.215539 0.549835 0.971632 -0.216971
C30   C     C_R   0.784461 0.450165 0.028368 -0.216971
C31   C     C_R   0.932219 0.506041 0.377661 -0.223269
C32   C     C_R   0.067781 0.493959 0.622339 -0.223269
Cu1   Cu    Cu3+1 0.500000 0.500020 0.640660 1.036745
Cu2   Cu    Cu3+1 0.500000 0.499980 0.359340 1.036745
H1    H     H_    0.258648 0.561036 0.872336 0.173935
H2    H     H_    0.741352 0.438964 0.127664 0.173935
H3    H     H_    0.447733 0.311194 0.868580 0.249996
H4    H     H_    0.552267 0.688806 0.131419 0.249996
H5    H     H_    0.245479 0.741167 0.028080 0.196582
H6    H     H_    0.754521 0.258833 0.971920 0.196582
H7    H     H_    0.154144 0.720192 0.260330 0.145908
H8    H     H_    0.845856 0.279808 0.739670 0.145908
H9    H     H_    0.081334 0.333695 0.176444 0.153793
H10   H     H_    0.918666 0.666305 0.823556 0.153793
H11   H     H_    0.881324 0.510985 0.281919 0.152498
H12   H     H_    0.118676 0.489015 0.718081 0.152498
N1    N     N_R   0.500030 0.500030 0.852070 -0.272318
N2    N     N_R   0.499970 0.499970 0.147930 -0.272318
O1    O     O_R   0.499990 0.319660 0.618740 -0.572966
O2    O     O_R   0.500010 0.680340 0.381260 -0.572965
O3    O     O_R   0.499990 0.319630 0.381170 -0.474595
O4    O     O_R   0.500010 0.680370 0.618830 -0.474595
O5    O     O_R   0.319650 0.500020 0.618780 -0.604854
O6    O     O_R   0.680350 0.499980 0.381220 -0.604854
O7    O     O_R   0.319640 0.500000 0.381210 -0.567128
O8    O     O_R   0.680360 0.500000 0.618790 -0.567129
N3    N     N_3   0.177982 0.325768 0.925917 -0.521284
H13   H     H_    0.227091 0.345526 0.836380 0.242628
H14   H     H_    0.089472 0.300455 0.893914 0.224955
N4    N     N_3   0.822018 0.674232 0.074083 -0.521284
H15   H     H_    0.772909 0.654474 0.163620 0.242628
H16   H     H_    0.910528 0.699545 0.106086 0.224955
F1    F     F_    0.625698 0.124853 0.296710 -0.578451
F2    F     F_    0.374302 0.875147 0.703290 -0.578451
F3    F     F_    0.628257 0.874669 0.298933 -0.608935
F4    F     F_    0.371743 0.125331 0.701067 -0.608935
F5    F     F_    0.433508 0.290430 0.134766 -0.593833
F6    F     F_    0.566492 0.709570 0.865234 -0.593833

loop_
_geom_bond_atom_site_label_1
_geom_bond_atom_site_label_2
_ccdc_geom_bond_type
C1    C12   S    
C13   N2    A    
C30   H2    S    
C28   C30   A    
C14   N1    A    
C14   C16   A    
C15   N1    A    
C27   C29   A    
Cu1   O5    S    
C1    O3    A    
C29   H1    S    
C26   C28   A    
C13   C15   A    
C18   O8    A    
C9    F3    S    
C5    C32   A    
C32   H12   S    
C25   H9    S    
Cu1   O8    S    
C10   F4    S    
Cu1   Cu2   S    
Cu2   O3    S    
C26   H10   S    
Cu2   O7    S    
C20   C30   A    
Cu1   O4    S    
C3    C31   A    
C9    C11   A    
C7    F1    S    
N3    H13   S    
C22   H8    S    
C28   N4    S    
C2    O4    A    
C2    C11   S    
C8    F2    S    
C8    C11   A    
C21   H7    S    
C6    C23   S    
C19   H5    S    
C4    C6    A    
C19   C21   A    
C17   O7    A    
C20   C22   A    
Cu2   O6    S    
C10   C12   A    
C23   C25   A    
C21   C23   A    
C27   N3    S    
C7    C12   A    
C20   H6    S    
C22   C24   A    
Cu2   O2    S    
N3    H14   S    
C4    C17   S    
Cu1   N1    S    
C4    C32   A    
C19   C29   A    
C17   O5    A    
Cu2   N2    S    
C16   N2    A    
C3    C18   S    
N4    H16   S    
C31   H11   S    
C15   H3    S    
C16   H4    S    
C7    C9    A    
C18   O6    A    
C5    C24   S    
C6    C31   A    
C2    O2    A    
Cu1   O1    S    
C8    C10   A    
C13   F5    S    
C14   F6    S    
C24   C26   A    
N4    H15   S    
C3    C5    A    
C25   C27   A    
C1    O1    A    
