data_mof_unit_27217.cif
_audit_creation_date              2012-12-10T16:50:10-0500
_audit_creation_method            fapswitch 2.2
_symmetry_space_group_name_H-M    P1
_symmetry_Int_Tables_number       1
_space_group_crystal_system       triclinic
_cell_length_a                    7.764681
_cell_length_b                    8.573349
_cell_length_c                    10.68488
_cell_angle_alpha                 91.639724
_cell_angle_beta                  83.675498
_cell_angle_gamma                 94.003001
_cell_volume                      705.074508757

loop_
_atom_site_label
_atom_site_type_symbol
_atom_type_description
_atom_site_fract_x
_atom_site_fract_y
_atom_site_fract_z
_atom_type_partial_charge
C1    C     C_R   0.546109 0.794955 0.496654 0.946580
C2    C     C_R   0.453884 0.205028 0.502982 0.970989
C3    C     C_R   0.503631 0.512782 0.260547 0.867181
C4    C     C_R   0.169597 0.561001 0.920146 0.635950
C5    C     C_R   0.057468 0.658374 0.991192 -0.239350
C6    C     C_R   0.106782 0.732115 0.100288 -0.229800
C7    C     C_R   0.261038 0.696727 0.144627 -0.162710
C8    C     C_R   0.371396 0.592097 0.076265 0.022330
C9    C     C_R   0.339796 0.544156 0.954437 -0.022322
C10   C     C_R   0.481484 0.482933 0.875431 -0.106369
C11   C     C_R   0.627199 0.435932 0.925859 -0.208766
C12   C     C_R   0.637338 0.452145 0.052374 -0.212368
C13   C     C_R   0.509025 0.527801 0.127712 -0.089113
C14   C     C_2   0.570341 0.958507 0.494405 -0.377912
C15   C     C_2   0.429633 0.041431 0.504548 -0.378559
C16   C     C_R   0.494906 0.491548 0.740688 0.891381
F1    F     F_    0.099039 0.466657 0.832425 -0.675069
H1    H     H_    0.732811 0.384714 0.867592 0.214616
H2    H     H_    0.985304 0.618589 0.595132 0.208881
H3    H     H_    0.930287 0.674025 0.962889 0.174240
H4    H     H_    0.021074 0.809586 0.154273 0.169536
H5    H     H_    0.293233 0.751222 0.232467 0.164100
H6    H     H_    0.745025 0.404074 0.091156 0.184744
H7    H     H_    0.703013 0.010131 0.484654 0.181327
H8    H     H_    0.296962 0.989793 0.514199 0.179805
H9    H     H_    0.014734 0.381472 0.404838 0.190303
N1    N     N_2   0.950330 0.457950 0.466250 -0.169215
N2    N     N_2   0.049670 0.542050 0.533750 -0.142235
O1    O     O_R   0.389250 0.738570 0.508280 -0.625782
O2    O     O_R   0.678390 0.711630 0.486650 -0.634003
O3    O     O_R   0.355400 0.513470 0.694050 -0.551077
O4    O     O_R   0.644540 0.486530 0.672420 -0.624416
O5    O     O_R   0.321610 0.288370 0.513350 -0.614122
O6    O     O_R   0.610750 0.261430 0.491720 -0.615419
O7    O     O_R   0.355460 0.513470 0.327580 -0.633688
O8    O     O_R   0.644600 0.486530 0.305950 -0.626532
Zn1   Zn    Zn3+2 0.306930 0.517990 0.514440 0.984448
Zn2   Zn    Zn3+2 0.693070 0.482010 0.485560 0.952417

loop_
_geom_bond_atom_site_label_1
_geom_bond_atom_site_label_2
_ccdc_geom_bond_type
C11   C12   A    
C11   H1    S    
C6    C7    A    
H2    N2    S    
O4    Zn2   S    
C16   O4    A    
C7    H5    S    
C9    C10   A    
C3    C13   S    
C3    O7    A    
C2    O6    A    
O8    Zn2   S    
C7    C8    A    
C5    H3    S    
C10   C16   S    
C16   O3    A    
C2    C15   S    
C12   H6    S    
H9    N1    S    
C8    C13   A    
C3    O8    A    
C4    F1    S    
N2    Zn1   S    
C2    O5    A    
C1    O1    A    
C1    O2    A    
O7    Zn1   S    
C5    C6    A    
C15   H8    S    
C10   C11   A    
N1    Zn2   S    
O1    Zn1   S    
C12   C13   A    
O2    Zn2   S    
C14   H7    S    
N1    N2    D    
C14   C15   D    
C8    C9    A    
C1    C14   S    
C4    C9    A    
O6    Zn2   S    
C6    H4    S    
O5    Zn1   S    
O3    Zn1   S    
C4    C5    A    
