data_mof_unit_62643.cif
_audit_creation_date              2012-10-26T17:54:32-0400
_audit_creation_method            fapswitch 2.2
_symmetry_space_group_name_H-M    P1
_symmetry_Int_Tables_number       1
_space_group_crystal_system       triclinic
_cell_length_a                    18.706673
_cell_length_b                    18.810434
_cell_length_c                    18.877313
_cell_angle_alpha                 109.25764
_cell_angle_beta                  109.470218
_cell_angle_gamma                 109.287817
_cell_volume                      5138.39243891

loop_
_atom_site_label
_atom_site_type_symbol
_atom_type_description
_atom_site_fract_x
_atom_site_fract_y
_atom_site_fract_z
_atom_type_partial_charge
C1    C     C_R   0.618827 0.120023 0.001196 0.536220
C2    C     C_R   0.501321 0.759774 0.679818 -0.121854
C3    C     C_R   0.502076 0.824845 0.743366 0.129463
C4    C     C_R   0.497856 0.116467 0.117854 0.545966
C5    C     C_R   0.502360 0.817366 0.815423 0.047653
C6    C     C_R   0.317771 0.822828 0.076313 -0.166788
C7    C     C_R   0.253063 0.760041 0.076756 -0.145637
C8    C     C_R   0.185471 0.685280 0.999040 0.000086
C9    C     C_R   0.181939 0.673928 0.920621 -0.122395
C10   C     C_R   0.245751 0.737468 0.919312 0.128145
C11   C     C_R   0.314023 0.812393 0.997999 0.053767
C12   C     C_R   0.813038 0.236903 0.986743 -0.141364
C13   C     C_R   0.618763 0.503422 0.621897 0.542907
C14   C     C_R   0.502294 0.385436 0.386807 0.555728
C15   C     C_R   0.381020 0.503446 0.384468 0.548685
C16   C     C_R   0.381051 0.880676 0.999478 0.565103
C17   C     C_R   0.499757 0.621231 0.621136 0.543611
C18   C     C_R   0.880796 0.500931 0.881755 0.550070
C19   C     C_R   0.881096 0.381243 0.000287 0.548773
C20   C     C_R   0.118633 0.498920 0.118020 0.548685
C21   C     C_R   0.118797 0.618787 0.999685 0.552564
C22   C     C_R   0.735196 0.575067 0.774797 0.131667
C23   C     C_R   0.814125 0.315113 0.001096 0.006577
C24   C     C_R   0.799343 0.572973 0.837213 -0.093287
C25   C     C_R   0.813611 0.502051 0.815612 -0.015740
C26   C     C_R   0.763253 0.432395 0.730868 -0.148165
C27   C     C_R   0.699181 0.433587 0.668258 -0.159162
C28   C     C_R   0.500790 0.882514 0.881938 0.559444
C29   C     C_R   0.685613 0.504714 0.689500 0.039836
C30   C     C_R   0.323184 0.502636 0.245713 -0.131992
C31   C     C_R   0.257981 0.499241 0.179363 -0.133966
C32   C     C_R   0.184814 0.498038 0.184816 0.026603
C33   C     C_R   0.176039 0.498267 0.255731 -0.131042
C34   C     C_R   0.751777 0.330873 0.017734 -0.120875
C35   C     C_R   0.239736 0.498637 0.320546 -0.132800
C36   C     C_R   0.313880 0.501842 0.316142 0.026554
C37   C     C_2   0.493908 0.244785 0.319129 -0.158753
C38   C     C_2   0.509152 0.321603 0.324233 -0.114438
C39   C     C_2   0.506192 0.183718 0.258063 -0.156722
C40   C     C_2   0.491270 0.179232 0.181751 -0.116615
C41   C     C_R   0.750129 0.174806 0.989498 -0.155936
C42   C     C_3   0.589109 0.973982 0.785426 -0.286111
C43   C     C_3   0.297203 0.692911 0.820640 -0.289423
C44   C     C_3   0.687693 0.657514 0.857572 -0.313870
C45   C     C_R   0.685720 0.267539 0.017038 0.004882
C46   C     C_3   0.620359 0.288170 0.036586 -0.238252
C47   C     C_3   0.541561 0.265786 0.955183 -0.277647
C48   C     C_3   0.564405 0.327366 0.919993 -0.441097
C49   C     C_R   0.685598 0.188774 0.002962 0.031172
C50   C     C_R   0.501773 0.745517 0.822820 -0.184607
C51   C     C_R   0.498286 0.679893 0.757864 -0.156762
C52   C     C_R   0.499218 0.687577 0.687013 0.003359
Cu1   Cu    Cu3+1 0.438200 0.000380 0.938580 0.947676
Cu2   Cu    Cu3+1 0.561800 0.999620 0.061420 0.920238
Cu3   Cu    Cu3+1 0.438220 0.441470 0.503160 0.928153
Cu4   Cu    Cu3+1 0.561830 0.565070 0.503150 0.928823
Cu5   Cu    Cu3+1 0.999900 0.438590 0.938490 0.923931
Cu6   Cu    Cu3+1 0.999930 0.561410 0.061340 0.922698
H1    H     H_    0.476940 0.228338 0.363467 0.142758
H2    H     H_    0.660551 0.379310 0.602861 0.114631
H3    H     H_    0.380112 0.504537 0.241561 0.120337
H4    H     H_    0.265454 0.499575 0.124956 0.119966
H5    H     H_    0.119508 0.497174 0.260316 0.123063
H6    H     H_    0.232084 0.498119 0.374825 0.122050
H7    H     H_    0.522761 0.138778 0.274009 0.142610
H8    H     H_    0.465410 0.217399 0.161670 0.103362
H9    H     H_    0.750981 0.115088 0.979745 0.112284
H10   H     H_    0.861821 0.224621 0.975111 0.131060
H11   H     H_    0.753826 0.392222 0.029999 0.125117
H12   H     H_    0.496541 0.624010 0.763614 0.122629
H13   H     H_    0.502020 0.739318 0.877945 0.116330
H14   H     H_    0.472437 0.884141 0.671798 0.243065
H15   H     H_    0.632665 0.962323 0.760641 0.130737
H16   H     H_    0.618287 0.991134 0.854379 0.153144
H17   H     H_    0.583531 0.029482 0.780900 0.149250
H18   H     H_    0.178955 0.690235 0.787562 0.246322
H19   H     H_    0.273857 0.625959 0.810503 0.130329
H20   H     H_    0.365585 0.735228 0.874570 0.151468
H21   H     H_    0.295847 0.692069 0.761105 0.153441
H22   H     H_    0.691569 0.657763 0.749171 0.271668
H23   H     H_    0.502010 0.765320 0.624649 0.117083
H24   H     H_    0.680983 0.716472 0.873348 0.151322
H25   H     H_    0.732486 0.664824 0.918865 0.150723
H26   H     H_    0.622542 0.600199 0.827195 0.139180
H27   H     H_    0.597125 0.395764 0.971537 0.147581
H28   H     H_    0.607496 0.318253 0.893543 0.161770
H29   H     H_    0.503723 0.313303 0.866826 0.139798
H30   H     H_    0.512801 0.198336 0.903584 0.190239
H31   H     H_    0.490885 0.269872 0.971893 0.145619
H32   H     H_    0.596590 0.252351 0.067684 0.138305
H33   H     H_    0.652764 0.357877 0.085020 0.128100
H34   H     H_    0.369996 0.880370 0.136923 0.121286
H35   H     H_    0.256417 0.769131 0.137753 0.132161
H36   H     H_    0.129472 0.615924 0.860493 0.119737
H37   H     H_    0.838959 0.627508 0.902428 0.142238
H38   H     H_    0.772945 0.376803 0.713148 0.138389
H39   H     H_    0.535401 0.342098 0.286670 0.103785
N1    N     N_2   0.503584 0.897763 0.734994 -0.498033
N2    N     N_2   0.241677 0.725233 0.839228 -0.498551
N3    N     N_2   0.721929 0.648000 0.798759 -0.518052
O1    O     O_R   0.537990 0.090490 0.948120 -0.519729
O2    O     O_R   0.909750 0.552440 0.962210 -0.517929
O3    O     O_R   0.909720 0.357980 0.948050 -0.510807
O4    O     O_R   0.642370 0.089850 0.051860 -0.507970
O5    O     O_R   0.909750 0.461690 0.051790 -0.514862
O6    O     O_R   0.090070 0.447560 0.037620 -0.509582
O7    O     O_R   0.090100 0.551270 0.141360 -0.510313
O8    O     O_R   0.090070 0.538310 0.948030 -0.512690
O9    O     O_R   0.090100 0.642020 0.051770 -0.507265
O10   O     O_R   0.447800 0.089920 0.037730 -0.517614
O11   O     O_R   0.552180 0.089280 0.141460 -0.503441
O12   O     O_R   0.642390 0.554900 0.592760 -0.510920
O13   O     O_R   0.357630 0.910150 0.948140 -0.477192
O14   O     O_R   0.462010 0.909510 0.051880 -0.526149
O15   O     O_R   0.447820 0.910720 0.858540 -0.470229
O16   O     O_R   0.552200 0.910080 0.962270 -0.525343
O17   O     O_R   0.538000 0.450530 0.592770 -0.512587
O18   O     O_R   0.447840 0.361480 0.413570 -0.501932
O19   O     O_R   0.552220 0.465860 0.413560 -0.508599
O20   O     O_R   0.357660 0.451630 0.413550 -0.507029
O21   O     O_R   0.462040 0.556010 0.413540 -0.511997
O22   O     O_R   0.447820 0.540680 0.592750 -0.510492
O23   O     O_R   0.552200 0.645050 0.592740 -0.516052
O24   O     O_R   0.909730 0.448730 0.858460 -0.511319

loop_
_geom_bond_atom_site_label_1
_geom_bond_atom_site_label_2
_ccdc_geom_bond_type
Cu1   O10   S    
Cu3   Cu4   S    
C22   C29   A    
C27   C29   A    
Cu6   O9    S    
C47   H31   S    
C35   C36   A    
C44   H25   S    
C16   O13   A    
C7    C8    A    
C41   H9    S    
H14   N1    S    
C45   C46   S    
H18   N2    S    
C12   H10   S    
C12   C23   A    
C26   C27   A    
C37   C38   D    
C13   C29   S    
C43   N2    S    
C13   O12   A    
C44   H24   S    
C27   H2    S    
C42   N1    S    
C20   C32   S    
C30   C31   A    
C43   H21   S    
C15   O20   A    
Cu6   O7    S    
C18   O2    A    
C28   O16   A    
C19   O3    A    
C17   O23   A    
C4    C40   S    
Cu1   O1    S    
C8    C9    A    
C14   O18   A    
Cu2   O16   S    
C35   H6    S    
Cu6   O2    S    
C51   H12   S    
C9    C10   A    
C20   O7    A    
Cu5   O6    S    
Cu3   O22   S    
C40   H8    S    
H22   N3    S    
C39   H7    S    
C31   H4    S    
C18   C25   S    
C38   H39   S    
C7    H35   S    
C17   C52   S    
C41   C49   A    
Cu1   O13   S    
C50   C51   A    
C20   O6    A    
Cu3   O20   S    
C26   H38   S    
Cu5   O3    S    
C42   H16   S    
C22   N3    S    
C51   C52   A    
Cu4   O23   S    
C24   C25   A    
C24   H37   S    
C6    C11   A    
C46   H33   S    
C3    C5    A    
C25   C26   A    
Cu1   Cu2   S    
C43   H20   S    
C19   C23   S    
C50   H13   S    
C12   C41   A    
C28   O15   A    
C14   C38   S    
C5    C28   S    
C11   C16   S    
C13   O17   A    
C47   C48   S    
C1    O4    A    
C45   C49   A    
C33   H5    S    
C23   C34   A    
C8    C21   S    
C42   H17   S    
C48   H29   S    
C34   C45   A    
C34   H11   S    
C37   H1    S    
C2    C52   A    
C19   O5    A    
C4    O11   A    
Cu4   O19   S    
C48   H28   S    
C5    C50   A    
Cu4   O21   S    
C1    O1    A    
C15   C36   S    
C39   C40   D    
Cu3   O17   S    
Cu2   O4    S    
C4    O10   A    
C46   C47   S    
C42   H15   S    
C15   O21   A    
C31   C32   A    
C44   H26   S    
C16   O14   A    
C21   O9    A    
C6    C7    A    
C46   H32   S    
C43   H19   S    
C30   C36   A    
Cu6   O5    S    
C32   C33   A    
C2    C3    A    
C37   C39   S    
C47   H30   S    
Cu5   O24   S    
C44   N3    S    
C3    N1    S    
Cu5   Cu6   S    
C6    H34   S    
Cu2   O14   S    
C33   C35   A    
Cu2   O11   S    
C22   C24   A    
C10   N2    S    
C21   O8    A    
C10   C11   A    
C17   O22   A    
Cu5   O8    S    
C14   O19   A    
C30   H3    S    
C48   H27   S    
C2    H23   S    
C1    C49   S    
C9    H36   S    
Cu4   O12   S    
Cu1   O15   S    
C18   O24   A    
Cu3   O18   S    
