data_mof_unit_11801.cif
_audit_creation_date              2012-12-10T19:24:56-0500
_audit_creation_method            fapswitch 2.2
_symmetry_space_group_name_H-M    P1
_symmetry_Int_Tables_number       1
_space_group_crystal_system       triclinic
_cell_length_a                    15.718351
_cell_length_b                    10.48799
_cell_length_c                    9.766459
_cell_angle_alpha                 90.531412
_cell_angle_beta                  90.265
_cell_angle_gamma                 89.793423
_cell_volume                      1609.94224667

loop_
_atom_site_label
_atom_site_type_symbol
_atom_type_description
_atom_site_fract_x
_atom_site_fract_y
_atom_site_fract_z
_atom_type_partial_charge
C1    C     C_R   0.500548 0.257639 0.499280 0.929453
C2    C     C_R   0.499452 0.742361 0.500720 0.929452
C3    C     C_3   0.569682 0.956784 0.441013 0.564858
C4    C     C_3   0.430318 0.043215 0.558987 0.564858
C5    C     C_3   0.498883 0.877329 0.502263 -0.104626
C6    C     C_3   0.501117 0.122670 0.497737 -0.104627
C7    C     C_3   0.497385 0.961397 0.632378 -0.288773
C8    C     C_3   0.502615 0.038603 0.367622 -0.288765
C9    C     C_3   0.523736 0.390417 0.047633 -0.080173
C10   C     C_3   0.476264 0.609583 0.952367 -0.080173
C11   C     C_3   0.575071 0.475681 0.951668 -0.078316
C12   C     C_3   0.424928 0.524319 0.048332 -0.078316
C13   C     C_3   0.448607 0.414766 0.950160 -0.057064
C14   C     C_3   0.551393 0.585234 0.049840 -0.057064
C15   C     C_R   0.338108 0.499892 0.499689 0.909439
C16   C     C_R   0.661892 0.500108 0.500311 0.909438
C17   C     C_3   0.971821 0.412279 0.589129 -0.260799
C18   C     C_3   0.028179 0.587723 0.410870 -0.260800
C19   C     C_3   0.026712 0.384851 0.461788 0.077748
C20   C     C_3   0.973288 0.615152 0.538211 0.077747
C21   C     C_1   0.249225 0.499438 0.499053 -0.153660
C22   C     C_1   0.750775 0.500563 0.500947 -0.153662
C23   C     C_3   0.029531 0.527543 0.626768 -0.253456
C24   C     C_3   0.970469 0.472460 0.373231 -0.253458
C25   C     C_3   0.083067 0.498576 0.498923 0.182206
C26   C     C_3   0.916933 0.501426 0.501077 0.182206
C27   C     C_1   0.173941 0.498992 0.498790 -0.006344
C28   C     C_1   0.826059 0.501010 0.501210 -0.006345
C29   C     C_3   0.569579 0.042135 0.569801 -0.330507
C30   C     C_3   0.430422 0.957865 0.430200 -0.330499
H1    H     H_    0.947247 0.340199 0.661358 0.143804
H2    H     H_    0.052753 0.659804 0.338641 0.143804
H3    H     H_    0.944761 0.449300 0.269911 0.143471
H4    H     H_    0.055239 0.550702 0.730088 0.143471
H5    H     H_    0.625959 0.081386 0.624316 0.155083
H6    H     H_    0.374040 0.918614 0.375685 0.155086
H7    H     H_    0.494044 0.925872 0.738954 0.158175
H8    H     H_    0.505957 0.074127 0.261046 0.158177
H9    H     H_    0.638336 0.455077 0.906335 0.130415
H10   H     H_    0.361664 0.544923 0.093665 0.130415
H11   H     H_    0.543779 0.298098 0.092471 0.116774
H12   H     H_    0.456221 0.701902 0.907529 0.116773
H13   H     H_    0.405362 0.342961 0.903290 0.143145
H14   H     H_    0.594638 0.657039 0.096710 0.143147
N1    N     N_3   0.499940 0.500030 0.863290 -0.076919
N2    N     N_3   0.500060 0.499970 0.136710 -0.076919
O1    O     O_R   0.500000 0.313960 0.616610 -0.601676
O2    O     O_R   0.500000 0.686040 0.383390 -0.601675
O3    O     O_R   0.500040 0.313950 0.383350 -0.637088
O4    O     O_R   0.499960 0.686050 0.616650 -0.637089
O5    O     O_R   0.376760 0.499990 0.616610 -0.614603
O6    O     O_R   0.623240 0.500010 0.383390 -0.614603
O7    O     O_R   0.376790 0.499980 0.383350 -0.618495
O8    O     O_R   0.623210 0.500020 0.616650 -0.618495
Zn1   Zn    Zn3+2 0.499980 0.500010 0.655740 0.957536
Zn2   Zn    Zn3+2 0.500020 0.499990 0.344260 0.957537
C31   C     C_2   0.054828 0.254092 0.418288 0.351581
H15   H     H_    0.007564 0.181486 0.396619 0.053183
O9    O     O_2   0.130249 0.228486 0.406857 -0.566254
C32   C     C_2   0.945171 0.745911 0.581711 0.351582
H16   H     H_    0.992435 0.818517 0.603379 0.053184
O10   O     O_2   0.869750 0.771516 0.593143 -0.566255
O11   O     O_3   0.641189 0.898097 0.380184 -0.599484
C33   C     C_3   0.697965 0.992708 0.335852 0.102940
H17   H     H_    0.722546 0.049487 0.424303 0.139441
H18   H     H_    0.666768 0.057529 0.261010 0.122352
C34   C     C_3   0.773208 0.928786 0.265535 -0.780939
H19   H     H_    0.750901 0.872857 0.175229 0.248351
H20   H     H_    0.818826 0.002263 0.230934 0.192639
H21   H     H_    0.806218 0.863860 0.337755 0.286576
O12   O     O_3   0.358810 0.101902 0.619814 -0.599482
C35   C     C_3   0.302040 0.007290 0.664162 0.102940
H22   H     H_    0.333240 0.942489 0.739019 0.122357
H23   H     H_    0.277465 0.950492 0.575722 0.139430
C36   C     C_3   0.226791 0.071213 0.734463 -0.780941
H24   H     H_    0.193777 0.136119 0.662227 0.286578
H25   H     H_    0.181179 0.997735 0.769079 0.192637
H26   H     H_    0.249092 0.127164 0.824757 0.248355

loop_
_geom_bond_atom_site_label_1
_geom_bond_atom_site_label_2
_ccdc_geom_bond_type
C7    C29   S    
C10   H12   S    
C14   N2    S    
C19   C31   S    
C17   C23   S    
C18   C24   S    
C17   C26   S    
C15   O7    A    
O1    Zn1   S    
C24   C26   S    
C35   C36   S    
C11   C14   S    
C31   O9    D    
C32   O10   D    
C3    C29   S    
C9    C13   S    
C2    O4    A    
C15   O5    A    
C20   C32   S    
O5    Zn1   S    
C21   C27   T    
C9    N2    S    
C22   C28   T    
C18   C25   S    
C8    H8    S    
C4    C7    S    
C34   H19   S    
C33   C34   S    
C16   O6    A    
C35   H23   S    
C3    C8    S    
C10   C14   S    
C5    C7    S    
C1    O1    A    
C6    C8    S    
C2    O2    A    
C1    C6    S    
C32   H16   S    
C34   H20   S    
C12   N2    S    
C33   H18   S    
C12   H10   S    
C36   H24   S    
C36   H25   S    
C20   C23   S    
C23   H4    S    
C10   N1    S    
C7    H7    S    
C11   H9    S    
C9    C11   S    
C10   C12   S    
C4    C6    S    
C17   H1    S    
C11   N1    S    
C2    C5    S    
C18   H2    S    
C13   H13   S    
C14   H14   S    
C5    C30   S    
O7    Zn2   S    
O2    Zn2   S    
O8    Zn1   S    
C16   C22   S    
C9    H11   S    
C24   H3    S    
C35   H22   S    
C3    C5    S    
C3    O11   S    
C25   C27   S    
O3    Zn2   S    
C29   H5    S    
C26   C28   S    
O4    Zn1   S    
C30   H6    S    
C34   H21   S    
C8    C30   S    
C33   H17   S    
C19   C24   S    
O12   C35   S    
C13   N1    S    
C31   H15   S    
C20   C26   S    
C17   C19   S    
C18   C20   S    
C23   C25   S    
C19   C25   S    
C36   H26   S    
C16   O8    A    
O11   C33   S    
C15   C21   S    
C6    C29   S    
C12   C13   S    
N1    Zn1   S    
N2    Zn2   S    
C1    O3    A    
C4    O12   S    
C4    C30   S    
O6    Zn2   S    
