data_mof_unit_64651.cif
_audit_creation_date              2012-12-10T17:17:18-0500
_audit_creation_method            fapswitch 2.2
_symmetry_space_group_name_H-M    P1
_symmetry_Int_Tables_number       1
_space_group_crystal_system       triclinic
_cell_length_a                    18.844115
_cell_length_b                    18.698225
_cell_length_c                    18.869539
_cell_angle_alpha                 109.42589
_cell_angle_beta                  109.684476
_cell_angle_gamma                 109.271984
_cell_volume                      5120.10567466

loop_
_atom_site_label
_atom_site_type_symbol
_atom_type_description
_atom_site_fract_x
_atom_site_fract_y
_atom_site_fract_z
_atom_type_partial_charge
C1    C     C_R   0.120404 0.119190 0.502045 0.780219
C2    C     C_R   0.263786 0.005720 0.676908 0.095510
C3    C     C_R   0.191343 0.004729 0.684723 -0.100165
C4    C     C_R   0.182874 0.001126 0.754388 -0.202562
C5    C     C_R   0.244450 0.996869 0.815877 -0.204954
C6    C     C_R   0.315376 0.995409 0.808559 -0.099370
C7    C     C_R   0.178917 0.185629 0.428964 -0.222924
C8    C     C_R   0.240892 0.250900 0.429170 -0.224901
C9    C     C_R   0.315717 0.319256 0.507117 -0.061268
C10   C     C_R   0.328409 0.324145 0.587658 0.150344
C11   C     C_R   0.265139 0.256593 0.587453 0.153893
C12   C     C_R   0.121035 0.002110 0.618611 0.771341
C13   C     C_R   0.190163 0.187768 0.506714 -0.084042
C14   C     C_R   0.744114 0.927833 0.247789 -0.239006
C15   C     C_R   0.679074 0.928540 0.186491 -0.211725
C16   C     C_R   0.687697 0.007467 0.191638 -0.091694
C17   C     C_R   0.763075 0.088683 0.260613 0.156555
C18   C     C_R   0.829698 0.087606 0.323578 0.155368
C19   C     C_R   0.818452 0.006114 0.316148 -0.051685
C20   C     C_R   0.831024 0.749847 0.515141 0.135552
C21   C     C_R   0.763757 0.679498 0.506885 0.175589
C22   C     C_R   0.685936 0.680721 0.494769 -0.105582
C23   C     C_R   0.881069 0.881031 0.499537 0.810559
C24   C     C_R   0.671729 0.744835 0.480949 -0.250329
C25   C     C_R   0.734054 0.809770 0.480308 0.111563
C26   C     C_R   0.814563 0.813078 0.498919 -0.094721
C27   C     C_R   0.499785 0.880966 0.881099 0.774074
C28   C     C_R   0.381393 0.997788 0.878858 0.774671
C29   C     C_R   0.500698 0.118802 0.119180 0.775828
C30   C     C_R   0.619111 0.002664 0.121264 0.785721
C31   C     C_R   0.499776 0.618893 0.618883 0.775816
C32   C     C_R   0.381411 0.383232 0.502470 0.807614
C33   C     C_R   0.500354 0.381298 0.381121 0.803279
C34   C     C_R   0.882483 0.001632 0.381505 0.798154
C35   C     C_R   0.618825 0.616775 0.497868 0.814758
C36   C     C_R   0.578431 0.821622 0.821214 -0.176086
C37   C     C_R   0.578437 0.756946 0.757746 -0.175671
C38   C     C_R   0.499533 0.685751 0.685612 -0.011865
C39   C     C_R   0.420576 0.678577 0.677843 -0.178753
C40   C     C_R   0.420571 0.741793 0.742834 -0.178779
C41   C     C_R   0.499522 0.813749 0.814222 -0.012684
C42   C     C_R   0.463217 0.234757 0.163366 0.100581
C43   C     C_R   0.463892 0.299121 0.228791 -0.166728
C44   C     C_R   0.500803 0.314413 0.314000 -0.120711
C45   C     C_R   0.277928 0.016278 0.611119 -0.182405
C46   C     C_R   0.537399 0.265358 0.334979 -0.182563
C47   C     C_R   0.537349 0.200490 0.271664 0.159949
C48   C     C_R   0.500935 0.185878 0.185873 -0.059582
C49   C     C_R   0.346858 0.011860 0.601710 -0.136291
C50   C     C_R   0.402715 0.996781 0.657173 -0.138557
C51   C     C_R   0.391958 0.989345 0.724427 -0.170832
C52   C     C_R   0.324618 0.997197 0.737523 0.098617
Cu1   Cu    Cu3+1 0.999980 0.061790 0.561790 0.924985
Cu2   Cu    Cu3+1 0.000020 0.938210 0.438210 0.940825
Cu3   Cu    Cu3+1 0.438200 0.938230 0.000040 0.946327
Cu4   Cu    Cu3+1 0.561800 0.061850 0.000040 0.927870
Cu5   Cu    Cu3+1 0.438190 0.500100 0.438300 0.939847
Cu6   Cu    Cu3+1 0.561810 0.500080 0.561880 0.935584
H1    H     H_    0.127549 0.000432 0.760582 0.154489
H2    H     H_    0.735781 0.865798 0.242718 0.152580
H3    H     H_    0.622125 0.866762 0.133656 0.160797
H4    H     H_    0.611074 0.744043 0.469943 0.167624
H5    H     H_    0.639779 0.876973 0.876375 0.140690
H6    H     H_    0.236943 0.029172 0.567116 0.143904
H7    H     H_    0.639786 0.763097 0.764080 0.140596
H8    H     H_    0.359267 0.623449 0.622418 0.139894
H9    H     H_    0.359261 0.735499 0.736764 0.139835
H10   H     H_    0.436379 0.338311 0.214464 0.172253
H11   H     H_    0.565291 0.276729 0.400826 0.165346
H12   H     H_    0.356483 0.019384 0.550654 0.136494
H13   H     H_    0.455020 0.991432 0.648455 0.135909
H14   H     H_    0.436147 0.976177 0.764821 0.150772
H15   H     H_    0.237250 0.995795 0.870192 0.153766
H16   H     H_    0.121195 0.133352 0.367651 0.156378
H17   H     H_    0.231114 0.247127 0.367766 0.160571
O1    O     O_R   0.090150 0.142360 0.552170 -0.583833
O2    O     O_R   0.552230 0.962090 0.909900 -0.592436
O3    O     O_R   0.357630 0.947820 0.909860 -0.583167
O4    O     O_R   0.462000 0.052220 0.909860 -0.590343
O5    O     O_R   0.447770 0.037990 0.090190 -0.576662
O6    O     O_R   0.552150 0.142390 0.090190 -0.592772
O7    O     O_R   0.538000 0.947860 0.090220 -0.585613
O8    O     O_R   0.642370 0.052260 0.090230 -0.583188
O9    O     O_R   0.447810 0.590260 0.538090 -0.585053
O10   O     O_R   0.552200 0.590240 0.642450 -0.586319
O11   O     O_R   0.357640 0.409920 0.447920 -0.588842
O12   O     O_R   0.090180 0.037990 0.447810 -0.591195
O13   O     O_R   0.462030 0.409900 0.552280 -0.583626
O14   O     O_R   0.447800 0.409940 0.357730 -0.591577
O15   O     O_R   0.552190 0.409920 0.462090 -0.593513
O16   O     O_R   0.537970 0.590270 0.447900 -0.591645
O17   O     O_R   0.642360 0.590260 0.552260 -0.578559
O18   O     O_R   0.090170 0.052200 0.642360 -0.584447
O19   O     O_R   0.090200 0.947840 0.538010 -0.584230
O20   O     O_R   0.909820 0.962010 0.552190 -0.582457
O21   O     O_R   0.909850 0.857640 0.447830 -0.581749
O22   O     O_R   0.909800 0.052160 0.461990 -0.585719
O23   O     O_R   0.909830 0.947800 0.357640 -0.585009
O24   O     O_R   0.447850 0.857690 0.909890 -0.582543
C53   C     C_3   0.280755 0.253508 0.670948 -0.387609
C54   C     C_3   0.253513 0.309366 0.723602 -0.781298
H18   H     H_    0.284726 0.377604 0.736987 0.239765
H19   H     H_    0.182273 0.282249 0.688627 0.269053
H20   H     H_    0.272435 0.310345 0.786520 0.230558
H21   H     H_    0.245577 0.185500 0.657141 0.187602
H22   H     H_    0.350067 0.274594 0.711418 0.197968
C55   C     C_3   0.769665 0.175407 0.270411 -0.389900
C56   C     C_3   0.824285 0.214109 0.234443 -0.780269
H23   H     H_    0.890248 0.222692 0.265104 0.240258
H24   H     H_    0.793202 0.171269 0.163446 0.267495
H25   H     H_    0.830689 0.278901 0.246882 0.230222
H26   H     H_    0.704777 0.168485 0.237713 0.208091
H27   H     H_    0.796728 0.222969 0.339491 0.192485
C57   C     C_3   0.912896 0.171184 0.398494 -0.849634
H28   H     H_    0.970205 0.163783 0.403355 0.223308
H29   H     H_    0.923609 0.230160 0.392819 0.230347
H30   H     H_    0.912334 0.185152 0.460165 0.245945
C58   C     C_3   0.920661 0.759122 0.542670 -0.829788
H31   H     H_    0.932677 0.721992 0.576050 0.232158
H32   H     H_    0.928638 0.736371 0.485014 0.245197
H33   H     H_    0.971907 0.828414 0.590296 0.216581
C59   C     C_3   0.773034 0.601455 0.505154 -0.829763
H34   H     H_    0.809191 0.587517 0.471547 0.227338
H35   H     H_    0.807604 0.614268 0.572466 0.237720
H36   H     H_    0.709147 0.540572 0.467334 0.229044
C60   C     C_3   0.711235 0.872776 0.457631 -0.385900
C61   C     C_3   0.720216 0.943623 0.535397 -0.789115
H37   H     H_    0.674958 0.914022 0.555817 0.239312
H38   H     H_    0.787818 0.981179 0.590806 0.264987
H39   H     H_    0.704241 0.989360 0.517331 0.234089
H40   H     H_    0.752101 0.903989 0.434269 0.196691
H41   H     H_    0.643181 0.836294 0.403018 0.194393
C62   C     C_3   0.421950 0.215433 0.069427 -0.378000
C63   C     C_3   0.376395 0.266256 0.049554 -0.858901
H42   H     H_    0.323526 0.253429 0.065537 0.253393
H43   H     H_    0.423755 0.337429 0.086313 0.250305
H44   H     H_    0.347041 0.244541 0.979143 0.250587
H45   H     H_    0.473040 0.229159 0.051041 0.220199
H46   H     H_    0.372934 0.144676 0.026498 0.192859
C64   C     C_3   0.577028 0.149385 0.299186 -0.890970
H47   H     H_    0.574304 0.098535 0.245543 0.227680
H48   H     H_    0.646312 0.194784 0.350543 0.223103
H49   H     H_    0.542042 0.116391 0.325940 0.241127
C65   C     C_3   0.408832 0.401412 0.671884 -0.842680
H50   H     H_    0.418607 0.463428 0.672094 0.226184
H51   H     H_    0.406013 0.408989 0.731195 0.229695
H52   H     H_    0.466630 0.394429 0.678656 0.246123

loop_
_geom_bond_atom_site_label_1
_geom_bond_atom_site_label_2
_ccdc_geom_bond_type
C1    O12   A    
C7    C13   A    
Cu3   Cu4   S    
C54   H18   S    
C31   O10   A    
Cu1   O20   S    
C55   H26   S    
C64   H49   S    
C25   C60   S    
C18   C57   S    
C63   H44   S    
C20   C58   S    
C57   H28   S    
Cu4   O6    S    
Cu1   Cu2   S    
C23   O21   A    
C22   C35   S    
C27   O24   A    
C53   H21   S    
C60   C61   S    
Cu4   O4    S    
Cu5   O14   S    
C42   C62   S    
C36   C37   A    
C64   H48   S    
C17   C55   S    
C5    C6    A    
C16   C30   S    
C15   C16   A    
C32   O13   A    
C21   C59   S    
C34   O22   A    
Cu5   O11   S    
C18   C19   A    
C23   C26   S    
C30   O8    A    
C28   O4    A    
C58   H31   S    
C55   H27   S    
C46   H11   S    
C3    C12   S    
C9    C32   S    
C6    C28   S    
C56   H24   S    
C43   H10   S    
C40   H9    S    
C37   H7    S    
C47   C64   S    
C55   C56   S    
C45   C49   A    
C36   H5    S    
C28   O3    A    
C9    C10   A    
Cu2   O21   S    
C35   O17   A    
C62   H45   S    
C54   H19   S    
C21   C22   A    
C1    O1    A    
C12   O19   A    
C36   C41   A    
C65   H52   S    
C44   C46   A    
C17   C18   A    
C7    H16   S    
C2    C45   A    
C15   H3    S    
C29   C48   S    
Cu1   O18   S    
C51   C52   A    
C7    C8    A    
C64   H47   S    
C65   H51   S    
C39   C40   A    
Cu3   O3    S    
C16   C17   A    
C63   H43   S    
Cu1   O22   S    
C25   C26   A    
C8    H17   S    
C31   O9    A    
C11   C53   S    
C58   H33   S    
C30   O7    A    
C50   H13   S    
C61   H38   S    
C29   O6    A    
C37   C38   A    
C33   O14   A    
C27   C41   S    
C47   C48   A    
C60   H41   S    
C32   O11   A    
C50   C51   A    
C8    C9    A    
Cu5   O9    S    
C42   C48   A    
C24   C25   A    
Cu3   O7    S    
Cu6   O15   S    
C2    C52   A    
Cu2   O12   S    
C40   C41   A    
C62   H46   S    
C54   H20   S    
C49   H12   S    
C43   C44   A    
C62   C63   S    
C39   H8    S    
C22   C24   A    
C12   O18   A    
Cu1   O1    S    
C1    C13   S    
C42   C43   A    
C59   H35   S    
C61   H37   S    
Cu6   O10   S    
Cu4   O8    S    
C46   C47   A    
C24   H4    S    
Cu5   O16   S    
C10   C65   S    
C33   C44   S    
C14   C19   A    
C65   H50   S    
C27   O2    A    
C19   C34   S    
Cu6   O13   S    
C57   H29   S    
C56   H25   S    
C63   H42   S    
C14   H2    S    
C45   H6    S    
C53   H22   S    
C31   C38   S    
C59   H36   S    
C2    C3    A    
C61   H39   S    
C33   O15   A    
Cu3   O5    S    
C11   C13   A    
Cu5   Cu6   S    
C38   C39   A    
C29   O5    A    
C20   C26   A    
C60   H40   S    
C4    H1    S    
C53   C54   S    
C34   O23   A    
C23   O20   A    
C5    H15   S    
C58   H32   S    
Cu2   O19   S    
C57   H30   S    
C10   C11   A    
Cu4   O2    S    
C4    C5    A    
C20   C21   A    
C49   C50   A    
C51   H14   S    
Cu3   O24   S    
C14   C15   A    
Cu2   O23   S    
C6    C52   A    
C59   H34   S    
C56   H23   S    
Cu6   O17   S    
C3    C4    A    
C35   O16   A    
