data_mof_unit_19980.cif
_audit_creation_date              2012-10-26T20:32:59-0400
_audit_creation_method            fapswitch 2.2
_symmetry_space_group_name_H-M    P1
_symmetry_Int_Tables_number       1
_space_group_crystal_system       triclinic
_cell_length_a                    27.792376
_cell_length_b                    10.818022
_cell_length_c                    9.53879
_cell_angle_alpha                 90.173605
_cell_angle_beta                  89.906011
_cell_angle_gamma                 90.322189
_cell_volume                      2867.8563402

loop_
_atom_site_label
_atom_site_type_symbol
_atom_type_description
_atom_site_fract_x
_atom_site_fract_y
_atom_site_fract_z
_atom_type_partial_charge
C1    C     C_R   0.498893 0.262335 0.499771 0.552072
C2    C     C_R   0.974935 0.384745 0.482724 0.042230
C3    C     C_R   0.974728 0.601268 0.562804 0.015750
C4    C     C_R   0.407433 0.499902 0.500142 0.552342
C5    C     C_R   0.949573 0.493252 0.520266 0.029556
C6    C     C_R   0.949196 0.288316 0.416114 -0.084246
C7    C     C_R   0.899271 0.290666 0.406319 -0.098099
C8    C     C_R   0.873463 0.391656 0.458141 0.023723
C9    C     C_R   0.898603 0.494278 0.512916 -0.027937
C10   C     C_R   0.872782 0.598257 0.559256 0.025435
C11   C     C_R   0.822319 0.596252 0.553851 0.399851
C12   C     C_R   0.278258 0.484895 0.377262 -0.054852
C13   C     C_R   0.822976 0.393685 0.454124 0.402116
C14   C     C_R   0.721292 0.492097 0.628025 -0.055061
C15   C     C_R   0.671148 0.492937 0.627420 -0.143851
C16   C     C_R   0.499179 0.737756 0.500039 0.552110
C17   C     C_R   0.671689 0.495634 0.373444 -0.142440
C18   C     C_R   0.721887 0.494786 0.374191 -0.054410
C19   C     C_R   0.746871 0.493640 0.501516 0.240337
C20   C     C_R   0.025503 0.379466 0.504369 0.033440
C21   C     C_R   0.050868 0.492380 0.525823 0.016906
C22   C     C_R   0.025671 0.603918 0.553134 0.019440
C23   C     C_R   0.253478 0.498208 0.504259 0.243690
C24   C     C_R   0.052214 0.266960 0.504044 -0.003282
C25   C     C_R   0.102261 0.715643 0.558468 -0.109451
C26   C     C_R   0.947852 0.703581 0.611010 -0.135018
C27   C     C_R   0.897803 0.701535 0.610084 -0.103795
C28   C     C_R   0.592627 0.498800 0.499952 0.551074
C29   C     C_R   0.052355 0.714888 0.567281 -0.138177
C30   C     C_R   0.492883 0.064191 0.625256 0.021841
C31   C     C_R   0.493779 0.129291 0.499266 0.010818
C32   C     C_R   0.487950 0.063957 0.372735 -0.154457
C33   C     C_R   0.488204 0.935087 0.372928 -0.154487
C34   C     C_R   0.101856 0.493860 0.520253 -0.031420
C35   C     C_R   0.494312 0.870867 0.499640 0.010321
C36   C     C_R   0.493298 0.936964 0.625430 0.029401
C37   C     C_3   0.526735 0.932607 0.747676 -0.270977
C38   C     C_3   0.525889 0.072792 0.748265 -0.264068
C39   C     C_R   0.519872 0.596527 0.074023 0.156701
C40   C     C_R   0.177867 0.387231 0.491816 0.403562
C41   C     C_R   0.476034 0.411505 0.074249 -0.012788
C42   C     C_R   0.476004 0.411547 0.925328 -0.014398
C43   C     C_R   0.520130 0.596164 0.926538 0.158073
C44   C     C_3   0.571479 0.636613 0.922151 -0.275087
C45   C     C_R   0.127377 0.383451 0.498879 0.014091
C46   C     C_3   0.570845 0.638883 0.080910 -0.274389
C47   C     C_R   0.177872 0.605414 0.528397 0.399791
C48   C     C_R   0.279092 0.512228 0.629510 -0.056109
C49   C     C_R   0.329232 0.512640 0.628145 -0.140467
C50   C     C_R   0.328478 0.485943 0.375459 -0.141115
C51   C     C_2   0.031088 0.144022 0.536760 0.203860
C52   C     C_R   0.102359 0.271097 0.492946 -0.134217
C53   C     C_R   0.127432 0.605883 0.535839 0.029027
C54   C     C_R   0.354425 0.499614 0.501055 0.005520
C55   C     C_R   0.645752 0.495997 0.500146 0.003246
Cu1   Cu    Cu3+1 0.500000 0.499980 0.640670 0.943506
Cu2   Cu    Cu3+1 0.500000 0.500020 0.359330 0.941863
H1    H     H_    0.346923 0.475449 0.276075 0.130360
H2    H     H_    0.509483 0.891132 0.841803 0.138176
H3    H     H_    0.258564 0.474035 0.280110 0.129623
H4    H     H_    0.562513 0.894482 0.719133 0.137185
H5    H     H_    0.507750 0.112247 0.842096 0.133015
H6    H     H_    0.561216 0.115591 0.721718 0.148780
H7    H     H_    0.457371 0.338598 0.129869 0.113488
H8    H     H_    0.457291 0.338714 0.869406 0.118355
H9    H     H_    0.595497 0.564280 0.879291 0.146704
H10   H     H_    0.576308 0.729504 0.875494 0.121829
H11   H     H_    0.594935 0.568857 0.127320 0.148826
H12   H     H_    0.121060 0.803165 0.569231 0.166671
H13   H     H_    0.574238 0.733453 0.125861 0.129114
H14   H     H_    0.122125 0.185016 0.488088 0.157361
H15   H     H_    0.652435 0.490731 0.726665 0.118317
H16   H     H_    0.740352 0.490090 0.726914 0.133083
H17   H     H_    0.881020 0.213049 0.357426 0.170160
H18   H     H_    0.967364 0.211316 0.367383 0.134798
H19   H     H_    0.348206 0.523484 0.726528 0.133412
H20   H     H_    0.260053 0.522323 0.727984 0.129004
H21   H     H_    0.048095 0.060704 0.497366 0.095598
H22   H     H_    0.964580 0.785683 0.653445 0.133767
H23   H     H_    0.653372 0.495810 0.273727 0.118395
H24   H     H_    0.878789 0.782060 0.648313 0.176471
H25   H     H_    0.741409 0.495644 0.275857 0.134057
H26   H     H_    0.035513 0.803691 0.580693 0.120200
H27   H     H_    0.485650 0.111724 0.273355 0.129499
H28   H     H_    0.486012 0.886560 0.273624 0.135835
N1    N     N_R   0.201920 0.497107 0.506636 -0.399174
N2    N     N_R   0.798507 0.494607 0.502763 -0.398178
N3    N     N_R   0.500300 0.500930 0.147930 -0.230390
N4    N     N_R   0.500310 0.500890 0.852020 -0.231337
O1    O     O_R   0.500000 0.319640 0.618810 -0.505653
O2    O     O_R   0.569730 0.499960 0.618810 -0.505463
O3    O     O_R   0.569740 0.500000 0.381220 -0.502866
O4    O     O_2   0.202786 0.281869 0.472002 -0.486901
O5    O     O_2   0.996415 0.134078 0.614809 -0.493840
O6    O     O_2   0.798512 0.295067 0.403742 -0.489757
O7    O     O_2   0.202734 0.712242 0.542586 -0.487230
O8    O     O_2   0.797218 0.695403 0.598308 -0.491307
O9    O     O_R   0.500010 0.319680 0.381230 -0.511652
O10   O     O_R   0.430260 0.500000 0.618780 -0.502679
O11   O     O_R   0.430270 0.500040 0.381190 -0.502372
O12   O     O_R   0.499990 0.680320 0.618770 -0.495054
O13   O     O_R   0.500000 0.680360 0.381190 -0.505324

loop_
_geom_bond_atom_site_label_1
_geom_bond_atom_site_label_2
_ccdc_geom_bond_type
C10   C27   A    
C24   C52   A    
C8    C13   A    
Cu2   O3    S    
C41   C42   A    
C44   H9    S    
C35   C36   A    
C40   O4    S    
C7    C8    A    
C46   H11   S    
Cu2   O13   S    
C12   C23   A    
C26   C27   A    
C43   N4    A    
C13   O6    S    
C36   C37   S    
C22   C29   A    
C25   C53   A    
Cu1   O12   S    
C29   H26   S    
C19   N2    S    
C16   C35   S    
C30   C31   A    
C49   C54   A    
C1    C31   S    
Cu1   Cu2   S    
C30   C38   S    
C18   C19   A    
C40   N1    A    
C33   H28   S    
C33   C35   A    
Cu1   O2    S    
C20   C24   A    
C11   N2    A    
C8    C9    A    
C23   N1    S    
C42   H8    S    
C47   O7    S    
C9    C10   A    
C17   C55   A    
C47   C53   A    
C24   C51   S    
Cu1   O1    S    
C21   C22   A    
C2    C6    A    
C39   N3    A    
C28   C55   S    
C44   C46   S    
C7    H17   S    
C25   C29   A    
C40   C45   A    
C32   H27   S    
C2    C20   A    
C50   H1    S    
C47   N1    A    
C27   H24   S    
C39   C43   A    
C21   C34   A    
C45   C52   A    
Cu2   O11   S    
C17   H23   S    
C3    C22   A    
C15   C55   A    
C48   H20   S    
C43   C44   S    
C14   H16   S    
C5    C9    A    
C37   C38   S    
C15   H15   S    
C37   H4    S    
C31   C32   A    
C13   N2    A    
C17   C18   A    
C49   H19   S    
C28   O3    A    
C34   C45   A    
C50   C54   A    
C37   H2    S    
C39   C46   S    
C16   O13   A    
C48   C49   A    
C4    O11   A    
C2    C5    A    
C25   H12   S    
C1    O1    A    
C38   H6    S    
C41   N3    A    
Cu1   N4    S    
C23   C48   A    
C4    C54   S    
C14   C19   A    
C3    C26   A    
C3    C5    A    
C1    O9    A    
C12   C50   A    
C6    C7    A    
C26   H22   S    
Cu1   O10   S    
Cu2   N3    S    
C30   C36   A    
C11   O8    S    
C42   N4    A    
C32   C33   A    
C51   H21   S    
C52   H14   S    
Cu2   O9    S    
C18   H25   S    
C28   O2    A    
C46   H13   S    
C10   C11   A    
C51   O5    D    
C12   H3    S    
C16   O12   A    
C20   C21   A    
C34   C53   A    
C4    O10   A    
C14   C15   A    
C44   H10   S    
C41   H7    S    
C38   H5    S    
C6    H18   S    
