data_mof_unit_56794.cif
_audit_creation_date              2012-12-10T20:04:57-0500
_audit_creation_method            fapswitch 2.2
_symmetry_space_group_name_H-M    P1
_symmetry_Int_Tables_number       1
_space_group_crystal_system       triclinic
_cell_length_a                    15.878477
_cell_length_b                    15.878477
_cell_length_c                    25.998194
_cell_angle_alpha                 89.999988
_cell_angle_beta                  90.0
_cell_angle_gamma                 90.000011
_cell_volume                      6554.82148821

loop_
_atom_site_label
_atom_site_type_symbol
_atom_type_description
_atom_site_fract_x
_atom_site_fract_y
_atom_site_fract_z
_atom_type_partial_charge
C1    C     C_R   1.000000 0.500000 0.446199 0.001155
C2    C     C_R   0.500000 0.000000 0.609734 0.497925
C3    C     C_3   0.676653 0.132549 0.910849 -0.384273
C4    C     C_3   0.167803 0.588078 0.097944 -0.242117
C5    C     C_3   0.132559 0.676646 0.089154 -0.384276
C6    C     C_3   0.832198 0.588080 0.902056 -0.242117
C7    C     C_3   0.867444 0.676647 0.910847 -0.384276
C8    C     C_3   0.411925 0.167805 0.097944 -0.242118
C9    C     C_3   0.323357 0.132563 0.089154 -0.384277
C10   C     C_3   0.411913 0.832200 0.902057 -0.242115
C11   C     C_3   0.323347 0.867451 0.910848 -0.384272
C12   C     C_3   0.832197 0.411922 0.097944 -0.242116
C13   C     C_R   1.000000 0.500000 0.390265 0.497926
C14   C     C_3   0.867440 0.323354 0.089154 -0.384275
C15   C     C_3   0.167802 0.411919 0.902056 -0.242116
C16   C     C_3   0.132556 0.323352 0.910847 -0.384275
C17   C     C_3   0.911922 0.667803 0.597944 -0.242116
C18   C     C_3   0.823354 0.632559 0.589154 -0.384275
C19   C     C_3   0.911921 0.332197 0.402056 -0.242116
C20   C     C_3   0.823354 0.367441 0.410846 -0.384275
C21   C     C_3   0.667803 0.088079 0.597944 -0.242116
C22   C     C_3   0.632559 0.176647 0.589154 -0.384275
C23   C     C_3   0.332197 0.088078 0.402056 -0.242116
C24   C     C_R   0.000000 0.500000 0.609734 0.497925
C25   C     C_3   0.367440 0.176646 0.410846 -0.384275
C26   C     C_3   0.088078 0.332197 0.597944 -0.242116
C27   C     C_3   0.176646 0.367441 0.589154 -0.384275
C28   C     C_3   0.088079 0.667803 0.402056 -0.242116
C29   C     C_3   0.176647 0.632559 0.410846 -0.384275
C30   C     C_3   0.332197 0.911921 0.597944 -0.242116
C31   C     C_3   0.367441 0.823353 0.589154 -0.384275
C32   C     C_3   0.667803 0.911922 0.402056 -0.242116
C33   C     C_3   0.632560 0.823354 0.410846 -0.384276
C34   C     C_R   0.000000 0.500000 0.890266 0.497926
C35   C     C_R   1.000000 0.500000 0.109734 0.497925
C36   C     C_R   0.500000 1.000000 0.890266 0.497927
C37   C     C_R   0.500000 0.000000 0.109734 0.497926
C38   C     C_R   0.339961 0.160038 0.250000 0.493782
C39   C     C_R   0.660049 0.839951 0.750000 0.507268
C40   C     C_R   0.839962 0.339962 0.250000 0.493782
C41   C     C_R   0.000000 0.500000 0.553801 0.001155
C42   C     C_R   0.160049 0.660049 0.750000 0.507268
C43   C     C_R   0.660038 0.839962 0.250000 0.493782
C44   C     C_R   0.339950 0.160049 0.750000 0.507268
C45   C     C_R   0.160038 0.660038 0.250000 0.493783
C46   C     C_R   0.839951 0.339950 0.750000 0.507268
C47   C     C_R   0.339962 0.839962 0.750000 0.493782
C48   C     C_R   0.660049 0.160049 0.250000 0.507268
C49   C     C_R   0.839962 0.660038 0.750000 0.493782
C50   C     C_R   0.160049 0.339951 0.250000 0.507268
C51   C     C_R   0.660038 0.160038 0.750000 0.493783
C52   C     C_R   0.500000 1.000000 0.446199 0.001155
C53   C     C_R   0.339950 0.839951 0.250000 0.507267
C54   C     C_R   0.160038 0.339962 0.750000 0.493783
C55   C     C_R   0.839951 0.660049 0.250000 0.507268
C56   C     C_1   0.276652 0.776652 0.250000 -0.033593
C57   C     C_1   0.723319 0.223319 0.750000 -0.040483
C58   C     C_1   0.223348 0.276652 0.250000 -0.033593
C59   C     C_1   0.776681 0.723318 0.750000 -0.040483
C60   C     C_1   0.723348 0.223348 0.250000 -0.033593
C61   C     C_1   0.276681 0.776681 0.750000 -0.040483
C62   C     C_1   0.776652 0.723348 0.250000 -0.033593
C63   C     C_R   0.500000 0.000000 0.553801 0.001155
C64   C     C_1   0.223319 0.276681 0.750000 -0.040483
C65   C     C_1   0.276652 0.223348 0.750000 -0.033593
C66   C     C_1   0.723319 0.776681 0.250000 -0.040484
C67   C     C_1   0.223348 0.723348 0.750000 -0.033593
C68   C     C_1   0.776681 0.276681 0.250000 -0.040484
C69   C     C_1   0.723348 0.776652 0.750000 -0.033593
C70   C     C_1   0.276681 0.223319 0.250000 -0.040484
C71   C     C_1   0.776652 0.276652 0.750000 -0.033593
C72   C     C_1   0.223319 0.723319 0.250000 -0.040483
C73   C     C_R   0.534063 0.842780 0.050070 0.025059
C74   C     C_R   0.500000 1.000000 0.946200 0.001152
C75   C     C_R   0.534074 0.157218 0.949931 0.025057
C76   C     C_R   0.157219 0.534068 0.050069 0.025059
C77   C     C_R   0.842781 0.534069 0.949931 0.025058
C78   C     C_R   0.465936 0.157220 0.050069 0.025059
C79   C     C_R   0.465925 0.842782 0.949931 0.025057
C80   C     C_R   0.842780 0.465932 0.050069 0.025059
C81   C     C_R   0.157219 0.465930 0.949931 0.025058
C82   C     C_R   0.965932 0.657219 0.550069 0.025058
C83   C     C_R   0.965932 0.342780 0.449931 0.025058
C84   C     C_R   0.657219 0.034068 0.550069 0.025058
C85   C     C_R   0.500000 1.000000 0.053801 0.001156
C86   C     C_R   0.342780 0.034067 0.449931 0.025059
C87   C     C_R   0.034068 0.342780 0.550069 0.025058
C88   C     C_R   0.034069 0.657219 0.449931 0.025058
C89   C     C_R   0.342780 0.965931 0.550069 0.025058
C90   C     C_R   0.657220 0.965932 0.449931 0.025058
C91   C     C_R   0.518187 0.767656 0.023912 -0.122243
C92   C     C_R   0.518203 0.232343 0.976089 -0.122244
C93   C     C_R   0.232344 0.518194 0.023911 -0.122243
C94   C     C_R   0.767656 0.518196 0.976088 -0.122243
C95   C     C_R   0.481811 0.232344 0.023911 -0.122242
C96   C     C_R   1.000000 0.500000 0.946199 0.001154
C97   C     C_R   0.481796 0.767657 0.976089 -0.122244
C98   C     C_R   0.767656 0.481805 0.023911 -0.122243
C99   C     C_R   0.232344 0.481803 0.976089 -0.122243
C100  C     C_R   0.981805 0.732344 0.523912 -0.122243
C101  C     C_R   0.981804 0.267656 0.476088 -0.122243
C102  C     C_R   0.732344 0.018196 0.523911 -0.122243
C103  C     C_R   0.267656 0.018194 0.476088 -0.122243
C104  C     C_R   0.018195 0.267656 0.523911 -0.122243
C105  C     C_R   0.018196 0.732344 0.476089 -0.122243
C106  C     C_R   0.267656 0.981804 0.523911 -0.122243
C107  C     C_R   1.000000 0.500000 0.053801 0.001155
C108  C     C_R   0.732344 0.981805 0.476088 -0.122243
C109  C     C_R   0.010018 0.578002 0.473326 -0.001088
C110  C     C_R   0.010017 0.421997 0.526674 -0.001088
C111  C     C_R   0.578003 0.989983 0.473326 -0.001088
C112  C     C_R   0.421997 0.989982 0.526674 -0.001088
C113  C     C_R   0.989982 0.421997 0.473326 -0.001088
C114  C     C_R   0.989983 0.578003 0.526674 -0.001088
C115  C     C_R   0.421997 0.010017 0.473326 -0.001088
C116  C     C_R   0.578003 0.010018 0.526674 -0.001088
C117  C     C_R   0.489979 0.921998 0.973326 -0.001089
C118  C     C_R   0.500000 0.000000 0.390265 0.497925
C119  C     C_R   0.489985 0.078003 0.026675 -0.001087
C120  C     C_R   0.078003 0.489982 0.973326 -0.001088
C121  C     C_R   0.921997 0.489983 0.026674 -0.001088
C122  C     C_R   0.510020 0.078002 0.973326 -0.001088
C123  C     C_R   0.510015 0.921997 0.026675 -0.001087
C124  C     C_R   0.921997 0.510018 0.973325 -0.001088
C125  C     C_R   0.078003 0.510017 0.026675 -0.001088
C126  C     C_3   0.588073 0.832195 0.097944 -0.242118
C127  C     C_3   0.676642 0.867435 0.089154 -0.384278
C128  C     C_3   0.588088 0.167800 0.902057 -0.242115
H1    H     H_    0.466313 0.292858 0.040725 0.099562
H2    H     H_    0.033695 0.792858 0.459275 0.099562
H3    H     H_    0.207142 0.966305 0.540725 0.099562
H4    H     H_    0.792858 0.966307 0.459275 0.099562
H5    H     H_    0.966307 0.792858 0.540725 0.099562
H6    H     H_    0.966306 0.207142 0.459275 0.099562
H7    H     H_    0.792857 0.033694 0.540725 0.099562
H8    H     H_    0.207142 0.033693 0.459275 0.099562
H9    H     H_    0.713977 0.862762 0.125098 0.166546
H10   H     H_    0.709063 0.830150 0.058891 0.130946
H11   H     H_    0.674948 0.934112 0.076494 0.176635
H12   H     H_    0.466294 0.707144 0.959276 0.099563
H13   H     H_    0.556989 0.855806 0.133004 0.166051
H14   H     H_    0.597005 0.764494 0.107534 0.110259
H15   H     H_    0.709077 0.169831 0.941112 0.130944
H16   H     H_    0.674951 0.065872 0.923509 0.176633
H17   H     H_    0.713989 0.137218 0.874905 0.166546
H18   H     H_    0.557003 0.144193 0.866997 0.166054
H19   H     H_    0.597028 0.235499 0.892469 0.110260
H20   H     H_    0.169844 0.709069 0.058891 0.130945
H21   H     H_    0.065882 0.674950 0.076493 0.176634
H22   H     H_    0.137231 0.713981 0.125097 0.166547
H23   H     H_    0.707142 0.466306 0.040724 0.099562
H24   H     H_    0.144193 0.556994 0.133004 0.166052
H25   H     H_    0.235503 0.597013 0.107533 0.110259
H26   H     H_    0.862773 0.713982 0.874903 0.166548
H27   H     H_    0.830159 0.709071 0.941110 0.130944
H28   H     H_    0.934120 0.674949 0.923508 0.176634
H29   H     H_    0.855807 0.556996 0.866996 0.166053
H30   H     H_    0.764498 0.597016 0.892467 0.110260
H31   H     H_    0.286022 0.137235 0.125097 0.166546
H32   H     H_    0.290935 0.169848 0.058890 0.130945
H33   H     H_    0.325052 0.065886 0.076493 0.176634
H34   H     H_    0.292857 0.466304 0.959275 0.099562
H35   H     H_    0.443009 0.144194 0.133004 0.166051
H36   H     H_    0.402992 0.235505 0.107534 0.110259
H37   H     H_    0.290922 0.830168 0.941110 0.130943
H38   H     H_    0.325049 0.934127 0.923509 0.176632
H39   H     H_    0.286012 0.862784 0.874904 0.166549
H40   H     H_    0.442998 0.855807 0.866997 0.166053
H41   H     H_    0.402973 0.764501 0.892468 0.110259
H42   H     H_    0.830156 0.290931 0.058891 0.130945
H43   H     H_    0.934117 0.325050 0.076493 0.176634
H44   H     H_    0.862769 0.286019 0.125098 0.166547
H45   H     H_    0.533684 0.707142 0.040725 0.099562
H46   H     H_    0.855807 0.443006 0.133004 0.166051
H47   H     H_    0.764497 0.402987 0.107534 0.110259
H48   H     H_    0.137225 0.286017 0.874903 0.166547
H49   H     H_    0.169840 0.290929 0.941110 0.130944
H50   H     H_    0.065879 0.325050 0.923508 0.176633
H51   H     H_    0.144193 0.443004 0.866996 0.166052
H52   H     H_    0.235502 0.402982 0.892467 0.110259
H53   H     H_    0.786019 0.637230 0.625098 0.166547
H54   H     H_    0.790931 0.669844 0.558891 0.130945
H55   H     H_    0.825050 0.565882 0.576493 0.176634
H56   H     H_    0.533703 0.292856 0.959276 0.099562
H57   H     H_    0.943006 0.644193 0.633004 0.166052
H58   H     H_    0.902987 0.735503 0.607533 0.110259
H59   H     H_    0.790930 0.330157 0.441109 0.130945
H60   H     H_    0.825050 0.434118 0.423507 0.176634
H61   H     H_    0.786019 0.362769 0.374902 0.166547
H62   H     H_    0.943006 0.355807 0.366996 0.166052
H63   H     H_    0.902986 0.264497 0.392466 0.110258
H64   H     H_    0.669843 0.209070 0.558891 0.130945
H65   H     H_    0.565882 0.174950 0.576493 0.176634
H66   H     H_    0.637230 0.213981 0.625098 0.166547
H67   H     H_    0.292858 0.533693 0.040725 0.099562
H68   H     H_    0.644193 0.056994 0.633004 0.166052
H69   H     H_    0.735503 0.097014 0.607534 0.110259
H70   H     H_    0.362769 0.213981 0.374902 0.166546
H71   H     H_    0.330156 0.209068 0.441109 0.130945
H72   H     H_    0.434117 0.174950 0.423507 0.176634
H73   H     H_    0.355807 0.056993 0.366995 0.166052
H74   H     H_    0.264497 0.097012 0.392466 0.110259
H75   H     H_    0.213981 0.362769 0.625098 0.166547
H76   H     H_    0.209069 0.330156 0.558891 0.130945
H77   H     H_    0.174950 0.434117 0.576493 0.176634
H78   H     H_    0.707143 0.533694 0.959275 0.099563
H79   H     H_    0.056993 0.355807 0.633004 0.166051
H80   H     H_    0.097012 0.264497 0.607534 0.110259
H81   H     H_    0.209070 0.669843 0.441109 0.130945
H82   H     H_    0.174950 0.565882 0.423507 0.176634
H83   H     H_    0.213982 0.637230 0.374902 0.166547
H84   H     H_    0.056994 0.644193 0.366996 0.166052
H85   H     H_    0.097014 0.735503 0.392466 0.110259
H86   H     H_    0.330157 0.790930 0.558891 0.130945
H87   H     H_    0.434118 0.825050 0.576493 0.176634
H88   H     H_    0.362770 0.786018 0.625098 0.166547
H89   H     H_    0.033693 0.207142 0.540725 0.099562
H90   H     H_    0.355807 0.943006 0.633004 0.166052
H91   H     H_    0.264497 0.902986 0.607534 0.110258
H92   H     H_    0.637231 0.786019 0.374902 0.166547
H93   H     H_    0.669844 0.790931 0.441109 0.130945
H94   H     H_    0.565883 0.825050 0.423506 0.176634
H95   H     H_    0.644193 0.943007 0.366996 0.166052
H96   H     H_    0.735503 0.902988 0.392466 0.110258
O1    O     O_3   0.500000 0.000000 0.250000 -0.429897
O2    O     O_R   0.500000 0.930770 0.634140 -0.554790
O3    O     O_R   0.930770 0.500000 0.365860 -0.554790
O4    O     O_R   0.069230 0.500000 0.634140 -0.554790
O5    O     O_R   0.000000 0.430770 0.865860 -0.554790
O6    O     O_R   0.000000 0.569230 0.134140 -0.554790
O7    O     O_R   0.569230 0.000000 0.865860 -0.554791
O8    O     O_R   0.430770 0.000000 0.134140 -0.554790
O9    O     O_R   0.000000 0.569230 0.865860 -0.554790
O10   O     O_R   0.000000 0.430770 0.134140 -0.554790
O11   O     O_R   0.430770 0.000000 0.865860 -0.554790
O12   O     O_3   0.500000 0.000000 0.750000 -0.429896
O13   O     O_R   0.569230 0.000000 0.134140 -0.554790
O14   O     O_R   0.402550 0.166630 0.280410 -0.548657
O15   O     O_R   0.597450 0.833370 0.719590 -0.535021
O16   O     O_R   0.833370 0.402550 0.280410 -0.548657
O17   O     O_R   0.166630 0.597450 0.719590 -0.535022
O18   O     O_R   0.597450 0.833370 0.280410 -0.548657
O19   O     O_R   0.402550 0.166630 0.719590 -0.535021
O20   O     O_R   0.166630 0.597450 0.280410 -0.548657
O21   O     O_R   0.833370 0.402550 0.719590 -0.535021
O22   O     O_R   0.402550 0.833370 0.719590 -0.548657
O23   O     O_3   0.000000 0.500000 0.250000 -0.429896
O24   O     O_R   0.597450 0.166630 0.280410 -0.535022
O25   O     O_R   0.833370 0.597450 0.719590 -0.548657
O26   O     O_R   0.166630 0.402550 0.280410 -0.535022
O27   O     O_R   0.597450 0.166630 0.719590 -0.548658
O28   O     O_R   0.402550 0.833370 0.280410 -0.535022
O29   O     O_R   0.166630 0.402550 0.719590 -0.548657
O30   O     O_R   0.833370 0.597450 0.280410 -0.535021
O31   O     O_R   0.902550 0.666630 0.780410 -0.548658
O32   O     O_R   0.097450 0.333370 0.219590 -0.535021
O33   O     O_R   0.333370 0.902550 0.780410 -0.548659
O34   O     O_3   0.000000 0.500000 0.750000 -0.429896
O35   O     O_R   0.666630 0.097450 0.219590 -0.535022
O36   O     O_R   0.097450 0.333370 0.780410 -0.548658
O37   O     O_R   0.902550 0.666630 0.219590 -0.535022
O38   O     O_R   0.666630 0.097450 0.780410 -0.548658
O39   O     O_R   0.333370 0.902550 0.219590 -0.535021
O40   O     O_R   0.902550 0.333370 0.219590 -0.548657
O41   O     O_R   0.097450 0.666630 0.780410 -0.535022
O42   O     O_R   0.333370 0.097450 0.219590 -0.548656
O43   O     O_R   0.666630 0.902550 0.780410 -0.535022
O44   O     O_R   0.097450 0.666630 0.219590 -0.548657
O45   O     O_R   0.500000 0.930770 0.365860 -0.554790
O46   O     O_R   0.902550 0.333370 0.780410 -0.535022
O47   O     O_R   0.666630 0.902550 0.219590 -0.548656
O48   O     O_R   0.333370 0.097450 0.780410 -0.535022
O49   O     O_R   0.500000 0.069230 0.634140 -0.554790
O50   O     O_R   0.069230 0.500000 0.365860 -0.554790
O51   O     O_R   0.930770 0.500000 0.634140 -0.554790
O52   O     O_R   0.500000 0.069230 0.365860 -0.554790
Zn1   Zn    Zn3+2 0.401050 0.000000 0.206670 0.907582
Zn2   Zn    Zn3+2 0.098950 0.500000 0.293330 0.907581
Zn3   Zn    Zn3+2 0.500000 0.901050 0.706670 0.907582
Zn4   Zn    Zn3+2 0.500000 0.098950 0.293330 0.907581
Zn5   Zn    Zn3+2 0.098950 0.500000 0.706670 0.907582
Zn6   Zn    Zn3+2 0.901050 0.500000 0.293330 0.907582
Zn7   Zn    Zn3+2 0.500000 0.098950 0.706670 0.907582
Zn8   Zn    Zn3+2 0.500000 0.901050 0.293330 0.907581
Zn9   Zn    Zn3+2 0.598950 0.000000 0.793330 0.907581
Zn10  Zn    Zn3+2 1.000000 0.401050 0.206670 0.907582
Zn11  Zn    Zn3+2 0.000000 0.598950 0.793330 0.907581
Zn12  Zn    Zn3+2 0.598950 0.000000 0.206670 0.907582
Zn13  Zn    Zn3+2 0.401050 0.000000 0.793330 0.907581
Zn14  Zn    Zn3+2 0.000000 0.598950 0.206670 0.907582
Zn15  Zn    Zn3+2 0.000000 0.401050 0.793330 0.907581
Zn16  Zn    Zn3+2 0.901050 0.500000 0.706670 0.907582

loop_
_geom_bond_atom_site_label_1
_geom_bond_atom_site_label_2
_ccdc_geom_bond_type
O4    Zn5   S    
O34   Zn15  S    
C37   O8    A    
C11   H39   S    
C38   C70   S    
C48   O35   A    
C126  C127  S    
C76   C125  A    
C15   H51   S    
O12   Zn3   S    
C54   O36   A    
C83   C113  A    
C22   H66   S    
C26   H79   S    
C94   H78   S    
C41   C114  A    
O6    Zn14  S    
C32   H95   S    
C39   O15   A    
C82   C114  A    
O33   Zn13  S    
C29   H82   S    
C15   C81   S    
C31   H86   S    
C101  H6    S    
C16   H49   S    
C10   H41   S    
C89   C112  A    
C26   C27   S    
C32   H96   S    
C127  H11   S    
C23   H73   S    
C27   H75   S    
O26   Zn2   S    
C37   C85   S    
C28   C29   S    
C34   C96   S    
C11   H37   S    
C17   C82   S    
O23   Zn6   S    
O14   Zn4   S    
O51   Zn16  S    
O23   Zn10  S    
C30   C31   S    
C49   O31   A    
C39   O43   A    
C33   H92   S    
C31   H87   S    
C9    H31   S    
C73   C126  S    
C75   C122  A    
C55   C62   S    
O31   Zn11  S    
C77   C94   A    
C5    H21   S    
C91   H45   S    
C17   C18   S    
C75   C128  S    
C79   C117  A    
O1    Zn8   S    
C63   C112  A    
C85   C119  A    
C50   O32   A    
C102  H7    S    
C47   O33   A    
C121  C124  A    
C25   H70   S    
C1    C109  A    
C118  O52   A    
C45   O44   A    
C32   C90   S    
C7    H28   S    
O52   Zn4   S    
C16   H50   S    
C8    C9    S    
C56   C72   T    
C23   C86   S    
O15   Zn3   S    
C89   C106  A    
C28   C88   S    
C11   H38   S    
C45   O20   A    
O22   Zn3   S    
O45   Zn8   S    
C102  C108  A    
C111  C116  A    
C51   C57   S    
C127  H10   S    
C77   C124  A    
C103  C106  A    
C51   O27   A    
O12   Zn13  S    
C93   C99   A    
C97   H12   S    
C43   O47   A    
C50   O26   A    
C14   H42   S    
C84   C102  A    
C30   H90   S    
C118  O45   A    
O19   Zn7   S    
C33   H94   S    
C16   H48   S    
C13   O50   A    
C4    H25   S    
C60   C68   T    
O36   Zn15  S    
C84   C116  A    
C5    H20   S    
O16   Zn6   S    
C21   C22   S    
C45   C72   S    
C8    C78   S    
C24   C41   S    
C44   C65   S    
C93   H67   S    
O12   Zn7   S    
C1    C113  A    
C90   C111  A    
C30   C89   S    
C19   C83   S    
C86   C103  A    
O18   Zn8   S    
C6    H30   S    
O29   Zn5   S    
C58   C70   T    
C29   H83   S    
C98   H23   S    
C43   O18   A    
C39   C69   S    
C106  H3    S    
C4    H24   S    
C51   O38   A    
C24   O4    A    
C42   O17   A    
C108  H4    S    
C36   O7    A    
C62   C66   T    
C23   H74   S    
C27   H76   S    
O49   Zn7   S    
O1    Zn12  S    
O47   Zn12  S    
C3    H15   S    
C73   C91   A    
C14   H44   S    
C92   H56   S    
O17   Zn5   S    
C20   H61   S    
C87   C110  A    
C96   C124  A    
C3    C128  S    
C26   C87   S    
C6    C77   S    
C31   H88   S    
C81   C99   A    
C18   H53   S    
C73   C123  A    
O39   Zn1   S    
O25   Zn16  S    
C126  H14   S    
C92   C95   A    
C57   C71   T    
C5    H22   S    
C86   C115  A    
C36   O11   A    
C53   O28   A    
C50   C58   S    
O8    Zn1   S    
C78   C95   A    
C103  H8    S    
C47   C61   S    
C25   H71   S    
C76   C93   A    
C20   H60   S    
C99   H34   S    
C52   C118  S    
C61   C67   T    
C37   O13   A    
C81   C120  A    
C21   C84   S    
O5    Zn15  S    
C17   H58   S    
O37   Zn14  S    
O20   Zn2   S    
O42   Zn1   S    
C100  C105  A    
O32   Zn10  S    
C22   H65   S    
C35   O10   A    
O27   Zn7   S    
C91   C97   A    
C42   O41   A    
C9    H33   S    
C9    H32   S    
C110  C113  A    
C107  C125  A    
C46   C71   S    
C6    C7    S    
C36   C74   S    
C109  C114  A    
C59   C69   T    
C12   H47   S    
C88   C109  A    
O30   Zn6   S    
C10   H40   S    
C74   C122  A    
C55   O37   A    
C3    H17   S    
C101  C104  A    
C80   C121  A    
O48   Zn13  S    
C8    H36   S    
C42   C67   S    
C54   O29   A    
C34   O5    A    
C1    C13   S    
C107  C121  A    
O44   Zn14  S    
O3    Zn6   S    
C75   C92   A    
O46   Zn15  S    
C6    H29   S    
C96   C120  A    
C100  H5    S    
C2    O2    A    
C12   H46   S    
C49   C59   S    
C52   C115  A    
O34   Zn16  S    
C28   H85   S    
C74   C117  A    
C2    C63   S    
O1    Zn1   S    
C83   C101  A    
C80   C98   A    
C18   H54   S    
C120  C125  A    
C82   C100  A    
C79   C97   A    
C26   H80   S    
C3    H16   S    
O11   Zn13  S    
C46   O21   A    
C21   H69   S    
C14   H43   S    
C8    H35   S    
C53   O39   A    
C13   O3    A    
C10   C79   S    
C128  H19   S    
C29   H81   S    
C105  H2    S    
C47   O22   A    
C28   H84   S    
C34   O9    A    
C126  H13   S    
C17   H57   S    
C52   C111  A    
C55   O30   A    
C44   O48   A    
C41   C110  A    
C63   C116  A    
O50   Zn2   S    
C64   C65   T    
C35   O6    A    
C19   C20   S    
O28   Zn8   S    
C78   C119  A    
C117  C123  A    
C49   O25   A    
C40   O16   A    
C25   H72   S    
O10   Zn10  S    
C48   C60   S    
C32   C33   S    
C20   H59   S    
C88   C105  A    
C40   O40   A    
C128  H18   S    
O21   Zn16  S    
O9    Zn11  S    
C7    H26   S    
C54   C64   S    
C18   H55   S    
O23   Zn2   S    
C43   C66   S    
C12   C80   S    
O23   Zn14  S    
C119  C122  A    
O1    Zn4   S    
C85   C123  A    
O34   Zn5   S    
O7    Zn9   S    
O2    Zn3   S    
C23   C25   S    
C21   H68   S    
C38   O42   A    
O35   Zn12  S    
C4    C76   S    
C53   C56   S    
C104  H89   S    
O24   Zn4   S    
C35   C107  S    
C10   C11   S    
O41   Zn11  S    
C19   H62   S    
C90   C108  A    
C87   C104  A    
C12   C14   S    
C4    C5    S    
O38   Zn9   S    
C7    H27   S    
O40   Zn10  S    
O43   Zn9   S    
C46   O46   A    
C40   C68   S    
C95   H1    S    
C94   C98   A    
O34   Zn11  S    
C38   O14   A    
O12   Zn9   S    
C127  H9    S    
C27   H77   S    
C15   H52   S    
O13   Zn12  S    
C22   H64   S    
C48   O24   A    
C112  C115  A    
C15   C16   S    
C44   O19   A    
C19   H63   S    
C30   H91   S    
C2    O49   A    
C24   O51   A    
C33   H93   S    
