data_mof_unit_45313.cif
_audit_creation_date              2012-12-10T17:02:29-0500
_audit_creation_method            fapswitch 2.2
_symmetry_space_group_name_H-M    P1
_symmetry_Int_Tables_number       1
_space_group_crystal_system       triclinic
_cell_length_a                    10.757557
_cell_length_b                    11.042166
_cell_length_c                    9.842715
_cell_angle_alpha                 110.226348
_cell_angle_beta                  96.091638
_cell_angle_gamma                 92.04733
_cell_volume                      1087.60003208

loop_
_atom_site_label
_atom_site_type_symbol
_atom_type_description
_atom_site_fract_x
_atom_site_fract_y
_atom_site_fract_z
_atom_type_partial_charge
C1    C     C_R   0.490621 0.254831 0.441612 0.861623
C2    C     C_R   0.509379 0.745168 0.558387 0.861610
C3    C     C_2   0.479552 0.116173 0.409654 -0.307032
C4    C     C_2   0.520448 0.883826 0.590344 -0.307037
C5    C     C_2   0.510230 0.068656 0.514591 -0.125923
C6    C     C_2   0.489755 0.931343 0.485410 -0.125927
C7    C     C_2   0.480693 0.524814 0.075152 0.333476
C8    C     C_2   0.519295 0.475182 0.924836 0.333568
C9    C     C_R   0.261882 0.485690 0.501151 0.809318
C10   C     C_R   0.738118 0.514315 0.498848 0.809289
C11   C     C_R   0.128205 0.538095 0.776859 0.279843
C12   C     C_R   0.871780 0.461902 0.223132 0.279846
C13   C     C_R   0.088942 0.627045 0.902698 0.084260
C14   C     C_R   0.911013 0.372925 0.097297 0.084259
C15   C     C_R   0.988055 0.700784 0.888433 0.264628
C16   C     C_R   0.011912 0.299198 0.111557 0.264611
C17   C     C_R   0.917862 0.672258 0.752331 -0.171891
C18   C     C_R   0.082131 0.327761 0.247645 -0.171918
C19   C     C_R   0.954570 0.579199 0.627121 -0.022544
C20   C     C_R   0.045431 0.420821 0.372864 -0.022537
C21   C     C_R   0.072593 0.529999 0.636841 -0.033209
C22   C     C_R   0.927407 0.470019 0.363150 -0.033191
C23   C     C_R   0.875045 0.532879 0.493647 -0.095417
C24   C     C_R   0.124957 0.467135 0.506343 -0.095410
Cu1   Cu    Cu3+1 0.521920 0.521810 0.644910 0.988415
Cu2   Cu    Cu3+1 0.478080 0.478190 0.355090 0.988403
H1    H     H_    0.834973 0.723546 0.744390 0.183834
H2    H     H_    0.165027 0.276486 0.255580 0.183851
H3    H     H_    0.448795 0.869219 0.377351 0.171273
H4    H     H_    0.551178 0.130781 0.622655 0.171262
H5    H     H_    0.556888 0.947552 0.700265 0.164094
H6    H     H_    0.443125 0.052445 0.299729 0.164097
H7    H     H_    0.555830 0.651753 0.922416 0.236484
H8    H     H_    0.444181 0.348248 0.077589 0.236463
N1    N     N_2   0.445130 0.445420 0.137360 -0.282001
N2    N     N_2   0.554870 0.554580 0.862640 -0.281990
O1    O     O_R   0.511700 0.332340 0.577400 -0.590654
O2    O     O_R   0.488300 0.667660 0.422600 -0.590666
O3    O     O_R   0.474680 0.295500 0.332650 -0.582451
O4    O     O_R   0.525320 0.704500 0.667350 -0.582447
O5    O     O_R   0.338170 0.518410 0.622370 -0.547269
O6    O     O_R   0.661830 0.481590 0.377630 -0.547282
O7    O     O_R   0.301150 0.481570 0.377630 -0.569573
O8    O     O_R   0.698850 0.518430 0.622370 -0.569563
Br1   Br    Br    0.063728 0.168071 0.946332 -0.443865
Br2   Br    Br    0.936211 0.831873 0.053670 -0.443846
Br3   Br    Br    0.215853 0.396312 0.798275 -0.494697
Br4   Br    Br    0.784160 0.603688 0.201692 -0.494673
N3    N     N_3   0.148476 0.637306 0.043842 -0.538701
H9    H     H_    0.080715 0.614588 0.101757 0.269048
H10   H     H_    0.183515 0.733388 0.099147 0.245466
N4    N     N_3   0.851467 0.362661 0.956154 -0.538704
H11   H     H_    0.919219 0.385344 0.898215 0.269046
H12   H     H_    0.816385 0.266594 0.900875 0.245468
N5    N     N_3   0.532291 0.339389 0.859973 -0.610291
H13   H     H_    0.453227 0.296135 0.785614 0.271246
H14   H     H_    0.613795 0.325778 0.809341 0.252461
N6    N     N_3   0.467718 0.660612 0.140021 -0.610268
H15   H     H_    0.546761 0.703831 0.214444 0.271303
H16   H     H_    0.386169 0.674223 0.190581 0.252435

loop_
_geom_bond_atom_site_label_1
_geom_bond_atom_site_label_2
_ccdc_geom_bond_type
C16   Br1   S    
C19   C23   A    
N5    H13   S    
C9    C24   S    
C8    N5    S    
C2    O4    A    
C10   C23   S    
C10   O6    A    
C2    O2    A    
C7    N6    S    
C11   Br3   S    
C1    O1    A    
C12   Br4   S    
Cu1   O1    S    
H7    N2    S    
N5    H14   S    
N6    H15   S    
C3    C5    D    
C7    C8    S    
C11   C13   A    
C5    C6    S    
C7    N1    D    
C13   N3    S    
C2    C4    S    
Cu1   O8    S    
C4    C6    D    
C12   C14   A    
C19   C21   A    
N4    H12   S    
Cu2   O7    S    
H8    N1    S    
C18   C20   A    
C13   C15   A    
Cu1   O4    S    
C3    H6    S    
C14   C16   A    
Cu2   O3    S    
C9    O7    A    
C4    H5    S    
C1    O3    A    
Cu1   N2    S    
N6    H16   S    
C17   H1    S    
C17   C19   A    
C12   C22   A    
Cu2   N1    S    
C6    H3    S    
C18   H2    S    
N4    H11   S    
Cu2   O6    S    
C16   C18   A    
N3    H9    S    
C8    N2    D    
C21   C24   A    
Cu1   O5    S    
C15   C17   A    
C22   C23   A    
Cu2   O2    S    
C9    O5    A    
C15   Br2   S    
C1    C3    S    
Cu1   Cu2   S    
C10   O8    A    
C11   C21   A    
C14   N4    S    
C20   C24   A    
C5    H4    S    
C20   C22   A    
N3    H10   S    
