data_mof_unit_12175.cif
_audit_creation_date              2012-12-10T17:51:21-0500
_audit_creation_method            fapswitch 2.2
_symmetry_space_group_name_H-M    P1
_symmetry_Int_Tables_number       1
_space_group_crystal_system       triclinic
_cell_length_a                    14.703203
_cell_length_b                    14.597346
_cell_length_c                    17.251105
_cell_angle_alpha                 105.72636
_cell_angle_beta                  73.721217
_cell_angle_gamma                 114.758073
_cell_volume                      3176.90930881

loop_
_atom_site_label
_atom_site_type_symbol
_atom_type_description
_atom_site_fract_x
_atom_site_fract_y
_atom_site_fract_z
_atom_type_partial_charge
C1    C     C_R   0.118241 0.688566 0.516228 0.877477
C2    C     C_R   0.881759 0.311433 0.483772 0.877476
C3    C     C_R   0.184093 0.797700 0.533574 -0.118544
C4    C     C_R   0.815906 0.202300 0.466426 -0.118544
C5    C     C_R   0.222021 0.967495 0.617175 -0.169965
C6    C     C_R   0.777978 0.032505 0.382825 -0.169964
C7    C     C_R   0.152993 0.867144 0.599858 0.121078
C8    C     C_R   0.847007 0.132856 0.400142 0.121078
C9    C     C_R   0.283672 0.830556 0.487006 0.287840
C10   C     C_R   0.716327 0.169444 0.512994 0.287840
C11   C     C_R   0.358419 0.923924 0.516399 0.037074
C12   C     C_R   0.641581 0.076076 0.483601 0.037074
C13   C     C_R   0.323879 0.995828 0.576839 0.057825
C14   C     C_R   0.676121 0.004172 0.423161 0.057825
C15   C     C_R   0.465582 0.949289 0.488070 0.086256
C16   C     C_R   0.534418 0.050710 0.511930 0.086256
C17   C     C_R   0.493400 0.124648 0.559247 -0.067522
C18   C     C_R   0.506600 0.875352 0.440753 -0.067522
C19   C     C_R   0.390893 0.096469 0.595023 -0.193720
C20   C     C_R   0.609107 0.903531 0.404977 -0.193720
C21   C     C_R   0.302251 0.340361 0.353633 -0.280357
C22   C     C_R   0.697749 0.659639 0.646367 -0.280357
C23   C     C_R   0.988584 0.500643 0.652387 0.814243
C24   C     C_R   0.011416 0.499356 0.347613 0.814243
C25   C     C_R   0.218181 0.369055 0.376506 0.081309
C26   C     C_R   0.781819 0.630945 0.623494 0.081309
C27   C     C_R   0.282209 0.484441 0.492332 0.100822
C28   C     C_R   0.717791 0.515559 0.507668 0.100822
C29   C     C_R   0.375030 0.466898 0.467558 -0.001414
C30   C     C_R   0.624970 0.533102 0.532442 -0.001414
C31   C     C_R   0.379498 0.387155 0.400174 0.081460
C32   C     C_R   0.620502 0.612845 0.599826 0.081460
C33   C     C_R   0.459989 0.520026 0.509387 -0.057091
C34   C     C_R   0.540010 0.479974 0.490613 -0.057090
C35   C     C_R   0.530144 0.387833 0.431835 0.335655
C36   C     C_R   0.469855 0.612167 0.568165 0.335655
C37   C     C_R   0.456300 0.348833 0.383454 -0.200853
C38   C     C_R   0.543699 0.651167 0.616546 -0.200852
C39   C     C_R   0.979466 0.491853 0.736919 -0.058117
C40   C     C_R   0.020533 0.508145 0.263081 -0.058118
C41   C     C_R   0.035406 0.443672 0.753201 -0.173152
C42   C     C_R   0.964591 0.556324 0.246798 -0.173153
C43   C     C_R   0.027475 0.433200 0.833129 0.211167
C44   C     C_R   0.972521 0.566794 0.166870 0.211168
C45   C     C_R   0.963400 0.473478 0.897603 0.160333
C46   C     C_R   0.036596 0.526516 0.102396 0.160333
C47   C     C_R   0.905014 0.518345 0.881032 -0.189766
C48   C     C_R   0.094983 0.481651 0.118967 -0.189767
C49   C     C_R   0.913007 0.527690 0.801072 -0.175851
C50   C     C_R   0.086991 0.472308 0.198928 -0.175851
C51   C     C_2   0.958632 0.473275 0.983149 -0.214594
C52   C     C_2   0.041364 0.526718 0.016850 -0.214594
Cu1   Cu    Cu3+1 0.916740 0.524770 0.521640 0.981337
Cu2   Cu    Cu3+1 0.083260 0.475230 0.478360 0.981337
H1    H     H_    0.084759 0.413246 0.703453 0.156777
H2    H     H_    0.915238 0.586749 0.296546 0.156777
H3    H     H_    0.539175 0.205305 0.569034 0.227551
H4    H     H_    0.460825 0.794695 0.430966 0.227551
H5    H     H_    0.453644 0.281547 0.336474 0.183637
H6    H     H_    0.546356 0.718453 0.663526 0.183637
H7    H     H_    0.735576 0.469877 0.449685 0.179231
H8    H     H_    0.264424 0.530123 0.550315 0.179231
H9    H     H_    0.840934 0.666004 0.659764 0.121643
H10   H     H_    0.159066 0.333996 0.340235 0.121643
H11   H     H_    0.306031 0.280753 0.300729 0.144656
H12   H     H_    0.693969 0.719247 0.699271 0.144656
H13   H     H_    0.131665 0.435957 0.210368 0.158426
H14   H     H_    0.868335 0.564043 0.789632 0.158425
H15   H     H_    0.114304 0.566271 0.980305 0.163693
H16   H     H_    0.885692 0.433722 0.019694 0.163693
H17   H     H_    0.855128 0.548476 0.930450 0.145837
H18   H     H_    0.144870 0.451520 0.069550 0.145837
H19   H     H_    0.363547 0.154357 0.635891 0.150980
H20   H     H_    0.636452 0.845643 0.364109 0.150980
H21   H     H_    0.197400 0.022852 0.664763 0.145993
H22   H     H_    0.802600 0.977148 0.335237 0.145993
N1    N     N_R   0.208390 0.438070 0.445820 -0.191841
N2    N     N_R   0.791610 0.561930 0.554180 -0.191841
O1    O     O_R   0.020090 0.662480 0.528530 -0.597898
O2    O     O_R   0.979910 0.337520 0.471470 -0.597898
O3    O     O_R   0.160710 0.620650 0.491980 -0.521737
O4    O     O_R   0.839290 0.379350 0.508020 -0.521737
O5    O     O_R   0.921540 0.523360 0.633990 -0.580061
O6    O     O_R   0.078460 0.476640 0.366010 -0.580062
O7    O     O_R   0.062170 0.481520 0.597440 -0.603024
O8    O     O_R   0.937830 0.518480 0.402560 -0.603025
Cl1   Cl    Cl    0.592376 0.304211 0.424072 -0.690532
Cl2   Cl    Cl    0.407624 0.695789 0.575928 -0.690532
C53   C     C_3   0.915162 0.623384 0.152073 -0.864321
H23   H     H_    0.878345 0.659517 0.210574 0.226813
H24   H     H_    0.968588 0.685081 0.116893 0.242828
H25   H     H_    0.854296 0.570049 0.117424 0.230236
C54   C     C_3   0.084832 0.376607 0.847926 -0.864321
H26   H     H_    0.121650 0.340475 0.789424 0.226812
H27   H     H_    0.145697 0.429940 0.882575 0.230237
H28   H     H_    0.031404 0.314909 0.883104 0.242828
Cl3   Cl    Cl    0.697386 0.231971 0.616706 -0.623754
Cl4   Cl    Cl    0.302614 0.768028 0.383293 -0.623754
C55   C     C_3   0.952246 0.162824 0.347378 -0.826797
H29   H     H_    0.009744 0.179434 0.384495 0.243571
H30   H     H_    0.959711 0.100520 0.295193 0.221645
H31   H     H_    0.968721 0.231054 0.321269 0.223519
C56   C     C_3   0.047754 0.837176 0.652622 -0.826797
H32   H     H_    0.990256 0.820566 0.615504 0.243571
H33   H     H_    0.031279 0.768946 0.678731 0.223519
H34   H     H_    0.040289 0.899480 0.704807 0.221645

loop_
_geom_bond_atom_site_label_1
_geom_bond_atom_site_label_2
_ccdc_geom_bond_type
C15   C18   A    
C9    Cl4   S    
C49   H14   S    
C29   C33   A    
C27   C29   A    
C4    C8    A    
Cu2   O6    S    
C47   C49   A    
C35   Cl1   S    
Cu1   Cu2   S    
C36   Cl2   S    
C21   C31   A    
C54   H26   S    
C22   C32   A    
C25   N1    A    
Cu1   O1    S    
C8    C55   S    
C3    C7    A    
C23   C39   S    
C45   C51   S    
C1    O3    A    
C15   C16   A    
C46   C52   S    
C33   C36   A    
C34   C35   A    
C23   O5    A    
C22   H12   S    
C52   H15   S    
C42   H2    S    
C11   C15   A    
C18   H4    S    
C41   H1    S    
C12   C16   A    
C16   C17   A    
Cu1   O8    S    
C51   H16   S    
C32   C38   A    
C53   H24   S    
C28   N2    A    
C50   H13   S    
C5    C13   A    
Cu2   N1    S    
C21   H11   S    
C28   H7    S    
C48   C50   A    
C54   H27   S    
C7    C56   S    
C41   C43   A    
C42   C44   A    
C48   H18   S    
C43   C54   S    
C44   C46   A    
Cu2   O2    S    
C45   C47   A    
C46   C48   A    
C30   C34   A    
C51   C52   D    
C14   C20   A    
C19   H19   S    
C39   C41   A    
C5    C7    A    
C13   C19   A    
C6    C8    A    
C31   C37   A    
Cu1   O4    S    
C1    C3    S    
C25   H10   S    
C5    H21   S    
C10   Cl3   S    
C2    C4    S    
C26   H9    S    
C3    C9    A    
C27   H8    S    
C6    C14   A    
C43   C45   A    
C55   H29   S    
C33   C34   A    
C20   H20   S    
C56   H33   S    
C26   N2    A    
C53   H25   S    
C9    C11   A    
C47   H17   S    
C37   H5    S    
C10   C12   A    
C38   H6    S    
C39   C49   A    
C12   C14   A    
C54   H28   S    
C23   O7    A    
C1    O1    A    
C2    O4    A    
C4    C10   A    
C36   C38   A    
C21   C25   A    
C24   C40   S    
C35   C37   A    
C27   N1    A    
Cu2   O7    S    
C6    H22   S    
Cu1   O5    S    
C28   C30   A    
Cu1   N2    S    
C24   O6    A    
C29   C31   A    
C30   C32   A    
C11   C13   A    
C40   C50   A    
C40   C42   A    
C17   C19   A    
C56   H34   S    
C18   C20   A    
C2    O2    A    
C55   H31   S    
C22   C26   A    
C56   H32   S    
C53   H23   S    
C24   O8    A    
C55   H30   S    
Cu2   O3    S    
C44   C53   S    
C17   H3    S    
