data_mof_unit_6876.cif
_audit_creation_date              2013-03-05T15:43:30-0500
_audit_creation_method            fapswitch 2.2
_symmetry_space_group_name_H-M    P1
_symmetry_Int_Tables_number       1
_space_group_crystal_system       triclinic
_cell_length_a                    14.478371
_cell_length_b                    16.200463
_cell_length_c                    6.950439
_cell_angle_alpha                 90.088428
_cell_angle_beta                  81.35232
_cell_angle_gamma                 90.017274
_cell_volume                      1611.7338718

loop_
_atom_site_label
_atom_site_type_symbol
_atom_site_description
_atom_site_fract_x
_atom_site_fract_y
_atom_site_fract_z
_atom_type_partial_charge
O1    O     O_R   0.337460 0.413110 0.524760 -0.517841
O2    O     O_R   0.662540 0.913110 0.475240 -0.517660
O3    O     O_R   0.348690 0.587910 0.191230 -0.510858
O4    O     O_R   0.651310 0.087910 0.808770 -0.510702
O5    O     O_R   0.166530 0.586890 0.082470 -0.541127
O6    O     O_R   0.833470 0.086890 0.917530 -0.540102
C1    C     C_R   0.369668 0.617343 0.355021 0.890244
C2    C     C_R   0.630231 0.117295 0.645143 0.891442
O7    O     O_R   0.348700 0.413830 0.191250 -0.591789
O8    O     O_R   0.651300 0.913830 0.808750 -0.589879
O9    O     O_R   0.166530 0.411570 0.082490 -0.577521
O10   O     O_R   0.833470 0.911570 0.917510 -0.579192
C3    C     C_R   0.372719 0.387446 0.353898 0.869955
C4    C     C_R   0.627333 0.887423 0.645944 0.868376
O11   O     O_R   0.337460 0.588430 0.524740 -0.538164
O12   O     O_R   0.662540 0.088430 0.475260 -0.538375
O13   O     O_3   0.192230 0.499460 0.407330 -0.296287
O14   O     O_3   0.807770 0.999460 0.592670 -0.297110
V1    V     V_3+5 0.263080 0.500100 0.108540 1.229088
V2    V     V_3+5 0.736920 0.000100 0.891460 1.232780
O15   O     O_R   0.155290 0.412090 0.756570 -0.545892
O16   O     O_R   0.844710 0.912090 0.243430 -0.538924
C5    C     C_R   0.136642 0.379798 0.930665 0.903921
C6    C     C_R   0.865208 0.881142 0.068119 0.909763
O17   O     O_R   0.155290 0.586170 0.756550 -0.571675
O18   O     O_R   0.844710 0.086170 0.243450 -0.573275
C7    C     C_R   0.132916 0.615076 0.932903 0.918846
C8    C     C_R   0.867746 0.114528 0.067158 0.913941
V3    V     V_3+5 0.240910 0.499900 0.616030 1.226191
V4    V     V_3+5 0.759090 0.999900 0.383970 1.230943
O19   O     O_3   0.311760 0.500540 0.867100 -0.238968
O20   O     O_3   0.688240 0.000540 0.132900 -0.238353
C9    C     C_3   0.104075 0.761277 0.053601 -0.228200
C10   C     C_3   0.897097 0.260654 0.952366 -0.201180
H1    H     H_    0.139836 0.744399 0.178761 0.128319
H2    H     H_    0.862080 0.246271 0.824390 0.147750
H3    H     H_    0.160345 0.785780 0.941422 0.146601
H4    H     H_    0.840283 0.283294 0.066106 0.143279
C11   C     C_3   0.028940 0.830244 0.109097 -0.011567
C12   C     C_3   0.971161 0.329974 0.903466 -0.010410
H5    H     H_    0.057402 0.886679 0.031472 0.176747
H6    H     H_    0.943922 0.383027 0.995455 0.184649
C13   C     C_3   0.973744 0.655268 0.124626 0.384223
C14   C     C_3   0.025655 0.153466 0.870692 0.388560
C15   C     C_3   0.027381 0.712563 0.778680 -0.209361
C16   C     C_3   0.978007 0.209324 0.219730 -0.204329
C17   C     C_3   0.060028 0.683794 0.971249 -0.166637
C18   C     C_3   0.941641 0.182341 0.028843 -0.179296
H7    H     H_    0.991610 0.661008 0.716113 0.181866
H8    H     H_    0.012694 0.156661 0.279940 0.182545
H9    H     H_    0.089172 0.728153 0.669003 0.099775
H10   H     H_    0.917587 0.226262 0.331592 0.104439
C19   C     C_3   0.933724 0.807375 0.035410 -0.167873
C20   C     C_3   0.068975 0.305186 0.962644 -0.201417
C21   C     C_3   0.892572 0.721839 0.126191 0.224848
C22   C     C_3   0.107543 0.219633 0.863732 0.199946
C23   C     C_3   0.962839 0.789594 0.809991 -0.042462
C24   C     C_3   0.045291 0.284824 0.186968 -0.033730
H11   H     H_    0.004445 0.843366 0.745016 0.146527
H12   H     H_    0.007073 0.338678 0.261148 0.139368
H13   H     H_    0.847302 0.697654 0.024621 0.105450
H14   H     H_    0.155217 0.193701 0.957355 0.119180
C25   C     C_2   0.435493 0.688132 0.348149 -0.080181
C26   C     C_2   0.564364 0.188091 0.652233 -0.078712
C27   C     C_2   0.447089 0.732595 0.511857 0.282029
C28   C     C_2   0.552202 0.232030 0.488322 0.283580
H15   H     H_    0.555809 0.776562 0.771173 0.086561
H16   H     H_    0.443995 0.276416 0.228232 0.086023
C29   C     C_2   0.559386 0.819737 0.651052 -0.079919
C30   C     C_2   0.440504 0.319610 0.348593 -0.079108
C31   C     C_2   0.508102 0.806998 0.505680 0.087229
C32   C     C_2   0.491513 0.306684 0.494337 0.084931
N1    N     N_3   0.884045 0.777760 0.700661 -0.426804
H17   H     H_    0.819593 0.772098 0.789604 0.205886
H18   H     H_    0.878871 0.828744 0.610931 0.244468
N2    N     N_3   0.128149 0.269697 0.282586 -0.423832
H19   H     H_    0.189945 0.263562 0.185181 0.199715
H20   H     H_    0.140071 0.321068 0.366189 0.225396
N3    N     N_R   0.940676 0.572987 0.070181 0.076366
O21   O     O_R   0.955583 0.507816 0.170295 -0.395100
O22   O     O_R   0.899591 0.563161 0.917525 -0.383521
N4    N     N_R   0.058974 0.070883 0.922547 0.077593
O23   O     O_R   0.040967 0.005617 0.825194 -0.403492
O24   O     O_R   0.103135 0.060855 0.070725 -0.385717
N5    N     N_3   0.501871 0.870990 0.364725 -0.467513
H21   H     H_    0.548009 0.857634 0.238111 0.202487
H22   H     H_    0.433695 0.873511 0.332450 0.190427
N6    N     N_3   0.497836 0.370746 0.635529 -0.467366
H23   H     H_    0.451891 0.357421 0.762337 0.199763
H24   H     H_    0.566119 0.373481 0.667146 0.193826
N7    N     N_R   0.402103 0.707882 0.701424 0.077398
O25   O     O_R   0.344488 0.758365 0.803800 -0.408357
O26   O     O_R   0.436392 0.646387 0.787980 -0.318271
N8    N     N_R   0.596318 0.206475 0.298571 0.078612
O27   O     O_R   0.654219 0.256205 0.194844 -0.403482
O28   O     O_R   0.561322 0.144755 0.213621 -0.319151
N9    N     N_3   0.486845 0.707605 0.160595 -0.450257
H25   H     H_    0.557844 0.713489 0.171028 0.208386
H26   H     H_    0.460904 0.762228 0.110019 0.206204
N10   N     N_3   0.513589 0.208082 0.840128 -0.450439
H27   H     H_    0.442489 0.213907 0.830652 0.203230
H28   H     H_    0.539790 0.262826 0.889913 0.207305
N11   N     N_3   0.016846 0.849185 0.318185 -0.492224
H29   H     H_    0.995247 0.910515 0.339039 0.226125
H30   H     H_    0.081989 0.848698 0.365995 0.192291
N12   N     N_3   0.974904 0.356595 0.700894 -0.476547
H31   H     H_    0.033827 0.332564 0.616574 0.194017
H32   H     H_    0.981596 0.420865 0.693509 0.239999
N13   N     N_3   0.006159 0.648923 0.316547 -0.467773
H33   H     H_    0.997958 0.704638 0.390979 0.198876
H34   H     H_    0.969226 0.605272 0.407955 0.267356
N14   N     N_3   0.990422 0.147026 0.681887 -0.463383
H35   H     H_    0.994902 0.203284 0.610137 0.169054
H36   H     H_    0.027859 0.104678 0.587308 0.265466
N15   N     N_R   0.827197 0.727651 0.310302 0.073763
O29   O     O_R   0.819886 0.666110 0.431561 -0.327335
O30   O     O_R   0.752774 0.772651 0.312483 -0.396948
N16   N     N_R   0.169266 0.225192 0.675359 0.055753
O31   O     O_R   0.179358 0.160400 0.563350 -0.324047
O32   O     O_R   0.241215 0.273802 0.663254 -0.400040

loop_
_geom_bond_atom_site_label_1
_geom_bond_atom_site_label_2
_geom_bond_distance
_ccdc_geom_bond_type
C25   C27   1.377161 D    
O6    C8    1.296899 A    
O13   V3    1.705382 S    
N1    H17   1.043069 S    
O4    C2    1.311220 A    
V1    O19   1.719660 S    
N14   H36   1.043196 S    
N9    H25   1.045643 S    
C24   N2    1.476935 S    
C11   H5    1.109615 S    
N5    H21   1.044133 S    
C15   C23   1.554560 S    
C9    C11   1.566444 S    
N12   H32   1.046300 S    
C10   C12   1.554808 S    
O16   C6    1.309050 A    
N2    H20   1.043383 S    
O3    C1    1.310664 A    
N13   H34   1.043379 S    
V2    O20   1.719641 S    
C23   H11   1.115694 S    
N12   H31   1.035369 S    
C15   H9    1.113841 S    
C13   N3    1.483861 S    
N15   O29   1.300473 A    
C16   H10   1.113551 S    
C15   C17   1.557041 S    
C23   N1    1.475039 S    
C29   C31   1.356357 D    
O7    C3    1.304382 A    
N16   O31   1.300990 A    
N9    H26   1.043347 S    
O5    C7    1.296062 A    
O7    V1    2.009558 S    
C28   C32   1.491964 S    
O8    V2    2.007805 S    
N15   O30   1.299331 A    
C14   N4    1.485493 S    
O3    V1    2.025088 S    
O14   V4    1.705402 S    
O18   C8    1.304772 A    
C13   C17   1.584717 S    
C10   H2    1.112389 S    
C28   N8    1.436634 S    
N5    H22   1.045448 S    
C2    O12   1.289973 A    
C31   N5    1.439613 S    
C16   C24   1.558947 S    
N1    H18   1.045203 S    
N10   H28   1.043313 S    
N14   H35   1.036929 S    
C32   N6    1.439554 S    
O11   V3    2.036801 S    
C16   C18   1.561003 S    
C19   C21   1.600782 S    
O17   V3    2.019077 S    
C20   C22   1.608573 S    
N2    H19   1.042306 S    
O8    C4    1.303987 A    
N7    O25   1.300435 A    
N3    O22   1.301601 A    
C19   C23   1.586030 S    
O13   V1    2.173611 S    
C1    O11   1.290161 A    
C6    C19   1.547898 S    
C27   C31   1.491041 S    
O15   V3    2.038049 S    
C9    H3    1.113086 S    
H15   C29   1.085243 S    
C26   C28   1.377865 D    
N7    O26   1.301108 A    
C14   C22   1.593498 S    
C15   H7    1.105106 S    
O9    V1    2.029279 S    
O10   V2    2.030268 S    
O1    V3    2.016237 S    
N11   H30   1.046082 S    
N8    O28   1.301148 A    
C1    C25   1.487129 S    
C2    C26   1.487846 S    
C14   N14   1.481219 S    
C13   C21   1.594148 S    
N6    H24   1.045427 S    
O18   V4    2.020644 S    
N4    O24   1.301735 A    
O15   C5    1.309345 A    
C9    C17   1.554686 S    
C4    C29   1.469825 S    
C22   H14   1.101107 S    
O1    C3    1.288441 A    
O12   V4    2.036017 S    
C5    C20   1.550790 S    
C12   N12   1.466359 S    
C20   C24   1.580533 S    
C7    C17   1.529457 S    
C27   N7    1.436631 S    
C16   H8    1.104446 S    
C8    C18   1.528722 S    
O16   V4    2.036466 S    
C10   H4    1.113483 S    
C22   N16   1.472885 S    
C12   H6    1.107122 S    
C11   N11   1.469325 S    
O5    V1    2.010474 S    
O17   C7    1.305977 A    
O6    V2    2.009493 S    
O10   C6    1.302430 A    
C12   C20   1.584940 S    
O2    V4    2.017016 S    
C25   N9    1.435721 S    
N13   H33   1.037594 S    
V4    O20   2.153116 S    
C11   C19   1.584753 S    
C21   N15   1.475717 S    
C21   H13   1.104360 S    
O9    C5    1.304322 A    
N10   H27   1.045650 S    
C9    H1    1.111691 S    
O14   V2    2.173582 S    
N8    O27   1.300466 A    
O2    C4    1.288507 A    
N16   O32   1.298363 A    
N3    O21   1.301171 A    
O4    V2    2.026858 S    
C26   N10   1.435607 S    
C10   C18   1.553634 S    
N6    H23   1.044084 S    
V3    O19   2.153085 S    
N4    O23   1.301713 A    
C3    C30   1.470345 S    
N11   H29   1.045027 S    
H16   C30   1.085154 S    
C30   C32   1.356889 D    
C13   N13   1.482867 S    
C24   H12   1.116388 S    
C14   C18   1.582203 S    
