data_mof_unit_53267.cif
_audit_creation_date              2012-12-10T19:06:24-0500
_audit_creation_method            fapswitch 2.2
_symmetry_space_group_name_H-M    P1
_symmetry_Int_Tables_number       1
_space_group_crystal_system       triclinic
_cell_length_a                    23.455264
_cell_length_b                    10.880523
_cell_length_c                    9.584038
_cell_angle_alpha                 90.215001
_cell_angle_beta                  89.254215
_cell_angle_gamma                 90.933437
_cell_volume                      2445.35250354

loop_
_atom_site_label
_atom_site_type_symbol
_atom_type_description
_atom_site_fract_x
_atom_site_fract_y
_atom_site_fract_z
_atom_type_partial_charge
C1    C     C_R   0.499775 0.262571 0.499112 0.803023
C2    C     C_R   0.969857 0.324889 0.349233 -0.220297
C3    C     C_R   0.029567 0.323377 0.349197 0.162573
C4    C     C_R   0.060462 0.410516 0.430161 -0.020379
C5    C     C_R   0.030146 0.497637 0.510737 -0.063828
C6    C     C_R   0.059872 0.585274 0.592153 -0.005161
C7    C     C_R   0.029391 0.671103 0.672174 -0.156359
C8    C     C_R   0.970008 0.670773 0.671324 -0.164960
C9    C     C_R   0.120668 0.414708 0.433414 0.561589
C10   C     C_R   0.119573 0.585171 0.591416 0.537608
C11   C     C_R   0.239376 0.597979 0.441336 -0.108092
C12   C     C_R   0.391264 0.502306 0.500774 0.794601
C13   C     C_R   0.299002 0.599450 0.435567 0.213675
C14   C     C_R   0.328991 0.505170 0.502878 -0.085557
C15   C     C_R   0.298882 0.413255 0.576443 -0.275518
C16   C     C_R   0.239513 0.412248 0.580261 -0.090421
C17   C     C_R   0.209623 0.504117 0.512150 0.292744
C18   C     C_R   0.758764 0.412029 0.574704 -0.171986
C19   C     C_R   0.699545 0.412918 0.572981 -0.280883
C20   C     C_R   0.671155 0.503538 0.498908 -0.071682
C21   C     C_R   0.702453 0.596252 0.427415 0.167388
C22   C     C_R   0.762739 0.593611 0.427428 0.137731
C23   C     C_R   0.500479 0.736893 0.500098 0.823314
C24   C     C_R   0.790449 0.501637 0.502253 0.343060
C25   C     C_R   0.499100 0.062103 0.618159 0.046785
C26   C     C_R   0.500318 0.129347 0.495108 -0.164029
C27   C     C_R   0.503042 0.061449 0.367401 0.241229
C28   C     C_R   0.504395 0.932441 0.370898 -0.291587
C29   C     C_R   0.501698 0.868993 0.498409 -0.131205
C30   C     C_R   0.499692 0.938097 0.619708 0.053703
C31   C     C_3   0.495220 0.928338 0.774547 -0.444066
C32   C     C_3   0.494320 0.070094 0.774083 0.090454
C33   C     C_R   0.536275 0.576172 0.072672 0.191250
C34   C     C_R   0.608787 0.500894 0.499351 0.842597
C35   C     C_R   0.459866 0.436984 0.077168 -0.040042
C36   C     C_R   0.458946 0.437425 0.929620 0.194680
C37   C     C_R   0.537303 0.573516 0.925729 0.192305
C38   C     C_3   0.601254 0.572233 0.922612 -0.074129
C39   C     C_3   0.599627 0.581754 0.081018 -0.511041
C40   C     C_R   0.880030 0.583563 0.587027 0.571384
C41   C     C_R   0.879976 0.414097 0.427927 0.558207
C42   C     C_R   0.939785 0.411382 0.428511 -0.041651
C43   C     C_R   0.969907 0.497781 0.509877 -0.018149
C44   C     C_R   0.939812 0.584741 0.590245 -0.014153
Cu1   Cu    Cu3+1 0.500000 0.499980 0.640670 0.937035
Cu2   Cu    Cu3+1 0.500000 0.500020 0.359330 0.952230
H1    H     H_    0.947186 0.257654 0.286265 0.187225
H2    H     H_    0.675727 0.342067 0.628719 0.167361
H3    H     H_    0.506488 0.882642 0.272862 0.175792
H4    H     H_    0.454021 0.885589 0.808678 0.169314
H5    H     H_    0.533583 0.887326 0.821278 0.196914
H6    H     H_    0.452872 0.107089 0.811111 0.107619
H7    H     H_    0.427668 0.385491 0.135019 0.162466
H8    H     H_    0.620813 0.653443 0.869231 0.159016
H9    H     H_    0.618044 0.501687 0.134971 0.228739
H10   H     H_    0.614700 0.672897 0.119159 0.189394
H11   H     H_    0.051321 0.739062 0.735597 0.187538
H12   H     H_    0.947886 0.738424 0.734028 0.186537
H13   H     H_    0.215996 0.669361 0.389586 0.157215
H14   H     H_    0.321418 0.341074 0.629080 0.151053
H15   H     H_    0.216629 0.339851 0.635667 0.152211
H16   H     H_    0.780238 0.341473 0.632478 0.157804
N1    N     N_R   0.851527 0.499599 0.505979 -0.446671
N2    N     N_R   0.148496 0.501049 0.512800 -0.471981
N3    N     N_R   0.500360 0.500930 0.147930 -0.200790
N4    N     N_R   0.500360 0.500890 0.852020 -0.190787
O1    O     O_R   0.500000 0.319640 0.618810 -0.599703
O2    O     O_2   0.850436 0.332658 0.349323 -0.543678
O3    O     O_2   0.151480 0.334412 0.357327 -0.494451
O4    O     O_2   0.148638 0.668179 0.669026 -0.537523
O5    O     O_R   0.500010 0.319680 0.381230 -0.539982
O6    O     O_R   0.417880 0.499940 0.618820 -0.591953
O7    O     O_R   0.417880 0.499980 0.381240 -0.595967
O8    O     O_R   0.499990 0.680320 0.618770 -0.586506
O9    O     O_R   0.500000 0.680360 0.381190 -0.577406
O10   O     O_R   0.582120 0.500020 0.618760 -0.550796
O11   O     O_R   0.582120 0.500060 0.381180 -0.566445
O12   O     O_2   0.850538 0.665451 0.664215 -0.542893
N5    N     N_2   0.673297 0.693275 0.360580 -0.440629
H17   H     H_    0.693214 0.727155 0.272011 0.245401
C45   C     C_3   0.654694 0.790199 0.453582 -0.682365
H18   H     H_    0.692111 0.838665 0.499396 0.226691
H19   H     H_    0.627258 0.752515 0.539003 0.222762
H20   H     H_    0.629530 0.857507 0.394375 0.227167
N6    N     N_3   0.796577 0.683930 0.354024 -0.571534
H21   H     H_    0.785372 0.771214 0.389842 0.239937
H22   H     H_    0.787643 0.677241 0.247698 0.215193
N7    N     N_2   0.503805 0.120138 0.235048 -0.397281
H23   H     H_    0.535229 0.087596 0.168939 0.256333
C46   C     C_3   0.448808 0.120163 0.168477 -0.650995
H24   H     H_    0.434113 0.024538 0.146089 0.213331
H25   H     H_    0.452285 0.170524 0.068297 0.222782
H26   H     H_    0.416871 0.166393 0.236406 0.231926
N8    N     N_2   0.543204 0.127910 0.842319 -0.406006
H27   H     H_    0.535242 0.216131 0.875986 0.263799
C47   C     C_3   0.599717 0.115443 0.780958 -0.636642
H28   H     H_    0.632000 0.150747 0.855385 0.211589
H29   H     H_    0.603428 0.169962 0.683455 0.219510
H30   H     H_    0.609133 0.017785 0.758087 0.226289
N9    N     N_3   0.058128 0.232851 0.266161 -0.505173
H31   H     H_    0.044023 0.145908 0.299126 0.221787
H32   H     H_    0.045978 0.243790 0.162409 0.222916
N10   N     N_3   0.412460 0.372226 0.867045 -0.627576
H33   H     H_    0.426215 0.319220 0.783299 0.253828
H34   H     H_    0.381843 0.435094 0.837167 0.250355
N11   N     N_3   0.624262 0.455031 0.873730 -0.528783
H35   H     H_    0.667945 0.455634 0.894139 0.227438
H36   H     H_    0.605763 0.381897 0.929705 0.222977
N12   N     N_2   0.327617 0.697992 0.365077 -0.436823
H37   H     H_    0.362017 0.672973 0.304161 0.272407
C48   C     C_3   0.339714 0.803645 0.452403 -0.664660
H38   H     H_    0.359682 0.877907 0.388280 0.228663
H39   H     H_    0.369657 0.778813 0.536329 0.213333
H40   H     H_    0.299660 0.838861 0.499761 0.249400

loop_
_geom_bond_atom_site_label_1
_geom_bond_atom_site_label_2
_ccdc_geom_bond_type
C32   N8    S    
C35   H7    S    
C9    N2    A    
C41   C42   A    
N7    C46   S    
C19   C20   A    
C45   H18   S    
C33   N3    A    
C7    C8    A    
N6    H21   S    
C26   C27   A    
C1    O5    A    
C40   N1    A    
Cu1   O10   S    
C18   C24   A    
C23   C29   S    
C28   C29   A    
C9    O3    S    
N12   C48   S    
C17   N2    S    
C30   C31   S    
C36   N4    A    
N11   H35   S    
C35   N3    A    
C15   C16   A    
C47   H30   S    
C18   C19   A    
C15   H14   S    
C22   N6    S    
C32   H6    S    
C13   N12   S    
C8    H12   S    
C3    N9    S    
C39   H9    S    
C39   H10   S    
C16   C17   A    
C47   H29   S    
Cu1   O1    S    
C13   C14   A    
C29   C30   A    
C20   C34   S    
C25   C32   S    
C5    C43   A    
C12   O7    A    
C37   N4    A    
Cu1   O6    S    
C27   N7    S    
C11   H13   S    
Cu2   O9    S    
C45   H19   S    
C41   O2    S    
N6    H22   S    
C38   C39   S    
Cu2   N3    S    
C48   H39   S    
C23   O9    A    
N5    C45   S    
C19   H2    S    
C18   H16   S    
C25   C26   A    
Cu1   Cu2   S    
C33   C37   A    
Cu1   O8    S    
C35   C36   A    
C38   N11   S    
C43   C44   A    
C37   C38   S    
C28   H3    S    
C46   H25   S    
C31   C32   S    
C38   H8    S    
C47   H28   S    
C21   N5    S    
N9    H32   S    
N10   H34   S    
C33   C39   S    
N7    H23   S    
N8    C47   S    
Cu2   O5    S    
C10   O4    S    
C12   C14   S    
C24   N1    S    
C36   N10   S    
C1    C26   S    
C22   C24   A    
C42   C43   A    
C41   N1    A    
C23   O8    A    
C3    C4    A    
N10   H33   S    
C45   H20   S    
C46   H26   S    
C25   C30   A    
C11   C17   A    
C48   H38   S    
C10   N2    A    
C8    C44   A    
C31   H5    S    
C4    C5    A    
C6    C10   A    
Cu2   O11   S    
C6    C7    A    
C2    H1    S    
C2    C3    A    
C34   O11   A    
N12   H37   S    
C11   C13   A    
C46   H24   S    
C5    C6    A    
N11   H36   S    
C2    C42   A    
N9    H31   S    
C1    O1    A    
C48   H40   S    
C40   O12   S    
C12   O6    A    
N8    H27   S    
N5    H17   S    
C40   C44   A    
C20   C21   A    
C16   H15   S    
Cu1   N4    S    
C14   C15   A    
C31   H4    S    
C4    C9    A    
C21   C22   A    
C7    H11   S    
Cu2   O7    S    
C34   O10   A    
C27   C28   A    
