data_mof_unit_68126.cif
_audit_creation_date              2013-03-05T15:58:27-0500
_audit_creation_method            fapswitch 2.2
_symmetry_space_group_name_H-M    P1
_symmetry_Int_Tables_number       1
_space_group_crystal_system       triclinic
_cell_length_a                    7.184452
_cell_length_b                    14.212767
_cell_length_c                    16.130047
_cell_angle_alpha                 90.00746
_cell_angle_beta                  89.929019
_cell_angle_gamma                 90.013011
_cell_volume                      1647.05297821

loop_
_atom_site_label
_atom_site_type_symbol
_atom_site_description
_atom_site_fract_x
_atom_site_fract_y
_atom_site_fract_z
_atom_type_partial_charge
O1    O     O_R   0.388780 0.834790 0.412340 -0.588086
O2    O     O_R   0.111220 0.165210 0.912340 -0.588796
O3    O     O_R   0.888780 0.665210 0.587660 -0.587721
O4    O     O_R   0.611220 0.334790 0.087660 -0.588449
O5    O     O_R   0.059040 0.845930 0.587040 -0.565765
O6    O     O_R   0.440960 0.154070 0.087040 -0.561850
O7    O     O_R   0.559040 0.654070 0.412960 -0.558336
O8    O     O_R   0.940960 0.345930 0.912960 -0.560751
C1    C     C_R   0.227363 0.869091 0.614756 0.998994
C2    C     C_R   0.272442 0.130578 0.114399 0.976701
C3    C     C_R   0.727404 0.630936 0.385237 0.988472
C4    C     C_R   0.772649 0.369367 0.885515 0.970303
O9    O     O_R   0.059070 0.845930 0.412970 -0.590024
O10   O     O_R   0.440930 0.154070 0.912970 -0.585292
O11   O     O_R   0.559070 0.654070 0.587030 -0.586170
O12   O     O_R   0.940930 0.345930 0.087030 -0.584827
O13   O     O_R   0.888760 0.665210 0.412340 -0.582497
O14   O     O_R   0.611240 0.334790 0.912340 -0.586154
O15   O     O_R   0.388760 0.834790 0.587660 -0.587069
O16   O     O_R   0.111240 0.165210 0.087660 -0.586441
C5    C     C_R   0.228688 0.871271 0.387344 1.009063
C6    C     C_R   0.271413 0.128722 0.887443 0.991663
C7    C     C_R   0.728477 0.629355 0.613153 0.988063
C8    C     C_R   0.771348 0.371266 0.112572 0.992319
O17   O     O_3   0.222280 0.690700 0.500000 -0.253025
O18   O     O_3   0.277720 0.309300 0.000000 -0.250410
O19   O     O_3   0.722280 0.809300 0.500000 -0.284022
O20   O     O_3   0.777720 0.190700 0.000000 -0.250808
V1    V     V_3+5 0.947430 0.761000 0.500000 1.241257
V2    V     V_3+5 0.552570 0.239000 0.000000 1.267587
V3    V     V_3+5 0.447430 0.739000 0.500000 1.242990
V4    V     V_3+5 0.052570 0.261000 0.000000 1.268101
C9    C     C_3   0.757589 0.613304 0.766895 -0.568977
C10   C     C_3   0.745708 0.387560 0.266046 -0.574221
C11   C     C_3   0.255051 0.887197 0.233641 -0.572998
C12   C     C_3   0.245916 0.112536 0.734022 -0.580739
H1    H     H_    0.876599 0.663267 0.762906 0.216529
H2    H     H_    0.628638 0.336386 0.262672 0.214837
H3    H     H_    0.372968 0.836568 0.237161 0.218231
H4    H     H_    0.128552 0.163520 0.737452 0.215511
H5    H     H_    0.631110 0.657509 0.775761 0.171336
H6    H     H_    0.874074 0.344644 0.274324 0.177786
H7    H     H_    0.127458 0.843656 0.225428 0.172470
H8    H     H_    0.374099 0.155664 0.725759 0.174938
C13   C     C_3   0.778973 0.545508 0.842570 0.493542
C14   C     C_3   0.722929 0.455082 0.341768 0.479587
C15   C     C_3   0.276661 0.954582 0.157677 0.494400
C16   C     C_3   0.223824 0.045056 0.658271 0.487604
H9    H     H_    0.660342 0.559432 0.884896 0.109718
H10   H     H_    0.841797 0.441490 0.383814 0.122541
H11   H     H_    0.157490 0.940895 0.115719 0.109776
H12   H     H_    0.343168 0.058764 0.616432 0.123542
H13   H     H_    0.044348 0.538547 0.686473 0.088110
H14   H     H_    0.455085 0.460188 0.188257 0.100901
H15   H     H_    0.544784 0.960868 0.312220 0.095425
H16   H     H_    0.955109 0.039929 0.811947 0.100461
H17   H     H_    0.059927 0.418182 0.779094 0.202080
H18   H     H_    0.439273 0.582018 0.279730 0.207055
H19   H     H_    0.560383 0.081073 0.219326 0.205134
H20   H     H_    0.939226 0.918271 0.720361 0.206638
C17   C     C_3   0.919768 0.492990 0.678151 0.385951
C18   C     C_3   0.577842 0.506639 0.178481 0.460334
C19   C     C_3   0.421386 0.007094 0.321121 0.416868
C20   C     C_3   0.077775 0.993438 0.821600 0.462294
C21   C     C_3   0.565317 0.495935 0.690702 -0.311841
C22   C     C_3   0.933173 0.506406 0.188637 -0.239133
C23   C     C_3   0.065909 0.005570 0.310540 -0.257114
C24   C     C_3   0.433197 0.993602 0.811194 -0.236905
C25   C     C_3   0.742098 0.558158 0.684026 -0.137528
C26   C     C_3   0.757661 0.442820 0.183111 -0.202400
C27   C     C_3   0.242212 0.942656 0.316528 -0.180326
C28   C     C_3   0.257769 0.057204 0.816893 -0.200543
H21   H     H_    0.547529 0.454349 0.633392 0.233279
H22   H     H_    0.949237 0.548695 0.131425 0.255497
H23   H     H_    0.047591 0.047488 0.367815 0.255488
H24   H     H_    0.449233 0.951344 0.868402 0.255449
H25   H     H_    0.439022 0.540699 0.697189 0.181904
H26   H     H_    0.060770 0.462440 0.194059 0.189359
H27   H     H_    0.939182 0.961043 0.304425 0.182826
H28   H     H_    0.560824 0.037574 0.805611 0.188739
C29   C     C_3   0.764988 0.439935 0.813630 -0.175829
C30   C     C_3   0.735076 0.560725 0.313007 -0.204949
C31   C     C_3   0.264465 0.060225 0.186388 -0.191738
C32   C     C_3   0.235192 0.939358 0.686963 -0.202514
C33   C     C_3   0.920662 0.419169 0.749422 -0.416702
C34   C     C_3   0.578018 0.580944 0.249436 -0.409351
C35   C     C_3   0.421654 0.080602 0.249645 -0.409918
C36   C     C_3   0.077874 0.919224 0.750588 -0.412809
C37   C     C_3   0.576767 0.429020 0.766180 -0.438234
C38   C     C_3   0.922377 0.572559 0.264762 -0.440408
C39   C     C_3   0.077206 0.072060 0.234693 -0.439585
C40   C     C_3   0.422322 0.927395 0.735114 -0.445094
H29   H     H_    0.458358 0.444306 0.808566 0.216561
H30   H     H_    0.041644 0.557129 0.306515 0.216196
H31   H     H_    0.957823 0.056987 0.192886 0.214578
H32   H     H_    0.541783 0.942724 0.693286 0.212573
H33   H     H_    0.559367 0.355113 0.744598 0.194245
H34   H     H_    0.938694 0.646720 0.243707 0.197283
H35   H     H_    0.061367 0.146142 0.256045 0.198698
H36   H     H_    0.438282 0.853234 0.756195 0.197814
H37   H     H_    0.899361 0.346752 0.724849 0.205878
H38   H     H_    0.598616 0.653213 0.224409 0.206614
H39   H     H_    0.401708 0.153234 0.273981 0.201868
H40   H     H_    0.098103 0.846909 0.775543 0.206479
S1    S     S_3+6 0.956408 0.433923 0.580525 -0.020116
O21   O     O_2   0.795612 0.370646 0.560100 -0.197780
O22   O     O_2   0.984485 0.503510 0.511760 -0.327172
O23   O     O_3   0.148923 0.367512 0.588169 -0.447298
H41   H     H_    0.251968 0.413266 0.592610 0.354318
S2    S     S_3+6 0.533976 0.564809 0.081100 -0.041426
O24   O     O_2   0.689592 0.631081 0.059680 -0.244323
O25   O     O_2   0.508762 0.494465 0.012718 -0.325296
O26   O     O_3   0.335577 0.626587 0.091062 -0.504167
H42   H     H_    0.306239 0.648777 0.034364 0.422190
S3    S     S_3+6 0.462790 0.066933 0.417861 -0.025108
O27   O     O_2   0.636357 0.125286 0.408783 -0.252771
O28   O     O_2   0.303906 0.131172 0.439088 -0.193657
O29   O     O_3   0.494925 0.989670 0.495014 -0.567526
H43   H     H_    0.630361 0.989813 0.506010 0.391255
S4    S     S_3+6 0.033634 0.935151 0.918946 -0.041493
O30   O     O_2   0.189212 0.868894 0.940175 -0.243221
O31   O     O_2   0.008300 0.005423 0.987399 -0.325721
O32   O     O_3   0.835278 0.873311 0.909071 -0.504780
H44   H     H_    0.806650 0.850396 0.965652 0.421497
S5    S     S_3+6 0.986494 0.576041 0.900232 -0.023715
O33   O     O_2   0.968834 0.676416 0.928294 -0.217782
O34   O     O_2   0.007554 0.514801 0.975376 -0.273927
O35   O     O_3   0.177642 0.566790 0.840579 -0.604245
H45   H     H_    0.280358 0.592136 0.874874 0.379857
S6    S     S_3+6 0.515785 0.423733 0.399678 0.001640
O36   O     O_2   0.534347 0.323288 0.427408 -0.157206
O37   O     O_2   0.494890 0.484730 0.475021 -0.290950
O38   O     O_3   0.323915 0.432791 0.340674 -0.603711
H46   H     H_    0.221050 0.409349 0.376043 0.397444
S7    S     S_3+6 0.483530 0.923340 0.099565 -0.022918
O39   O     O_2   0.464316 0.823082 0.071417 -0.215474
O40   O     O_2   0.505062 0.984656 0.024467 -0.275013
O41   O     O_3   0.675251 0.931813 0.158763 -0.603164
H47   H     H_    0.778048 0.908052 0.123538 0.380417
S8    S     S_3+6 0.017746 0.076440 0.600039 -0.006767
O42   O     O_2   0.036639 0.176938 0.572547 -0.144898
O43   O     O_2   0.998533 0.015727 0.524473 -0.297106
O44   O     O_3   0.825086 0.066996 0.658742 -0.618127
H48   H     H_    0.725535 0.098248 0.626361 0.384148

loop_
_geom_bond_atom_site_label_1
_geom_bond_atom_site_label_2
_geom_bond_distance
_ccdc_geom_bond_type
C24   H28   1.113098 S    
S7    O41   1.681280 S    
C31   C35   1.550147 S    
O1    C5    1.325055 A    
O19   V1    1.757360 S    
C9    C13   1.562969 S    
C7    C25   1.530030 S    
O3    C7    1.324304 A    
C10   H6    1.113994 S    
S8    O44   1.681425 S    
C40   H32   1.112561 S    
O4    V2    2.007752 S    
C11   C15   1.562835 S    
O35   H45   0.990551 S    
C15   S7    1.811477 S    
H20   C36   1.109655 S    
C8    C26   1.529043 S    
O32   H44   0.990397 S    
C22   C38   1.548309 S    
C22   C26   1.553842 S    
O7    C3    1.330415 A    
C18   C34   1.557210 S    
C5    C27   1.530866 S    
O9    V1    2.016990 S    
S8    O43   1.499813 D    
C14   S6    1.811677 S    
O4    C8    1.324591 A    
O44   H48   0.991350 S    
C22   H22   1.107264 S    
C2    C31   1.533480 S    
O1    V3    2.008133 S    
O13   V1    2.007785 S    
O23   H41   0.987920 S    
C18   C26   1.580543 S    
O2    V4    2.007149 S    
O3    V1    2.007268 S    
S2    O24   1.501720 D    
C33   H37   1.113478 S    
S2    O25   1.499710 D    
C14   C30   1.573941 S    
H13   C17   1.112815 S    
C1    O15   1.331236 A    
C13   S5    1.810871 S    
S3    O28   1.501086 D    
H15   C19   1.112725 S    
O2    C6    1.324328 A    
S5    O35   1.681020 S    
H16   C20   1.112722 S    
S6    O37   1.500114 D    
C10   C14   1.561679 S    
C15   C31   1.573643 S    
C17   S1    1.803475 S    
C10   C26   1.553625 S    
S4    O32   1.681864 S    
C9    C25   1.553536 S    
C29   C37   1.562343 S    
O11   C7    1.335578 A    
O15   V3    2.007177 S    
O12   C8    1.335178 A    
O29   H43   0.989285 S    
O10   V2    2.018155 S    
H18   C34   1.109695 S    
C6    C28   1.528968 S    
C36   H40   1.113465 S    
S4    O31   1.499701 D    
C38   H30   1.112400 S    
O5    V1    2.018179 S    
C3    C30   1.534868 S    
C22   H26   1.113089 S    
S1    O23   1.679335 S    
C21   H25   1.113117 S    
C16   S8    1.810282 S    
O8    V4    2.018617 S    
S7    O39   1.501846 D    
O7    V3    2.017017 S    
S8    O42   1.501721 D    
C21   H21   1.104687 S    
C2    O16   1.330847 A    
O18   V4    1.757073 S    
C15   H11   1.109167 S    
H14   C18   1.112644 S    
C30   C34   1.552527 S    
C39   H31   1.112477 S    
C9    H1    1.113134 S    
C16   C32   1.574157 S    
C37   H33   1.113621 S    
C24   C28   1.553800 S    
C11   H3    1.113159 S    
O5    C1    1.331081 A    
S1    O22   1.499607 D    
C18   S2    1.803285 S    
C12   H4    1.113222 S    
O8    C4    1.330674 A    
S3    O29   1.676044 S    
C23   C39   1.548023 S    
C13   H9    1.109177 S    
O9    C5    1.335735 A    
C24   H24   1.107222 S    
S2    O26   1.681800 S    
C17   C33   1.556535 S    
O14   V2    2.007298 S    
O6    V2    2.017016 S    
C19   C27   1.581458 S    
S5    O33   1.501990 D    
C35   H39   1.113593 S    
C12   H8    1.114026 S    
S6    O38   1.681057 S    
C23   H23   1.106955 S    
C34   H38   1.113455 S    
C11   H7    1.113933 S    
S4    O30   1.501637 D    
C40   H36   1.113560 S    
O26   H42   0.990390 S    
O16   V4    2.008163 S    
C17   C25   1.580011 S    
S7    O40   1.500163 D    
C3    O13   1.331621 A    
C19   C35   1.555954 S    
C10   H2    1.113197 S    
O17   V3    1.757074 S    
C13   C29   1.574591 S    
C32   C36   1.552300 S    
C38   H34   1.113564 S    
C20   S4    1.803151 S    
O6    C2    1.330631 A    
O11   V3    2.018590 S    
C21   C37   1.547278 S    
O12   V4    2.016988 S    
C31   C39   1.562961 S    
S1    O21   1.500763 D    
C14   H10   1.108222 S    
C30   C38   1.562693 S    
C9    H5    1.113912 S    
O10   C6    1.335507 A    
O20   V2    1.757361 S    
S6    O36   1.502102 D    
C19   S3    1.802043 S    
O38   H46   0.990717 S    
C21   C25   1.551125 S    
C24   C40   1.548363 S    
H17   C33   1.109751 S    
C4    C29   1.534242 S    
C12   C16   1.561442 S    
C23   C27   1.553741 S    
C20   C28   1.580705 S    
C37   H29   1.112166 S    
H19   C35   1.109689 S    
O41   H47   0.990624 S    
C1    C32   1.535228 S    
C11   C27   1.554599 S    
C12   C28   1.553407 S    
C16   H12   1.107747 S    
C4    O14   1.331178 A    
S5    O34   1.500138 D    
C32   C40   1.562796 S    
C39   H35   1.113573 S    
C20   C36   1.557001 S    
C23   H27   1.113160 S    
C29   C33   1.551727 S    
S3    O27   1.504441 D    
