data_mof_unit_58985.cif
_audit_creation_date              2013-03-05T15:46:36-0500
_audit_creation_method            fapswitch 2.2
_symmetry_space_group_name_H-M    P1
_symmetry_Int_Tables_number       1
_space_group_crystal_system       triclinic
_cell_length_a                    17.235229
_cell_length_b                    24.234331
_cell_length_c                    14.936121
_cell_angle_alpha                 90.639572
_cell_angle_beta                  125.580729
_cell_angle_gamma                 89.407362
_cell_volume                      5073.44437592

loop_
_atom_site_label
_atom_site_type_symbol
_atom_site_description
_atom_site_fract_x
_atom_site_fract_y
_atom_site_fract_z
_atom_type_partial_charge
C1    C     C_R   0.354919 0.347243 0.906703 -0.049012
C2    C     C_R   0.691314 0.376351 0.093209 -0.040442
C3    C     C_R   0.831661 0.856139 0.908491 -0.080639
C4    C     C_R   0.192007 0.877679 0.093220 -0.062489
H1    H     H_    0.316913 0.335496 0.821516 0.161516
H2    H     H_    0.747392 0.370633 0.178930 0.152779
H3    H     H_    0.789289 0.841043 0.825224 0.157870
H4    H     H_    0.248333 0.872479 0.179009 0.149763
N1    N     N_R   0.394180 0.396910 0.943210 -0.067424
N2    N     N_R   0.605820 0.396910 0.056790 -0.063028
N3    N     N_R   0.894180 0.896910 0.943210 -0.065381
N4    N     N_R   0.105820 0.896910 0.056790 -0.060731
C5    C     C_R   0.444029 0.651980 0.093295 -0.163999
C6    C     C_R   0.553709 0.652836 0.909383 -0.114755
C7    C     C_R   0.945277 0.152350 0.093206 -0.157401
C8    C     C_R   0.095103 0.127827 0.907369 -0.076387
H5    H     H_    0.493421 0.663037 0.178108 0.212398
H6    H     H_    0.509225 0.664741 0.824261 0.197516
H7    H     H_    0.993635 0.163252 0.178366 0.195761
H8    H     H_    0.063199 0.135385 0.821832 0.179369
N5    N     N_R   0.450950 0.603070 0.056740 -0.087108
N6    N     N_R   0.549050 0.603070 0.943260 -0.074158
N7    N     N_R   0.950950 0.103070 0.056740 -0.084251
N8    N     N_R   0.049050 0.103070 0.943260 -0.076946
C9    C     C_R   0.480335 0.454091 0.248401 -0.050828
C10   C     C_R   0.451507 0.454225 0.696133 -0.066271
C11   C     C_R   0.988175 0.955012 0.258198 -0.073643
C12   C     C_R   0.949649 0.954306 0.695225 -0.061438
H9    H     H_    0.470296 0.411297 0.258042 0.110349
H10   H     H_    0.432901 0.412050 0.667692 0.115448
H11   H     H_    0.987888 0.913408 0.281593 0.124263
H12   H     H_    0.931380 0.912086 0.666899 0.112575
N9    N     N_R   0.525650 0.471570 0.206150 -0.052939
N10   N     N_R   0.474350 0.471570 0.793850 -0.057241
N11   N     N_R   0.025650 0.971570 0.206150 -0.053868
N12   N     N_R   0.974350 0.971570 0.793850 -0.054651
C13   C     C_R   0.231743 0.545203 0.756448 -0.031170
C14   C     C_R   0.750542 0.545621 0.306338 -0.085521
C15   C     C_R   0.728633 0.045462 0.731240 -0.066637
C16   C     C_R   0.242710 0.044829 0.310750 0.010735
H13   H     H_    0.211062 0.586821 0.756706 0.138417
H14   H     H_    0.753254 0.586489 0.336408 0.190357
H15   H     H_    0.706842 0.087682 0.719587 0.168691
H16   H     H_    0.237684 0.084663 0.340001 0.136316
N13   N     N_R   0.319480 0.528420 0.793810 -0.046399
N14   N     N_R   0.680520 0.528420 0.206190 -0.054749
N15   N     N_R   0.819480 0.028420 0.793810 -0.057841
N16   N     N_R   0.180520 0.028420 0.206190 -0.057241
C17   C     C_R   0.480190 0.546446 0.248910 -0.077954
C18   C     C_R   0.453503 0.545986 0.698104 -0.037682
C19   C     C_R   0.982857 0.047024 0.251572 -0.089022
C20   C     C_R   0.950319 0.045905 0.696807 -0.018749
H17   H     H_    0.469929 0.589315 0.259603 0.129975
H18   H     H_    0.437674 0.588565 0.672612 0.137570
H19   H     H_    0.971669 0.089977 0.260457 0.125414
H20   H     H_    0.932009 0.088256 0.670576 0.137582
N17   N     N_R   0.525640 0.528390 0.206120 -0.050308
N18   N     N_R   0.474360 0.528390 0.793880 -0.045761
N19   N     N_R   0.025640 0.028390 0.206120 -0.058313
N20   N     N_R   0.974360 0.028390 0.793880 -0.047472
C21   C     C_R   0.230629 0.453495 0.747454 -0.045823
C22   C     C_R   0.754366 0.454623 0.305718 -0.010490
C23   C     C_R   0.729989 0.953513 0.729986 -0.032557
C24   C     C_R   0.251359 0.954606 0.307090 -0.015776
H21   H     H_    0.209871 0.410748 0.732650 0.161924
H22   H     H_    0.765293 0.412307 0.332260 0.158778
H23   H     H_    0.710284 0.910794 0.715590 0.168802
H24   H     H_    0.262535 0.911959 0.331967 0.147015
N21   N     N_R   0.319490 0.471590 0.793840 -0.073191
N22   N     N_R   0.680510 0.471590 0.206160 -0.067721
N23   N     N_R   0.819490 0.971590 0.793840 -0.076128
N24   N     N_R   0.180510 0.971590 0.206160 -0.064866
C25   C     C_R   0.352504 0.653359 0.911844 0.286103
C26   C     C_R   0.645615 0.652486 0.090939 0.340420
C27   C     C_R   0.854096 0.153620 0.911687 0.298494
C28   C     C_R   0.189142 0.126164 0.089977 0.354375
N25   N     N_R   0.394130 0.603080 0.943110 -0.102552
N26   N     N_R   0.605870 0.603080 0.056890 -0.099182
N27   N     N_R   0.894130 0.103080 0.943110 -0.095667
N28   N     N_R   0.105870 0.103080 0.056890 -0.107108
C29   C     C_R   0.445528 0.346591 0.088688 -0.093958
C30   C     C_R   0.601096 0.376638 0.909682 -0.040952
C31   C     C_R   0.920366 0.858216 0.091071 -0.105246
C32   C     C_R   0.101923 0.877990 0.909758 -0.063408
N29   N     N_R   0.450990 0.396900 0.056840 -0.063827
N30   N     N_R   0.549010 0.396900 0.943160 -0.064709
N31   N     N_R   0.950990 0.896900 0.056840 -0.061138
N32   N     N_R   0.049010 0.896900 0.943160 -0.062386
C33   C     C_R   0.389097 0.313153 0.995871 0.125451
C34   C     C_R   0.693390 0.365613 0.002943 0.117809
C35   C     C_R   0.839472 0.834551 0.999294 0.155920
C36   C     C_R   0.194448 0.867728 0.003020 0.122879
C37   C     C_R   0.383493 0.686454 0.005121 0.012224
C38   C     C_R   0.609949 0.686625 0.000713 -0.043638
C39   C     C_R   0.886967 0.187108 0.004817 0.011995
C40   C     C_R   0.186925 0.141341 0.998035 0.001475
C41   C     C_R   0.449245 0.500461 0.274745 0.032481
C42   C     C_R   0.437023 0.500134 0.633566 0.042558
C43   C     C_R   0.955724 0.001425 0.282243 0.049822
C44   C     C_R   0.933108 0.000274 0.632052 0.048319
C45   C     C_R   0.173578 0.499461 0.724250 0.100150
C46   C     C_R   0.798817 0.500655 0.371445 0.082644
C47   C     C_R   0.669923 0.999111 0.689134 0.119318
C48   C     C_R   0.290705 0.000117 0.376147 0.058326
Ni1   Ni    Ni4+2 0.434860 0.434850 0.869700 0.255084
Ni2   Ni    Ni4+2 0.565140 0.434850 0.130300 0.268628
Ni3   Ni    Ni4+2 0.934860 0.934850 0.869700 0.247884
Ni4   Ni    Ni4+2 0.065140 0.934850 0.130300 0.262655
Ni5   Ni    Ni4+2 0.565130 0.565140 0.130240 0.278388
Ni6   Ni    Ni4+2 0.434870 0.565140 0.869760 0.302578
Ni7   Ni    Ni4+2 0.065130 0.065140 0.130240 0.268419
Ni8   Ni    Ni4+2 0.934870 0.065140 0.869760 0.302784
C49   C     C_R   0.022923 0.551201 0.614430 -0.094934
C50   C     C_R   0.927011 0.552969 0.532537 0.029520
C51   C     C_R   0.515683 0.046550 0.618341 -0.073908
C52   C     C_R   0.416543 0.048146 0.552232 0.043357
C53   C     C_R   0.069854 0.501937 0.665527 -0.047262
C54   C     C_R   0.876598 0.503603 0.489456 -0.074952
C55   C     C_R   0.565019 0.998129 0.627003 -0.029596
C56   C     C_R   0.365157 0.000233 0.495957 -0.062955
C57   C     C_R   0.012969 0.455409 0.647492 0.226403
C58   C     C_R   0.914461 0.456189 0.557547 0.218355
C59   C     C_R   0.511110 0.948412 0.582848 0.255679
C60   C     C_R   0.413646 0.950274 0.542324 0.186355
C61   C     C_3   0.937930 0.601932 0.479328 0.066407
C62   C     C_3   0.044183 0.597566 0.565971 0.065949
C63   C     C_3   0.415021 0.106536 0.518607 0.049501
C64   C     C_3   0.522901 0.104389 0.588441 0.035491
H25   H     H_    0.916264 0.595172 0.393971 0.163389
H26   H     H_    0.075335 0.634350 0.620223 0.181458
H27   H     H_    0.384252 0.113090 0.431075 0.188218
H28   H     H_    0.558545 0.133553 0.659460 0.171664
C65   C     C_R   0.314191 0.778943 0.916374 -0.161306
C66   C     C_R   0.705951 0.768125 0.097584 -0.196561
C67   C     C_R   0.816811 0.279156 0.915298 -0.191980
C68   C     C_R   0.346477 0.188300 0.092893 -0.196919
H29   H     H_    0.309701 0.767596 0.844200 0.262433
H30   H     H_    0.716964 0.760385 0.174907 0.241879
H31   H     H_    0.813653 0.268605 0.843275 0.237547
H32   H     H_    0.369864 0.174409 0.172053 0.252771
C69   C     C_R   0.766949 0.325875 0.911456 0.315463
C70   C     C_R   0.405553 0.225949 0.091493 0.278438
C71   C     C_R   0.267542 0.827299 0.912205 0.290478
C72   C     C_R   0.781856 0.786812 0.098765 0.298738
C73   C     C_R   0.775498 0.341751 0.007678 -0.160155
C74   C     C_R   0.371225 0.253125 0.992710 -0.160584
C75   C     C_R   0.276928 0.844518 0.008016 -0.149105
C76   C     C_R   0.765046 0.804359 0.998457 -0.230236
C77   C     C_R   0.857316 0.324081 0.109447 0.183798
C78   C     C_R   0.302336 0.225797 0.892898 0.200778
C79   C     C_R   0.356641 0.825544 0.109513 0.174374
C80   C     C_R   0.670066 0.800797 0.900830 0.234668
C81   C     C_R   0.395853 0.773789 0.112776 0.234099
C82   C     C_R   0.602443 0.769657 0.901261 0.223339
C83   C     C_R   0.902785 0.274827 0.112258 0.236769
C84   C     C_R   0.248533 0.182772 0.894560 0.242719
C85   C     C_R   0.365386 0.746661 0.012223 -0.116596
C86   C     C_R   0.629169 0.745585 0.000152 -0.075578
C87   C     C_R   0.870773 0.247545 0.011554 -0.100208
C88   C     C_R   0.261545 0.170348 0.995085 -0.070456
C89   C     C_R   0.394682 0.550453 0.466968 -0.083260
C90   C     C_R   0.395455 0.550564 0.374864 -0.113539
C91   C     C_R   0.894867 0.051505 0.468724 -0.064091
C92   C     C_R   0.900705 0.051897 0.380388 -0.095032
H33   H     H_    0.395888 0.589820 0.502387 0.151883
H34   H     H_    0.397598 0.589943 0.343129 0.150886
H35   H     H_    0.896666 0.090797 0.504695 0.154925
H36   H     H_    0.906773 0.091332 0.351939 0.149331
C93   C     C_R   0.406309 0.500626 0.335023 0.096968
C94   C     C_R   0.403948 0.500368 0.518646 0.099472
C95   C     C_R   0.911442 0.001938 0.340751 0.083340
C96   C     C_R   0.900024 0.001134 0.517398 0.084823
C97   C     C_R   0.394681 0.450670 0.372322 -0.095338
C98   C     C_R   0.394325 0.450505 0.464699 -0.075037
C99   C     C_R   0.894438 0.952044 0.373158 -0.105644
C100  C     C_R   0.889573 0.951581 0.462355 -0.061335
H37   H     H_    0.395991 0.411334 0.338434 0.138807
H38   H     H_    0.395544 0.411065 0.498524 0.144903
H39   H     H_    0.894347 0.912899 0.337726 0.156528
H40   H     H_    0.887147 0.912109 0.493606 0.150422
N33   N     N_R   0.898734 0.652859 0.492511 0.272292
O1    O     O_R   0.837317 0.651378 0.516589 -0.314395
O2    O     O_R   0.924527 0.700391 0.478492 -0.232352
N34   N     N_R   0.094960 0.579874 0.518721 0.255580
O3    O     O_R   0.071606 0.534661 0.460644 -0.349189
O4    O     O_R   0.160970 0.611150 0.529922 -0.273920
N35   N     N_R   0.377971 0.145076 0.561575 0.266291
O5    O     O_R   0.405454 0.142175 0.663139 -0.296927
O6    O     O_R   0.315267 0.182143 0.497020 -0.260497
N36   N     N_R   0.558943 0.107090 0.520447 0.256440
O7    O     O_R   0.535648 0.069887 0.445218 -0.301133
O8    O     O_R   0.606670 0.150091 0.527320 -0.232141
N37   N     N_R   0.712407 0.357798 0.812317 0.240369
O9    O     O_R   0.676342 0.334553 0.716878 -0.306679
O10   O     O_R   0.708920 0.411310 0.818061 -0.362160
N38   N     N_R   0.500395 0.234866 0.188969 0.243641
O11   O     O_R   0.570061 0.243893 0.180228 -0.350733
O12   O     O_R   0.519967 0.227199 0.286267 -0.292258
N39   N     N_R   0.214832 0.859268 0.812935 0.245207
O13   O     O_R   0.179696 0.835966 0.717752 -0.290218
O14   O     O_R   0.211172 0.912783 0.818427 -0.335315
N40   N     N_R   0.875283 0.779931 0.198718 0.242030
O15   O     O_R   0.936639 0.748071 0.198891 -0.319198
O16   O     O_R   0.892205 0.795333 0.292287 -0.332538
N41   N     N_R   0.899311 0.359221 0.205187 0.248169
O17   O     O_R   0.899223 0.412471 0.194614 -0.342804
O18   O     O_R   0.932728 0.339095 0.301700 -0.283374
N42   N     N_R   0.296573 0.236450 0.794868 0.257390
O19   O     O_R   0.216161 0.251283 0.704712 -0.263138
O20   O     O_R   0.374236 0.237844 0.799365 -0.321650
N43   N     N_R   0.399911 0.860141 0.206097 0.252395
O21   O     O_R   0.400639 0.913451 0.196856 -0.321626
O22   O     O_R   0.435207 0.839342 0.302530 -0.252422
N44   N     N_R   0.639363 0.831372 0.804468 0.242955
O23   O     O_R   0.614970 0.882896 0.798192 -0.406296
O24   O     O_R   0.627422 0.806559 0.719636 -0.301303
N45   N     N_R   0.468219 0.751252 0.217479 0.250583
O25   O     O_R   0.444279 0.725710 0.274182 -0.341971
O26   O     O_R   0.556720 0.765124 0.264497 -0.275199
N46   N     N_R   0.506233 0.765164 0.804454 0.267365
O27   O     O_R   0.488901 0.751943 0.709777 -0.261087
O28   O     O_R   0.435576 0.768821 0.813042 -0.345883
N47   N     N_R   0.986727 0.257054 0.214665 0.251468
O29   O     O_R   0.980416 0.235885 0.289908 -0.311004
O30   O     O_R   0.069503 0.260136 0.231245 -0.315420
N48   N     N_R   0.191070 0.147964 0.799529 0.245047
O31   O     O_R   0.204417 0.094787 0.808560 -0.335089
O32   O     O_R   0.120366 0.168350 0.706515 -0.310692
N49   N     N_R   0.300750 0.671657 0.800368 0.225908
O33   O     O_R   0.214692 0.691028 0.752937 -0.392910
O34   O     O_R   0.327832 0.655650 0.739133 -0.353378
N50   N     N_R   0.706964 0.667170 0.204107 0.200205
O35   O     O_R   0.798464 0.668956 0.251934 -0.357383
O36   O     O_R   0.672376 0.678505 0.259723 -0.363800
N51   N     N_R   0.805894 0.172252 0.801036 0.213617
O37   O     O_R   0.718725 0.190510 0.749261 -0.376740
O38   O     O_R   0.839632 0.159391 0.745024 -0.379620
N52   N     N_R   0.267859 0.130856 0.202028 0.187398
O39   O     O_R   0.341404 0.098385 0.240728 -0.379381
O40   O     O_R   0.271368 0.171883 0.261146 -0.368053
H41   H     H_    0.490038 0.334108 0.173521 0.159355
H42   H     H_    0.574347 0.371216 0.824632 0.148073
H43   H     H_    0.957352 0.847324 0.175588 0.159012
H44   H     H_    0.075700 0.873125 0.824761 0.147609
N53   N     N_R   0.053939 0.409166 0.720555 0.245447
O41   O     O_R   0.103113 0.417375 0.826353 -0.375075
O42   O     O_R   0.055999 0.360665 0.683806 -0.288258
N54   N     N_R   0.852851 0.411252 0.538689 0.247801
O43   O     O_R   0.872945 0.361097 0.526466 -0.267556
O44   O     O_R   0.770248 0.421473 0.519735 -0.347634
N55   N     N_R   0.543214 0.904119 0.546261 0.256224
O45   O     O_R   0.503155 0.855913 0.522260 -0.210751
O46   O     O_R   0.592045 0.915949 0.507682 -0.324941
N56   N     N_R   0.364783 0.903516 0.546632 0.265665
O47   O     O_R   0.413647 0.863284 0.613983 -0.206947
O48   O     O_R   0.275104 0.907912 0.508250 -0.346452

loop_
_geom_bond_atom_site_label_1
_geom_bond_atom_site_label_2
_geom_bond_distance
_ccdc_geom_bond_type
C31   N31   1.324329 A    
C15   C47   1.395838 A    
C65   H29   1.067922 S    
N36   O7    1.302487 A    
N23   Ni3   1.842418 S    
C44   C96   1.456849 S    
C26   C38   1.388812 A    
C83   N47   1.429975 S    
N47   O29   1.301659 A    
N8    Ni8   1.850316 S    
C25   C37   1.409780 A    
C68   H32   1.060758 S    
C24   N24   1.339540 A    
C48   C56   1.475355 S    
C55   C59   1.429083 A    
N46   O28   1.298700 A    
C89   C90   1.383501 A    
C27   C39   1.407733 A    
C59   C60   1.416337 A    
C97   C98   1.383368 A    
C71   C75   1.402444 A    
C96   C100  1.400212 A    
N54   O44   1.301395 A    
C11   C43   1.385152 A    
C18   H18   1.079914 S    
C27   N27   1.347235 A    
C79   N43   1.440211 S    
N27   Ni8   1.843376 S    
C89   H33   1.080193 S    
C1    H1    1.074678 S    
C24   H24   1.079118 S    
N11   N19   1.376998 A    
C82   C86   1.398601 A    
C34   C73   1.486469 S    
C3    H3    1.073470 S    
C70   C74   1.399462 A    
N13   N21   1.377238 A    
C7    C39   1.387723 A    
N44   O24   1.300577 A    
N55   O46   1.302134 A    
C43   C95   1.456720 S    
C62   H26   1.107713 S    
N1    Ni1   1.863913 S    
N15   Ni8   1.850046 S    
C31   H43   1.066359 S    
C41   C93   1.460604 S    
N34   O3    1.302553 A    
C30   H42   1.076811 S    
C17   C41   1.391635 A    
C3    C35   1.390378 A    
C54   C58   1.420826 A    
C29   H41   1.076157 S    
C4    H4    1.074104 S    
C2    C34   1.390972 A    
C53   C57   1.419136 A    
N46   O27   1.300725 A    
C47   C55   1.476021 S    
C68   C70   1.383498 A    
N11   Ni4   1.844147 S    
C20   N20   1.328553 A    
N1    N29   1.380347 A    
C50   C61   1.508224 S    
C91   C92   1.380514 A    
C62   N34   1.466965 S    
C10   N10   1.335265 A    
N17   Ni5   1.863774 S    
N31   Ni4   1.850203 S    
N24   Ni4   1.850059 S    
N3    N31   1.380347 A    
N42   O19   1.300783 A    
N37   O10   1.301770 A    
C52   C63   1.501673 S    
C63   N35   1.463946 S    
N51   O37   1.301089 A    
C81   C85   1.425095 A    
C27   N51   1.427090 S    
C97   H37   1.080507 S    
C4    N4    1.330642 A    
C98   H38   1.080404 S    
C65   C85   1.407435 A    
C46   C54   1.469192 S    
C72   C76   1.419847 A    
C14   C46   1.374329 A    
C29   C33   1.395223 A    
C12   C44   1.384373 A    
C57   N53   1.435140 S    
C58   N54   1.435926 S    
N39   O13   1.301553 A    
C8    N8    1.337730 A    
C78   C84   1.412477 A    
N53   O41   1.301118 A    
N12   Ni3   1.863048 S    
C19   C43   1.386006 A    
N51   O38   1.300640 A    
C22   N22   1.341912 A    
C2    H2    1.074138 S    
N7    N27   1.380345 A    
N16   N24   1.377231 A    
C64   H28   1.111785 S    
C25   N49   1.429893 S    
C35   C76   1.476988 S    
N8    N28   1.380344 A    
C23   H23   1.072707 S    
N33   O2    1.301006 A    
C9    H9    1.078084 S    
C33   C74   1.484641 S    
N52   O40   1.300537 A    
C18   C42   1.381545 A    
C60   N56   1.442865 S    
C67   C87   1.404510 A    
N40   O15   1.301675 A    
N4    N32   1.380344 A    
C67   C69   1.395579 A    
C83   C87   1.422520 A    
C18   N18   1.330219 A    
C32   N32   1.343992 A    
N55   O45   1.299721 A    
C22   H22   1.078183 S    
C1    N1    1.332975 A    
N6    N26   1.380344 A    
C23   C47   1.386178 A    
N22   Ni2   1.850059 S    
C77   N41   1.440508 S    
N4    Ni4   1.844568 S    
N32   Ni3   1.842130 S    
N21   Ni1   1.842418 S    
N44   O23   1.300200 A    
C4    C36   1.390492 A    
C15   H15   1.066869 S    
C49   C62   1.501979 S    
C19   H19   1.077444 S    
N6    Ni6   1.850316 S    
N45   O25   1.301665 A    
C30   N30   1.343437 A    
C61   N33   1.466444 S    
C20   C44   1.376727 A    
C51   C64   1.503952 S    
C52   C56   1.404397 A    
C5    C37   1.388721 A    
C68   C88   1.405945 A    
N33   O1    1.302003 A    
C65   C71   1.395512 A    
C7    H7    1.070385 S    
N43   O21   1.301784 A    
C59   N55   1.443440 S    
N49   O33   1.300937 A    
N20   Ni8   1.844857 S    
C28   N52   1.418167 S    
C61   H25   1.110974 S    
C16   C48   1.370141 A    
C26   N50   1.419943 S    
C100  H40   1.080801 S    
N56   O48   1.302234 A    
C99   C100  1.382916 A    
C12   H12   1.080261 S    
C91   H35   1.079868 S    
C8    H8    1.074143 S    
C21   C45   1.384649 A    
C9    N9    1.331927 A    
N50   O36   1.299496 A    
C8    C40   1.397336 A    
C5    N5    1.332540 A    
C32   H44   1.076999 S    
C69   N37   1.437195 S    
C37   C85   1.504390 S    
C91   C96   1.403184 A    
N15   N23   1.377238 A    
C57   C58   1.425954 A    
C50   C54   1.397833 A    
N40   O16   1.301484 A    
C10   C42   1.385432 A    
C49   C53   1.394299 A    
C89   C94   1.402851 A    
C92   H36   1.080576 S    
C9    C41   1.388441 A    
C66   C86   1.386916 A    
C23   N23   1.331787 A    
N48   O31   1.301368 A    
C51   C55   1.404089 A    
N53   O42   1.300565 A    
C11   H11   1.071760 S    
N3    Ni3   1.863913 S    
C61   C62   1.510216 S    
C39   C87   1.501377 S    
N2    Ni2   1.844568 S    
N30   Ni1   1.842130 S    
C19   N19   1.333173 A    
C13   N13   1.331851 A    
N29   Ni2   1.850203 S    
C2    N2    1.331722 A    
N39   O14   1.301771 A    
N14   N22   1.377231 A    
C71   N39   1.437913 S    
N54   O43   1.300212 A    
C20   H20   1.079282 S    
C15   N15   1.337159 A    
C49   C50   1.370162 A    
C94   C98   1.401386 A    
C21   N21   1.338005 A    
C16   N16   1.339022 A    
N41   O17   1.301739 A    
N52   O39   1.302692 A    
N2    N30   1.380344 A    
C1    C33   1.380142 A    
N43   O22   1.299596 A    
N18   Ni6   1.844857 S    
N10   Ni1   1.863048 S    
C81   N45   1.426436 S    
N36   O8    1.300080 A    
C24   C48   1.384314 A    
N9    Ni2   1.844147 S    
C76   C80   1.426819 A    
N41   O18   1.300509 A    
C80   C82   1.398203 A    
N38   O11   1.301945 A    
C72   N40   1.432474 S    
C66   H30   1.074251 S    
C17   N17   1.335229 A    
C99   H39   1.080684 S    
C28   N28   1.342412 A    
N47   O30   1.301124 A    
C74   C78   1.416063 A    
C63   C64   1.513331 S    
C84   C88   1.418504 A    
N9    N17   1.376998 A    
N45   O26   1.300622 A    
N7    Ni7   1.842250 S    
C67   H31   1.073130 S    
N48   O32   1.300722 A    
C30   C34   1.401093 A    
C5    H5    1.069312 S    
C11   N11   1.333861 A    
C45   C53   1.463934 S    
C6    N6    1.334149 A    
N56   O47   1.300318 A    
C40   C88   1.495141 S    
C77   C83   1.408606 A    
C78   N42   1.434926 S    
N13   Ni6   1.850046 S    
N49   O34   1.299995 A    
N42   O20   1.301394 A    
C28   C40   1.404459 A    
C14   N14   1.327959 A    
C13   C45   1.383886 A    
C51   C52   1.390049 A    
C90   C93   1.400887 A    
C95   C99   1.402728 A    
C17   H17   1.077728 S    
C75   C79   1.405682 A    
C31   C35   1.388080 A    
N28   Ni7   1.862717 S    
C7    N7    1.333231 A    
C69   C73   1.406283 A    
N34   O4    1.300134 A    
C6    H6    1.075535 S    
C90   H34   1.080744 S    
N26   Ni5   1.862717 S    
C64   N36   1.469009 S    
C79   C81   1.406326 A    
C13   H13   1.066946 S    
N25   Ni6   1.843376 S    
C63   H27   1.100830 S    
N35   O6    1.300463 A    
N38   O12   1.301744 A    
C3    N3    1.329128 A    
C80   N44   1.424773 S    
C66   C72   1.379182 A    
C42   C94   1.460382 S    
C14   H14   1.073033 S    
C21   H21   1.077296 S    
C16   H16   1.078503 S    
N16   Ni7   1.842424 S    
C84   N48   1.435892 S    
C12   N12   1.336551 A    
C25   N25   1.349907 A    
C38   C86   1.471308 S    
N37   O9    1.301513 A    
C73   C77   1.410702 A    
N14   Ni5   1.842424 S    
N5    N25   1.380345 A    
N19   Ni7   1.863774 S    
N10   N18   1.376992 A    
C36   C75   1.484512 S    
C93   C97   1.402233 A    
C92   C95   1.399098 A    
N35   O5    1.302327 A    
C32   C36   1.399918 A    
N12   N20   1.376992 A    
C70   N38   1.438476 S    
C82   N46   1.436070 S    
C6    C38   1.386960 A    
C29   N29   1.337551 A    
C56   C60   1.402916 A    
N50   O35   1.299587 A    
N5    Ni5   1.842250 S    
C22   C46   1.383160 A    
C10   H10   1.080055 S    
C26   N26   1.326446 A    
