data_mof_unit_26272.cif
_audit_creation_date              2012-12-10T18:58:47-0500
_audit_creation_method            fapswitch 2.2
_symmetry_space_group_name_H-M    P1
_symmetry_Int_Tables_number       1
_space_group_crystal_system       triclinic
_cell_length_a                    12.987983
_cell_length_b                    10.801426
_cell_length_c                    9.617693
_cell_angle_alpha                 91.039528
_cell_angle_beta                  96.261061
_cell_angle_gamma                 92.340672
_cell_volume                      1339.74022689

loop_
_atom_site_label
_atom_site_type_symbol
_atom_type_description
_atom_site_fract_x
_atom_site_fract_y
_atom_site_fract_z
_atom_type_partial_charge
C1    C     C_R   0.496576 0.262755 0.498719 0.835112
C2    C     C_R   0.028412 0.517551 0.562938 0.162739
C3    C     C_R   0.971526 0.498403 0.430058 0.163529
C4    C     C_R   0.863796 0.492039 0.418942 -0.251176
C5    C     C_R   0.869664 0.513763 0.671345 -0.235155
C6    C     C_R   0.977133 0.524861 0.683080 -0.215634
C7    C     C_R   0.551337 0.070164 0.605229 -0.004314
C8    C     C_R   0.491765 0.129415 0.499454 0.002691
C9    C     C_R   0.424501 0.058676 0.401938 -0.218575
C10   C     C_R   0.425401 0.929167 0.403765 -0.185763
C11   C     C_R   0.494298 0.870815 0.502116 -0.002077
C12   C     C_R   0.300740 0.502144 0.473381 0.782552
C13   C     C_R   0.554181 0.942636 0.605011 -0.080992
C14   C     C_3   0.669263 0.948162 0.642659 0.293429
C15   C     C_3   0.664672 0.088770 0.649906 0.293520
C16   C     C_R   0.571793 0.569343 0.084799 0.111738
C17   C     C_R   0.439498 0.415680 0.062970 -0.032033
C18   C     C_R   0.435099 0.420745 0.912587 0.585371
C19   C     C_R   0.577513 0.561011 0.940372 0.128432
C20   C     C_3   0.619711 0.691585 0.937603 -0.318266
C21   C     C_3   0.596797 0.706629 0.091923 0.354496
C22   C     C_R   0.499912 0.737496 0.500831 0.795629
C23   C     C_R   0.699295 0.498575 0.525936 0.815125
C24   C     C_R   0.812400 0.500436 0.539498 -0.084353
C25   C     C_R   0.187854 0.505906 0.456401 -0.044253
C26   C     C_R   0.023388 0.485170 0.310811 -0.183440
C27   C     C_R   0.131255 0.487231 0.324154 -0.198650
C28   C     C_R   0.135886 0.526108 0.574092 -0.278057
Cu1   Cu    Cu3+1 0.499990 0.499980 0.640670 0.991473
Cu2   Cu    Cu3+1 0.500010 0.500020 0.359330 0.969906
H1    H     H_    0.820320 0.479694 0.316447 0.175838
H2    H     H_    0.678764 0.130628 0.757612 0.037696
H3    H     H_    0.573550 0.749285 0.861970 0.159787
H4    H     H_    0.831287 0.515872 0.765035 0.213515
H5    H     H_    0.980679 0.470521 0.208178 0.160300
H6    H     H_    0.020073 0.536939 0.785897 0.149968
H7    H     H_    0.170124 0.472981 0.231439 0.145794
H8    H     H_    0.178934 0.546756 0.675062 0.151887
H9    H     H_    0.372853 0.103049 0.324166 0.171746
H10   H     H_    0.374691 0.874933 0.326628 0.174587
H11   H     H_    0.691331 0.909203 0.746937 -0.017933
N1    N     N_R   0.500660 0.500930 0.148010 -0.237786
N2    N     N_R   0.500660 0.500890 0.852110 -0.241666
O1    O     O_R   0.500000 0.319640 0.618810 -0.537911
O2    O     O_R   0.500010 0.319680 0.381230 -0.584757
O3    O     O_R   0.348990 0.499960 0.599490 -0.552768
O4    O     O_R   0.349000 0.500000 0.361910 -0.616441
O5    O     O_R   0.499990 0.680320 0.618770 -0.602806
O6    O     O_R   0.500000 0.680360 0.381190 -0.552784
O7    O     O_R   0.651000 0.500000 0.638090 -0.585048
O8    O     O_R   0.651010 0.500040 0.400510 -0.600813
O9    O     O_3   0.720841 0.907282 0.528720 -0.513259
C29   C     C_3   0.797954 0.825445 0.575467 -0.272812
H12   H     H_    0.839641 0.798100 0.485785 0.211898
H13   H     H_    0.762129 0.740352 0.615538 0.132094
H14   H     H_    0.855716 0.870084 0.656916 0.146056
O10   O     O_3   0.716551 0.149743 0.546895 -0.526571
C30   C     C_3   0.818901 0.182880 0.603228 -0.222647
H15   H     H_    0.861740 0.100495 0.640116 0.159226
H16   H     H_    0.819685 0.252362 0.690098 0.142438
H17   H     H_    0.860414 0.225508 0.520045 0.194238
C31   C     C_2   0.383966 0.312068 0.124607 0.389253
H18   H     H_    0.338619 0.326704 0.210341 0.088254
O11   O     O_2   0.388956 0.206537 0.078820 -0.573708
O12   O     O_3   0.371685 0.338400 0.826176 -0.523508
C32   C     C_3   0.265940 0.355413 0.840680 -0.287769
H19   H     H_    0.220495 0.335522 0.737823 0.186777
H20   H     H_    0.249630 0.450971 0.875548 0.107298
H21   H     H_    0.236839 0.287214 0.913362 0.180362
C33   C     C_2   0.734318 0.692874 0.919890 0.367634
H22   H     H_    0.768539 0.762264 0.858263 0.073568
O13   O     O_2   0.791368 0.619711 0.981663 -0.576835
C34   C     C_2   0.686380 0.743225 0.202024 0.437596
H23   H     H_    0.695808 0.696229 0.300331 0.087878
O14   O     O_2   0.746004 0.830363 0.184002 -0.546664
O15   O     O_3   0.505298 0.771351 0.105821 -0.586428
C35   C     C_3   0.521942 0.900422 0.090619 -0.204612
H24   H     H_    0.445469 0.943153 0.074544 0.206827
H25   H     H_    0.563911 0.923667 0.999138 0.141877
H26   H     H_    0.564420 0.942830 0.187465 0.218129

loop_
_geom_bond_atom_site_label_1
_geom_bond_atom_site_label_2
_ccdc_geom_bond_type
C32   H20   S    
Cu2   O8    S    
C16   C21   S    
C1    C8    S    
C34   O14   D    
C34   H23   S    
Cu2   O2    S    
C22   O5    A    
C19   C20   S    
C7    C8    A    
C35   H24   S    
C25   C28   A    
C21   O15   S    
C26   C27   A    
C31   H18   S    
C5    C6    A    
C4    C24   A    
C35   H26   S    
C32   H21   S    
C30   H16   S    
C21   C34   S    
C9    H9    S    
C10   H10   S    
C17   N1    A    
C31   O11   D    
C14   O9    S    
C8    C9    A    
C23   C24   S    
C33   H22   S    
C9    C10   A    
C30   H17   S    
C29   H13   S    
C32   H19   S    
C13   C14   S    
Cu1   N2    S    
C15   O10   S    
C20   C33   S    
C2    C6    A    
C12   O4    A    
C19   N2    A    
Cu1   O7    S    
C35   H25   S    
Cu1   O5    S    
Cu2   O4    S    
C15   H2    S    
O15   C35   S    
C12   O3    A    
C23   O7    A    
C30   H15   S    
C29   H12   S    
C18   O12   S    
Cu1   Cu2   S    
C17   C31   S    
C1    O1    A    
C23   O8    A    
C28   H8    S    
C5    H4    S    
C17   C18   A    
C14   H11   S    
C20   H3    S    
Cu2   O6    S    
C22   O6    A    
Cu1   O1    S    
C3    C4    A    
C16   N1    A    
O9    C29   S    
C29   H14   S    
C3    C26   A    
C2    C28   A    
C25   C27   A    
C12   C25   S    
C11   C22   S    
Cu1   O3    S    
C2    C3    A    
C18   N2    A    
C11   C13   A    
C1    O2    A    
O10   C30   S    
C5    C24   A    
C27   H7    S    
C16   C19   A    
C7    C15   S    
C6    H6    S    
C4    H1    S    
C10   C11   A    
C26   H5    S    
C7    C13   A    
C20   C21   S    
O12   C32   S    
C14   C15   S    
Cu2   N1    S    
C33   O13   D    
