data_mof_unit_64168.cif
_audit_creation_date              2012-12-10T21:22:31-0500
_audit_creation_method            fapswitch 2.2
_symmetry_space_group_name_H-M    P1
_symmetry_Int_Tables_number       1
_space_group_crystal_system       triclinic
_cell_length_a                    17.539948
_cell_length_b                    16.733519
_cell_length_c                    27.744018
_cell_angle_alpha                 89.986446
_cell_angle_beta                  89.989558
_cell_angle_gamma                 89.977239
_cell_volume                      8143.0084713

loop_
_atom_site_label
_atom_site_type_symbol
_atom_type_description
_atom_site_fract_x
_atom_site_fract_y
_atom_site_fract_z
_atom_type_partial_charge
C1    C     C_R   0.353573 0.500016 0.500069 0.928203
C2    C     C_R   0.426811 0.527824 0.871525 -0.083249
C3    C     C_R   0.499723 0.501201 0.352654 -0.106612
C4    C     C_R   0.499955 0.499570 0.646435 -0.084206
C5    C     C_R   0.427664 0.532625 0.973776 0.032067
C6    C     C_R   0.561668 0.492346 0.024560 0.031555
C7    C     C_R   0.557685 0.479512 0.974220 0.031680
C8    C     C_R   0.427105 0.531058 0.024918 0.031914
C9    C     C_R   0.491946 0.503388 0.948570 0.083802
C10   C     C_R   0.495174 0.513895 0.050180 0.083845
C11   C     C_R   0.366181 0.563590 0.947123 -0.241887
C12   C     C_R   0.646442 0.499995 0.500082 0.937726
C13   C     C_R   0.630859 0.485915 0.049798 -0.243887
C14   C     C_R   0.364808 0.561613 0.897128 0.235699
C15   C     C_R   0.634251 0.492201 0.099575 0.237106
C16   C     C_R   0.500078 0.499896 0.405629 0.925671
C17   C     C_R   0.501204 0.500016 0.594047 0.926454
C18   C     C_R   0.360092 0.544790 0.051506 -0.241753
C19   C     C_R   0.616990 0.441425 0.949064 -0.243781
C20   C     C_R   0.847481 0.539154 0.464024 -0.146703
C21   C     C_R   0.152370 0.463651 0.463438 -0.150883
C22   C     C_R   0.153487 0.536959 0.539002 -0.149385
C23   C     C_R   0.496715 0.517551 0.101254 -0.113159
C24   C     C_R   0.846778 0.462494 0.538383 -0.149408
C25   C     C_R   0.768422 0.538965 0.463242 0.121109
C26   C     C_R   0.231430 0.463166 0.462720 0.120900
C27   C     C_R   0.232564 0.537047 0.538855 0.114811
C28   C     C_R   0.767711 0.461681 0.538175 0.127354
C29   C     C_R   0.728446 0.500073 0.500456 -0.148644
C30   C     C_R   0.271593 0.500077 0.500541 -0.151801
C31   C     C_R   0.885946 0.501073 0.501449 0.056498
C32   C     C_R   0.114107 0.500442 0.501416 0.056907
C33   C     C_1   0.966201 0.501049 0.501721 0.006252
C34   C     C_R   0.490758 0.498395 0.897531 -0.112909
C35   C     C_1   0.033853 0.500842 0.501713 0.005207
C36   C     C_R   0.439087 0.832168 0.479611 0.084677
C37   C     C_R   0.441040 0.167895 0.522520 0.084880
C38   C     C_R   0.560952 0.832155 0.520199 0.085880
C39   C     C_R   0.558936 0.167869 0.477446 0.088884
C40   C     C_R   0.440536 0.747959 0.480006 -0.020389
C41   C     C_R   0.442456 0.252097 0.522121 -0.010357
C42   C     C_R   0.559592 0.747970 0.519767 0.005599
C43   C     C_R   0.557652 0.252058 0.478002 0.012778
C44   C     C_R   0.499981 0.875631 0.499935 0.003948
C45   C     C_R   0.428474 0.533291 0.127212 -0.083009
C46   C     C_R   0.499960 0.124416 0.499946 0.006733
C47   C     C_1   0.499961 0.963486 0.499929 0.104957
C48   C     C_1   0.499951 0.036562 0.499927 0.105945
C49   C     C_R   0.431753 0.533458 0.177845 0.545934
C50   C     C_R   0.552016 0.463378 0.822050 0.543846
C51   C     C_R   0.565108 0.504596 0.176827 0.545032
C52   C     C_R   0.428605 0.523713 0.820922 0.545734
C53   C     C_R   0.496546 0.581871 0.279858 -0.073479
C54   C     C_R   0.451501 0.440143 0.719787 -0.066717
C55   C     C_R   0.497017 0.576302 0.329702 -0.203233
C56   C     C_R   0.553769 0.464369 0.872645 -0.083287
C57   C     C_R   0.455067 0.441993 0.669824 -0.207255
C58   C     C_R   0.501933 0.430835 0.324107 0.166404
C59   C     C_R   0.542496 0.555085 0.673615 0.149080
C60   C     C_R   0.501336 0.437643 0.274095 -0.113074
C61   C     C_R   0.538459 0.552660 0.723650 -0.104857
C62   C     C_R   0.498742 0.512603 0.252152 0.260354
C63   C     C_R   0.493122 0.495534 0.746606 0.258220
C64   C     C_R   0.359790 0.546216 0.101516 0.235828
C65   C     C_R   0.615823 0.433211 0.899350 0.237082
C66   C     C_R   0.566447 0.504761 0.126223 -0.083731
H1    H     H_    0.393836 0.714965 0.464173 0.165390
H2    H     H_    0.120832 0.435843 0.434338 0.176552
H3    H     H_    0.122819 0.564944 0.568425 0.177208
H4    H     H_    0.877615 0.433404 0.567344 0.176045
H5    H     H_    0.422100 0.399022 0.649359 0.172733
H6    H     H_    0.495272 0.631319 0.350230 0.189280
H7    H     H_    0.318871 0.593056 0.964375 0.170778
H8    H     H_    0.684414 0.478749 0.031171 0.172262
H9    H     H_    0.305505 0.551483 0.034182 0.171036
H10   H     H_    0.664349 0.414343 0.967732 0.172021
H11   H     H_    0.397283 0.285171 0.539627 0.158989
H12   H     H_    0.606576 0.715013 0.535270 0.178459
H13   H     H_    0.602902 0.285103 0.460573 0.169493
H14   H     H_    0.502999 0.384441 0.251888 0.166555
H15   H     H_    0.571221 0.594597 0.744960 0.166999
H16   H     H_    0.416700 0.395727 0.737719 0.159003
H17   H     H_    0.494642 0.639966 0.262687 0.159904
H18   H     H_    0.878867 0.568445 0.435377 0.176936
I1    I     I_    0.506818 0.311367 0.350433 -0.232773
I2    I     I_    0.650889 0.110125 0.442160 -0.220647
I3    I     I_    0.249406 0.567574 0.131680 -0.160187
I4    I     I_    0.712212 0.370206 0.871303 -0.159584
I5    I     I_    0.264428 0.614031 0.866816 -0.160719
I6    I     I_    0.747327 0.483135 0.127861 -0.157992
I7    I     I_    0.618607 0.639738 0.642884 -0.255483
I8    I     I_    0.713550 0.594691 0.403712 -0.274018
I9    I     I_    0.286091 0.409419 0.402493 -0.250238
I10   I     I_    0.289006 0.590341 0.598562 -0.260285
I11   I     I_    0.711781 0.404975 0.596953 -0.245610
I12   I     I_    0.343872 0.889974 0.447993 -0.234162
I13   I     I_    0.348867 0.110128 0.557544 -0.240000
I14   I     I_    0.656216 0.889832 0.551763 -0.214678
N1    N     N_R   0.498689 0.518016 0.200883 -0.359488
N2    N     N_R   0.490702 0.493199 0.797935 -0.360124
N3    N     N_R   0.500000 0.707230 0.500000 -0.121291
N4    N     N_R   0.500000 0.292770 0.500000 -0.118798
O1    O     O_R   0.389110 0.566570 0.500000 -0.608911
O2    O     O_2   0.610951 0.434103 0.796449 -0.492733
O3    O     O_2   0.369807 0.550467 0.794240 -0.494275
O4    O     O_2   0.628774 0.490012 0.202467 -0.494071
O5    O     O_R   0.610890 0.433430 0.500000 -0.610860
O6    O     O_R   0.610890 0.566570 0.500000 -0.606185
O7    O     O_R   0.389110 0.433430 0.500000 -0.609320
O8    O     O_R   0.500010 0.566530 0.428750 -0.620852
O9    O     O_R   0.499990 0.433470 0.571250 -0.615963
O10   O     O_R   0.499990 0.566530 0.571250 -0.586217
O11   O     O_R   0.500010 0.433470 0.428750 -0.585995
O12   O     O_2   0.369074 0.547701 0.204496 -0.496949
Zn1   Zn    Zn3+2 0.500000 0.588860 0.500000 1.008822
Zn2   Zn    Zn3+2 0.500000 0.411140 0.500000 1.011047

loop_
_geom_bond_atom_site_label_1
_geom_bond_atom_site_label_2
_ccdc_geom_bond_type
C21   C26   A    
C58   I1    S    
C34   C56   A    
C18   H9    S    
C23   C45   A    
C12   C29   S    
C38   I14   S    
C16   O11   A    
C37   I13   S    
C16   O8    A    
C50   O2    S    
C22   C32   A    
C42   N3    A    
C28   I11   S    
C23   C66   A    
C28   C29   A    
C38   C42   A    
C41   H11   S    
C11   C14   A    
C20   C25   A    
C43   H13   S    
C56   C65   A    
C41   N4    A    
C60   C62   A    
C61   C63   A    
O7    Zn2   S    
C1    O7    A    
C40   N3    A    
C3    C55   A    
C60   H14   S    
C40   H1    S    
C4    C57   A    
C31   C33   S    
O9    Zn2   S    
C1    O1    A    
C22   H3    S    
C55   H6    S    
C44   C47   S    
O11   Zn2   S    
C2    C34   A    
C26   I9    S    
C49   O12   S    
C27   C30   A    
C25   C29   A    
C17   O9    A    
C38   C44   A    
C53   C55   A    
C51   N1    A    
C21   C32   A    
C46   C48   S    
C59   C61   A    
C24   H4    S    
C32   C35   S    
C36   C40   A    
C11   H7    S    
C12   O6    A    
C39   C43   A    
C15   C66   A    
C52   N2    A    
C50   C56   A    
C51   C66   A    
O1    Zn1   S    
C14   I5    S    
C5    C9    A    
C63   N2    S    
C49   N1    A    
C53   C62   A    
C36   I12   S    
C47   C48   T    
C45   C49   A    
C59   I7    S    
C57   H5    S    
C5    C11   A    
C2    C52   A    
C39   C46   A    
C4    C17   S    
C52   O3    S    
C26   C30   A    
C7    C19   A    
C22   C27   A    
C20   H18   S    
C21   H2    S    
C9    C34   A    
N3    Zn1   S    
C36   C44   A    
C5    C8    A    
C17   O10   A    
C54   H16   S    
O6    Zn1   S    
C65   I4    S    
C7    C9    A    
C19   H10   S    
C25   I8    S    
C64   I3    S    
C24   C28   A    
C6    C10   A    
C12   O5    A    
C42   H12   S    
C6    C7    A    
C10   C23   A    
C45   C64   A    
C50   N2    A    
C53   H17   S    
C13   C15   A    
C43   N4    A    
C61   H15   S    
C6    C13   A    
C18   C64   A    
C51   O4    S    
C4    C59   A    
C1    C30   S    
C33   C35   T    
C19   C65   A    
C37   C41   A    
C2    C14   A    
C8    C18   A    
O5    Zn2   S    
C24   C31   A    
N4    Zn2   S    
C62   N1    S    
C3    C58   A    
C13   H8    S    
C8    C10   A    
C54   C63   A    
C27   I10   S    
C39   I2    S    
C37   C46   A    
C58   C60   A    
O8    Zn1   S    
C54   C57   A    
O10   Zn1   S    
C3    C16   S    
C15   I6    S    
C20   C31   A    
