data_mof_unit_66096.cif
_audit_creation_date              2012-12-10T19:22:13-0500
_audit_creation_method            fapswitch 2.2
_symmetry_space_group_name_H-M    P1
_symmetry_Int_Tables_number       1
_space_group_crystal_system       triclinic
_cell_length_a                    15.766475
_cell_length_b                    15.00209
_cell_length_c                    23.443304
_cell_angle_alpha                 90.018508
_cell_angle_beta                  90.058747
_cell_angle_gamma                 89.903818
_cell_volume                      5545.03548471

loop_
_atom_site_label
_atom_site_type_symbol
_atom_type_description
_atom_site_fract_x
_atom_site_fract_y
_atom_site_fract_z
_atom_type_partial_charge
C1    C     C_R   0.338059 0.500093 0.500208 0.891256
C2    C     C_R   0.375241 0.601316 0.969671 -0.158940
C3    C     C_R   0.373017 0.601845 0.028735 0.314048
C4    C     C_R   0.426802 0.543560 0.059908 -0.095502
C5    C     C_R   0.481217 0.483591 0.030049 -0.046596
C6    C     C_R   0.535266 0.424572 0.060261 -0.079818
C7    C     C_R   0.586065 0.362463 0.029705 -0.117109
C8    C     C_R   0.586084 0.361901 0.969716 0.269191
C9    C     C_R   0.429060 0.542993 0.119765 0.554254
C10   C     C_R   0.536398 0.430446 0.120304 0.531313
C11   C     C_R   0.530117 0.561987 0.234704 -0.119748
C12   C     C_R   0.500591 0.499986 0.389209 0.870279
C13   C     C_R   0.535718 0.566426 0.293882 -0.050843
C14   C     C_R   0.497284 0.499159 0.327061 -0.088556
C15   C     C_R   0.453881 0.428944 0.300405 -0.225090
C16   C     C_R   0.448026 0.425231 0.241344 0.040958
C17   C     C_R   0.486693 0.491849 0.208546 0.250656
C18   C     C_R   0.429739 0.443965 0.759448 0.311186
C19   C     C_R   0.433252 0.446261 0.699985 -0.157879
C20   C     C_R   0.495030 0.499426 0.672745 -0.198476
C21   C     C_R   0.552149 0.551239 0.704966 0.222398
C22   C     C_R   0.547535 0.549212 0.764498 -0.078750
C23   C     C_R   0.662071 0.499979 0.500153 0.919927
C24   C     C_R   0.486882 0.495182 0.791326 0.133914
C25   C     C_3   0.049871 0.510645 0.558731 -0.453478
C26   C     C_3   0.050003 0.417777 0.470216 -0.458910
C27   C     C_3   0.952353 0.417499 0.469103 0.155874
C28   C     C_3   0.952474 0.517011 0.559075 0.163542
C29   C     C_1   0.750615 0.500335 0.499328 -0.069568
C30   C     C_3   0.082955 0.505881 0.496566 0.066542
C31   C     C_3   0.917313 0.505237 0.496933 -0.013787
C32   C     C_3   0.948932 0.587271 0.459931 -0.249509
C33   C     C_3   0.050432 0.588324 0.461009 0.418858
C34   C     C_1   0.825673 0.502022 0.498341 0.032375
C35   C     C_1   0.174358 0.502583 0.498145 0.062301
C36   C     C_R   0.500021 0.499977 0.610777 0.935873
C37   C     C_1   0.249451 0.500672 0.499316 -0.098213
C38   C     C_3   0.414481 0.051513 0.473204 -0.312591
C39   C     C_3   0.409440 0.947476 0.482904 -0.316916
C40   C     C_3   0.509857 0.053323 0.562764 0.165501
C41   C     C_3   0.525056 0.947336 0.561216 0.153877
C42   C     C_3   0.499923 0.090226 0.499121 -0.112662
C43   C     C_3   0.500396 0.909558 0.499499 -0.120682
C44   C     C_3   0.564589 0.946194 0.452161 0.179957
C45   C     C_3   0.573857 0.052780 0.458896 0.161195
C46   C     C_1   0.499154 0.808906 0.498970 0.189579
C47   C     C_1   0.498988 0.191077 0.498852 0.183517
C48   C     C_R   0.535799 0.430502 0.879107 0.596106
C49   C     C_R   0.431703 0.546143 0.880754 0.587283
C50   C     C_R   0.429233 0.543879 0.940076 -0.063844
C51   C     C_R   0.481963 0.483549 0.969833 -0.048211
C52   C     C_R   0.535490 0.424263 0.939269 -0.097650
H1    H     H_    0.334246 0.647063 0.946797 0.225749
H2    H     H_    0.070955 0.450295 0.582492 0.238889
H3    H     H_    0.074030 0.360223 0.495507 0.236455
H4    H     H_    0.074779 0.408653 0.426195 0.208862
H5    H     H_    0.077169 0.568781 0.581735 0.214302
H6    H     H_    0.931848 0.414461 0.423771 0.144446
H7    H     H_    0.934970 0.584329 0.575039 0.154666
H8    H     H_    0.415885 0.061871 0.426290 0.161003
H9    H     H_    0.389025 0.917144 0.441878 0.180870
H10   H     H_    0.560126 0.612468 0.208531 0.158558
H11   H     H_    0.423575 0.377541 0.325716 0.170397
N1    N     N_R   0.484580 0.490436 0.852043 -0.350904
N2    N     N_R   0.483665 0.488065 0.147811 -0.360458
N3    N     N_1   0.498630 0.731150 0.498860 -0.066197
N4    N     N_1   0.498630 0.268850 0.498860 -0.072876
O1    O     O_R   0.377210 0.574260 0.500060 -0.597751
O2    O     O_R   0.377210 0.425740 0.500060 -0.621705
O3    O     O_R   0.500050 0.574250 0.416220 -0.610631
O4    O     O_R   0.500050 0.425750 0.416220 -0.618423
O5    O     O_R   0.622930 0.574200 0.500060 -0.593112
O6    O     O_R   0.622930 0.425800 0.500060 -0.581954
O7    O     O_R   0.500100 0.574210 0.583900 -0.582747
O8    O     O_R   0.500100 0.425790 0.583900 -0.602464
O9    O     O_2   0.586860 0.378688 0.847140 -0.450896
O10   O     O_2   0.382074 0.603822 0.851624 -0.511741
O11   O     O_2   0.377893 0.596569 0.150504 -0.469341
O12   O     O_2   0.590129 0.380317 0.151650 -0.540969
Zn1   Zn    Zn3+2 0.500090 0.599130 0.500080 1.060846
Zn2   Zn    Zn3+2 0.500090 0.400870 0.500080 1.044430
C53   C     C_1   0.371993 0.395568 0.667250 0.310865
N5    N     N_1   0.323105 0.355129 0.641046 -0.145084
Br1   Br    Br    0.639858 0.620800 0.668370 -0.368656
C54   C     C_1   0.605600 0.601432 0.798587 0.328758
N6    N     N_1   0.651992 0.643153 0.825974 -0.113638
Br2   Br    Br    0.904061 0.437977 0.616843 -0.308722
Br3   Br    Br    0.907734 0.306285 0.500567 -0.309390
Br4   Br    Br    0.098254 0.698708 0.493932 -0.413127
Br5   Br    Br    0.101778 0.585437 0.384147 -0.413300
C55   C     C_1   0.912109 0.671558 0.482053 0.267894
N7    N     N_1   0.882951 0.737136 0.499269 -0.050358
C56   C     C_1   0.914827 0.580691 0.401067 0.252035
N8    N     N_1   0.887796 0.575549 0.355246 -0.122182
C57   C     C_1   0.341320 0.919790 0.522570 0.247057
N9    N     N_1   0.287605 0.898116 0.553172 -0.102910
C58   C     C_1   0.336824 0.100655 0.490221 0.246604
N10   N     N_1   0.276179 0.139154 0.503253 -0.136597
Br6   Br    Br    0.294563 0.686452 0.061260 -0.304389
Br7   Br    Br    0.595235 0.118451 0.607881 -0.274513
Br8   Br    Br    0.640649 0.913047 0.583673 -0.242995
C59   C     C_1   0.432869 0.076885 0.596182 0.194409
N11   N     N_1   0.373401 0.095304 0.622661 -0.109540
C60   C     C_1   0.476562 0.900667 0.606614 0.217464
N12   N     N_1   0.439301 0.864139 0.642121 -0.110248
C61   C     C_1   0.570450 0.098520 0.402580 0.183941
N13   N     N_1   0.567759 0.134251 0.358851 -0.137907
C62   C     C_1   0.531864 0.921218 0.394661 0.163078
N14   N     N_1   0.506544 0.901684 0.350004 -0.135835
Br9   Br    Br    0.686712 0.089475 0.485389 -0.237240
Br10  Br    Br    0.673834 0.882217 0.449764 -0.321410
C63   C     C_1   0.637922 0.296669 0.058837 0.397706
N15   N     N_1   0.679362 0.243992 0.081859 -0.092931
Br11  Br    Br    0.655692 0.271981 0.932251 -0.298935
C64   C     C_1   0.583708 0.638420 0.319050 0.233337
N16   N     N_1   0.622176 0.696061 0.339199 -0.122641
C65   C     C_1   0.401944 0.353218 0.214845 0.231095
N17   N     N_1   0.365028 0.295492 0.193534 -0.136346
Br12  Br    Br    0.347610 0.370403 0.798108 -0.361091

loop_
_geom_bond_atom_site_label_1
_geom_bond_atom_site_label_2
_ccdc_geom_bond_type
O1    Zn1   S    
C56   N8    T    
C65   N17   T    
C48   O9    S    
C19   C20   A    
C11   H10   S    
C26   H3    S    
C58   N10   T    
C7    C8    A    
C54   N6    T    
C62   N14   T    
C25   C28   S    
C26   C27   S    
C30   C35   S    
C18   C24   A    
C23   C29   S    
C35   C37   T    
C46   N3    T    
C5    C6    A    
C48   N1    A    
C32   C55   S    
C61   N13   T    
C64   N16   T    
C1    O1    A    
C7    C63   S    
C18   C19   A    
C22   C54   S    
C47   N4    T    
C49   C50   A    
C60   N12   T    
C2    C50   A    
C57   N9    T    
C41   Br8   S    
C16   C17   A    
C19   C53   S    
C8    C52   A    
C8    Br11  S    
C9    O11   S    
C40   C42   S    
C32   C56   S    
C24   N1    S    
C49   N1    A    
O7    Zn1   S    
C21   C22   A    
C41   C43   S    
C59   N11   T    
C25   H5    S    
C23   O6    A    
C38   C58   S    
O6    Zn2   S    
C63   N15   T    
C44   C62   S    
C39   H9    S    
C27   C31   S    
C51   C52   A    
C25   H2    S    
C16   C65   S    
C55   N7    T    
C45   Br9   S    
O8    Zn2   S    
C39   C43   S    
O3    Zn1   S    
C29   C34   T    
C27   H6    S    
C1    O2    A    
C42   C45   S    
C43   C44   S    
C40   Br7   S    
C36   O8    A    
C33   Br4   S    
C31   C32   S    
C21   Br1   S    
C28   Br2   S    
C50   C51   A    
C31   C34   S    
C39   C57   S    
C13   C64   S    
C36   O7    A    
C38   H8    S    
C40   C41   S    
C12   O4    A    
C12   C14   S    
N4    Zn2   S    
C22   C24   A    
C3    C4    A    
C45   C61   S    
C10   N2    A    
C25   C30   S    
C12   O3    A    
C11   C17   A    
C30   C33   S    
C23   O5    A    
C28   C31   S    
C44   C45   S    
C4    C5    A    
C2    H1    S    
C26   H4    S    
C6    C10   A    
C10   O12   S    
C38   C42   S    
C6    C7    A    
C1    C37   S    
N3    Zn1   S    
C17   N2    S    
C41   C60   S    
C32   C33   S    
C2    C3    A    
O5    Zn1   S    
C33   Br5   S    
C11   C13   A    
C38   C39   S    
C28   H7    S    
C49   O10   S    
C42   C47   S    
C27   Br3   S    
C43   C46   S    
C9    N2    A    
O2    Zn2   S    
C40   C59   S    
C20   C36   S    
C44   Br10  S    
C3    Br6   S    
C48   C52   A    
C20   C21   A    
C53   N5    T    
C15   H11   S    
C14   C15   A    
C5    C51   A    
C4    C9    A    
C13   C14   A    
C18   Br12  S    
C15   C16   A    
O4    Zn2   S    
C26   C30   S    
