data_mof_unit_20351.cif
_audit_creation_date              2012-12-10T17:03:45-0500
_audit_creation_method            fapswitch 2.2
_symmetry_space_group_name_H-M    P1
_symmetry_Int_Tables_number       1
_space_group_crystal_system       triclinic
_cell_length_a                    10.039791
_cell_length_b                    10.74116
_cell_length_c                    13.157951
_cell_angle_alpha                 90.158269
_cell_angle_beta                  71.534285
_cell_angle_gamma                 89.47311
_cell_volume                      1345.80282613

loop_
_atom_site_label
_atom_site_type_symbol
_atom_type_description
_atom_site_fract_x
_atom_site_fract_y
_atom_site_fract_z
_atom_type_partial_charge
C1    C     C_R   0.501027 0.737266 0.496695 0.952958
C2    C     C_R   0.386374 0.437039 0.813032 -0.137320
C3    C     C_2   0.618012 0.066234 0.483629 -0.156908
C4    C     C_R   0.425307 0.481376 0.701551 0.864963
C5    C     C_2   0.497920 0.131113 0.509044 -0.323141
C6    C     C_2   0.616555 0.932231 0.489489 -0.135624
C7    C     C_2   0.505423 0.868588 0.483800 -0.314429
C8    C     C_2   0.097041 0.420549 0.446219 0.060513
C9    C     C_2   0.942285 0.409355 0.461151 -0.091231
C10   C     C_R   0.499959 0.262726 0.501454 0.911471
C11   C     C_R   0.576928 0.501348 0.296406 0.901451
C12   C     C_R   0.450676 0.418238 0.976254 0.078752
C13   C     C_R   0.789201 0.533449 0.002348 -0.115030
C14   C     C_R   0.622688 0.496795 0.179748 -0.144892
C15   C     C_R   0.244726 0.422234 0.872285 -0.188236
C16   C     C_R   0.205815 0.401533 0.982058 -0.048104
C17   C     C_R   0.306173 0.405687 0.034862 -0.165872
C18   C     C_2   0.841093 0.614392 0.166112 1.009962
C19   C     C_3   0.084968 0.667120 0.602466 -0.082328
C20   C     C_2   0.909934 0.604850 0.930620 0.872932
C21   C     C_R   0.490498 0.416063 0.863655 0.083467
C22   C     C_R   0.556605 0.443178 0.023993 0.078588
C23   C     C_R   0.695113 0.471302 0.958664 0.082969
C24   C     C_R   0.735650 0.433769 0.851406 -0.169071
C25   C     C_R   0.634467 0.398451 0.806323 -0.179583
C26   C     C_R   0.527226 0.447809 0.133836 -0.247906
C27   C     C_R   0.752420 0.544515 0.115173 -0.115282
H1    H     H_    0.395227 0.088888 0.538000 0.146415
H2    H     H_    0.266687 0.401552 0.121032 0.138732
H3    H     H_    0.096047 0.390391 0.027483 0.181274
H4    H     H_    0.670738 0.362385 0.725328 0.185599
H5    H     H_    0.719447 0.111674 0.460317 0.165038
H6    H     H_    0.862951 0.768319 0.247184 0.337314
H7    H     H_    0.126251 0.716434 0.524483 0.116626
H8    H     H_    0.157369 0.675215 0.650520 0.195536
H9    H     H_    0.985845 0.715808 0.647272 0.167841
H10   H     H_    0.101542 0.679515 0.904718 0.342700
H11   H     H_    0.708696 0.886092 0.498875 0.167621
H12   H     H_    0.416846 0.911695 0.466734 0.143254
H13   H     H_    0.168894 0.359099 0.388334 0.075698
H14   H     H_    0.906045 0.324103 0.434758 0.130156
H15   H     H_    0.891893 0.585097 0.505759 0.215568
H16   H     H_    0.844896 0.432009 0.802082 0.189639
H17   H     H_    0.429611 0.411942 0.185729 0.156245
H18   H     H_    0.163782 0.429606 0.834288 0.177100
N1    N     N_2   0.148270 0.498670 0.498870 0.077007
N2    N     N_2   0.852610 0.498640 0.498840 -0.174146
O1    O     O_R   0.386950 0.680940 0.500020 -0.644885
O2    O     O_R   0.795617 0.730816 0.212449 -0.805222
O3    O     O_3   0.054749 0.541368 0.590602 -0.550891
O4    O     O_2   0.901459 0.648646 0.847241 -0.640261
O5    O     O_R   0.029571 0.628246 0.959797 -0.790074
O6    O     O_R   0.613110 0.680900 0.499980 -0.607658
O7    O     O_R   0.330780 0.500000 0.653640 -0.599664
O8    O     O_R   0.556930 0.499960 0.653610 -0.609789
O9    O     O_R   0.386890 0.319100 0.500020 -0.624485
O10   O     O_R   0.613050 0.319060 0.499980 -0.630624
O11   O     O_R   0.443070 0.500040 0.346390 -0.626777
O12   O     O_R   0.669220 0.500000 0.346360 -0.602245
O13   O     O_2   0.950423 0.568067 0.171289 -0.618993
Zn1   Zn    Zn3+2 0.349000 0.500030 0.500020 0.973396
Zn2   Zn    Zn3+2 0.651000 0.499970 0.499980 0.959890

loop_
_geom_bond_atom_site_label_1
_geom_bond_atom_site_label_2
_ccdc_geom_bond_type
C12   C17   A    
C25   H4    S    
C2    C4    S    
C23   C24   A    
C6    H11   S    
C1    O1    A    
C6    C7    D    
O7    Zn1   S    
C14   C27   A    
C11   O11   A    
C10   O9    A    
O6    Zn2   S    
N1    O3    S    
C9    H14   S    
H15   N2    S    
C3    C6    S    
O11   Zn1   S    
C26   H17   S    
C5    C10   S    
C20   O5    S    
C19   H8    S    
C14   C26   A    
C1    O6    A    
C2    C15   A    
C19   O3    S    
O1    Zn1   S    
C16   C17   A    
C2    C21   A    
N2    Zn2   S    
C11   O12   A    
C18   O13   D    
C9    N2    D    
C20   O4    D    
C19   H9    S    
C22   C23   A    
C4    O8    A    
C3    H5    S    
C11   C14   S    
C8    N1    D    
C15   H18   S    
N1    Zn1   S    
C16   H3    S    
C15   C16   A    
C5    H1    S    
O8    Zn2   S    
C12   C22   A    
O10   Zn2   S    
C10   O10   A    
C17   H2    S    
C24   C25   A    
C13   C23   A    
C22   C26   A    
H10   O5    S    
C24   H16   S    
C7    H12   S    
O9    Zn1   S    
C13   C27   A    
O12   Zn2   S    
C21   C25   A    
C8    H13   S    
C13   C20   S    
C4    O7    A    
C1    C7    S    
H6    O2    S    
C12   C21   A    
C18   C27   S    
C18   O2    S    
C8    C9    S    
C3    C5    D    
C19   H7    S    
