data_mof_unit_22420.cif
_audit_creation_date              2012-12-10T17:59:45-0500
_audit_creation_method            fapswitch 2.2
_symmetry_space_group_name_H-M    P1
_symmetry_Int_Tables_number       1
_space_group_crystal_system       triclinic
_cell_length_a                    10.835761
_cell_length_b                    9.517152
_cell_length_c                    15.927242
_cell_angle_alpha                 90.095385
_cell_angle_beta                  90.182148
_cell_angle_gamma                 90.199173
_cell_volume                      1642.48560973

loop_
_atom_site_label
_atom_site_type_symbol
_atom_type_description
_atom_site_fract_x
_atom_site_fract_y
_atom_site_fract_z
_atom_type_partial_charge
C1    C     C_R   0.262058 0.499859 0.499858 0.796498
C2    C     C_3   0.644747 0.444620 0.948680 -0.133831
C3    C     C_3   0.648373 0.448488 0.051568 -0.227100
C4    C     C_1   0.507345 0.499281 0.824221 0.018853
C5    C     C_1   0.505515 0.498402 0.175886 0.176545
C6    C     C_1   0.502379 0.499365 0.251161 0.053961
C7    C     C_R   0.063423 0.372231 0.499786 -0.158199
C8    C     C_R   0.064269 0.627601 0.499557 -0.157236
C9    C     C_R   0.935735 0.372394 0.499891 -0.154034
C10   C     C_R   0.936582 0.627764 0.499661 -0.154051
C11   C     C_R   0.871792 0.500168 0.499865 -0.015380
C12   C     C_R   0.128212 0.499828 0.499704 -0.016049
C13   C     C_R   0.423123 0.073979 0.447892 0.012131
C14   C     C_R   0.423124 0.925140 0.447890 0.014851
C15   C     C_R   0.500023 0.499868 0.340344 0.824976
C16   C     C_R   0.577013 0.926022 0.552091 -0.009690
C17   C     C_R   0.577006 0.074862 0.552097 -0.003242
C18   C     C_R   0.737947 0.500140 0.499996 0.800793
C19   C     C_R   0.500274 0.500103 0.659712 0.825615
C20   C     C_3   0.479642 0.653378 0.048023 -0.112622
C21   C     C_3   0.406448 0.388922 0.047152 -0.151374
C22   C     C_3   0.405670 0.404175 0.948999 -0.373813
C23   C     C_3   0.487381 0.647659 0.949125 -0.502881
C24   C     C_1   0.503376 0.500180 0.748987 -0.112082
C25   C     C_3   0.510558 0.497011 0.083241 -0.095940
C26   C     C_3   0.513401 0.496913 0.916753 0.115833
Cu1   Cu    Cu3+1 0.500020 0.640660 0.500000 0.984804
Cu2   Cu    Cu3+1 0.500020 0.359340 0.500000 0.988040
H1    H     H_    0.401881 0.685361 0.918286 0.237704
H2    H     H_    0.320011 0.456317 0.926722 0.220874
H3    H     H_    0.638721 0.870269 0.593772 0.130246
H4    H     H_    0.638706 0.131317 0.593794 0.135154
H5    H     H_    0.400053 0.302147 0.915833 0.253619
H6    H     H_    0.555286 0.721563 0.922232 0.209638
H7    H     H_    0.111109 0.272379 0.499828 0.153207
H8    H     H_    0.112621 0.727415 0.499410 0.153306
H9    H     H_    0.887387 0.272577 0.500028 0.155220
H10   H     H_    0.888900 0.727619 0.499610 0.155187
H11   H     H_    0.361483 0.129732 0.406161 0.144426
H12   H     H_    0.361483 0.868686 0.406151 0.144908
N1    N     N_R   0.500030 0.852070 0.500020 -0.169438
N2    N     N_R   0.500030 0.147930 0.500020 -0.170486
O1    O     O_R   0.319660 0.618740 0.500000 -0.593169
O2    O     O_R   0.319660 0.381260 0.500000 -0.592707
O3    O     O_R   0.500020 0.618840 0.379440 -0.557899
O4    O     O_R   0.500020 0.381160 0.379440 -0.561865
O5    O     O_R   0.680370 0.618830 0.500010 -0.587828
O6    O     O_R   0.680370 0.381170 0.500010 -0.589235
O7    O     O_R   0.500010 0.618730 0.620560 -0.581447
O8    O     O_R   0.500010 0.381270 0.620560 -0.568439
C27   C     C_2   0.350148 0.703530 0.075407 0.841838
O9    O     O_2   0.328024 0.721351 0.150024 -0.540086
O10   O     O_R   0.256124 0.729621 0.016997 -0.751705
H13   H     H_    0.176299 0.760662 0.044293 0.354882
C28   C     C_2   0.274809 0.415438 0.080617 0.851959
O11   O     O_2   0.257379 0.432274 0.155850 -0.556743
O12   O     O_R   0.172246 0.407168 0.027096 -0.729633
H14   H     H_    0.091337 0.418626 0.057990 0.379274
C29   C     C_2   0.428997 0.235373 0.072237 0.877567
O13   O     O_2   0.411348 0.198215 0.144882 -0.521405
O14   O     O_R   0.465692 0.134801 0.013375 -0.725782
H15   H     H_    0.472347 0.037339 0.038335 0.359158
C30   C     C_2   0.567692 0.767636 0.082459 0.838688
O15   O     O_2   0.564905 0.798955 0.157070 -0.510022
O16   O     O_R   0.650887 0.838693 0.030366 -0.786316
H16   H     H_    0.702357 0.911001 0.061700 0.356860
C31   C     C_2   0.752799 0.542957 0.087673 0.828837
O17   O     O_2   0.742119 0.598001 0.156673 -0.567201
O18   O     O_R   0.869934 0.543740 0.050753 -0.731658
H17   H     H_    0.931416 0.604708 0.082385 0.346135
C32   C     C_2   0.692714 0.308237 0.090686 0.836463
O19   O     O_2   0.648216 0.263700 0.155840 -0.556852
O20   O     O_R   0.800790 0.244790 0.061434 -0.754038
H18   H     H_    0.824662 0.158371 0.094828 0.348378
C33   C     C_2   0.740858 0.544147 0.909184 0.391952
H19   H     H_    0.748349 0.652072 0.930221 0.145026
O21   O     O_2   0.810365 0.506398 0.853189 -0.527963
C34   C     C_2   0.673923 0.297613 0.912836 0.520129
H20   H     H_    0.767480 0.258106 0.916225 0.157577
O22   O     O_2   0.598803 0.226642 0.874235 -0.531670

loop_
_geom_bond_atom_site_label_1
_geom_bond_atom_site_label_2
_ccdc_geom_bond_type
C28   O11   D    
C30   O16   S    
C11   C18   S    
O20   H18   S    
C18   O5    A    
O10   H13   S    
C16   H3    S    
Cu2   O4    S    
C23   H1    S    
C21   C29   S    
C20   C27   S    
C5    C6    T    
C4    C24   T    
C34   O22   D    
C20   C25   S    
C8    H8    S    
C23   C26   S    
Cu1   N1    S    
C17   N2    A    
C6    C15   S    
Cu2   O8    S    
C1    O1    A    
C16   C17   A    
Cu1   O3    S    
C29   O13   D    
C13   C14   A    
O18   H17   S    
C1    C12   S    
C13   N2    A    
C7    C12   A    
C29   O14   S    
C31   O17   D    
C3    C25   S    
C21   C28   S    
C34   H20   S    
Cu2   O2    S    
C27   O9    D    
C31   O18   S    
C3    C32   S    
C33   H19   S    
C2    C34   S    
C33   O21   D    
C19   O7    A    
C1    O2    A    
C20   C23   S    
C8    C12   A    
C23   H6    S    
C9    H9    S    
C2    C26   S    
C9    C11   A    
C14   N1    A    
C5    C25   S    
C28   O12   S    
C15   O3    A    
C32   O20   S    
Cu1   O5    S    
C7    C9    A    
C22   H5    S    
C21   C25   S    
Cu2   O6    S    
C22   H2    S    
C7    H7    S    
C3    C31   S    
C18   O6    A    
C4    C26   S    
C10   H10   S    
C20   C30   S    
C19   C24   S    
C32   O19   D    
C19   O8    A    
O12   H14   S    
Cu2   N2    S    
C2    C3    S    
O14   H15   S    
C13   H11   S    
C10   C11   A    
C14   H12   S    
C30   O15   D    
Cu1   O1    S    
C8    C10   A    
O16   H16   S    
C22   C26   S    
Cu1   Cu2   S    
C17   H4    S    
C15   O4    A    
C27   O10   S    
C21   C22   S    
C16   N1    A    
C2    C33   S    
Cu1   O7    S    
