data_mof_unit_25292.cif
_audit_creation_date              2012-12-10T17:19:23-0500
_audit_creation_method            fapswitch 2.2
_symmetry_space_group_name_H-M    P1
_symmetry_Int_Tables_number       1
_space_group_crystal_system       triclinic
_cell_length_a                    15.07393
_cell_length_b                    10.775193
_cell_length_c                    9.605072
_cell_angle_alpha                 89.864801
_cell_angle_beta                  89.97186
_cell_angle_gamma                 92.661974
_cell_volume                      1558.41097081

loop_
_atom_site_label
_atom_site_type_symbol
_atom_type_description
_atom_site_fract_x
_atom_site_fract_y
_atom_site_fract_z
_atom_type_partial_charge
C1    C     C_R   0.497419 0.262701 0.500194 0.822435
C2    C     C_R   0.907532 0.516627 0.625216 0.126644
C3    C     C_R   0.953350 0.470947 0.246170 0.484159
C4    C     C_R   0.046126 0.474572 0.247449 -0.278124
C5    C     C_R   0.092776 0.488134 0.372874 0.026129
C6    C     C_R   0.046517 0.501613 0.499085 0.066852
C7    C     C_R   0.093315 0.515609 0.625823 0.126448
C8    C     C_R   0.046988 0.530533 0.750728 -0.221532
C9    C     C_R   0.954592 0.531449 0.750298 -0.200502
C10   C     C_R   0.185189 0.488148 0.374076 -0.205467
C11   C     C_R   0.231856 0.500828 0.499930 -0.065874
C12   C     C_R   0.328748 0.499895 0.500035 0.775217
C13   C     C_R   0.185740 0.514742 0.625406 -0.264766
C14   C     C_R   0.349257 0.118987 0.626740 -0.157907
C15   C     C_R   0.279283 0.048955 0.687343 -0.138803
C16   C     C_R   0.279353 0.919824 0.686509 -0.124570
C17   C     C_R   0.349472 0.859922 0.625283 -0.133937
C18   C     C_R   0.421729 0.928987 0.564677 0.023878
C19   C     C_R   0.421500 0.060229 0.565281 0.096370
C20   C     C_R   0.492458 0.128692 0.500569 -0.195161
C21   C     C_R   0.560745 0.069001 0.434234 -0.253086
C22   C     C_R   0.561602 0.940999 0.434666 0.596078
C23   C     C_R   0.498332 0.737184 0.499931 0.851973
C24   C     C_R   0.493248 0.870783 0.500082 -0.233964
C25   C     C_R   0.620041 0.662486 0.143169 -0.213431
C26   C     C_R   0.679974 0.740245 0.070716 0.671531
C27   C     C_R   0.679584 0.740733 0.927247 -0.316079
C28   C     C_R   0.619647 0.663131 0.855433 -0.254760
C29   C     C_R   0.558866 0.580085 0.924902 0.220169
C30   C     C_R   0.558943 0.579916 0.074394 0.100774
C31   C     C_R   0.443878 0.423935 0.074117 -0.041968
C32   C     C_R   0.443930 0.423918 0.926252 -0.054915
C33   C     C_R   0.671268 0.501052 0.499917 0.817323
C34   C     C_R   0.815167 0.516234 0.624834 -0.228659
C35   C     C_R   0.768225 0.502535 0.499514 -0.067723
C36   C     C_R   0.813985 0.489787 0.373574 -0.190134
C37   C     C_R   0.906571 0.487443 0.371818 -0.013514
C38   C     C_R   0.953498 0.501764 0.498619 0.007526
Cu1   Cu    Cu3+1 0.499990 0.499990 0.640660 0.936577
Cu2   Cu    Cu3+1 0.500010 0.500010 0.359340 0.951223
H1    H     H_    0.779985 0.527007 0.722252 0.161027
H2    H     H_    0.345384 0.218957 0.626906 0.130964
H3    H     H_    0.224346 0.095088 0.733926 0.136640
H4    H     H_    0.224459 0.865742 0.732397 0.139315
H5    H     H_    0.345666 0.759539 0.624450 0.143287
H6    H     H_    0.397849 0.361547 0.129433 0.130372
H7    H     H_    0.624317 0.671295 0.252785 0.253698
H8    H     H_    0.725753 0.802225 0.870724 0.189921
H9    H     H_    0.624083 0.672597 0.745704 0.232776
H10   H     H_    0.777212 0.480438 0.277019 0.182011
H11   H     H_    0.397966 0.361473 0.871257 0.129789
H12   H     H_    0.081594 0.465568 0.150035 0.157185
H13   H     H_    0.220626 0.477332 0.276897 0.152171
H14   H     H_    0.221633 0.525488 0.722770 0.153489
H15   H     H_    0.082168 0.541517 0.848636 0.151861
H16   H     H_    0.919863 0.543460 0.847757 0.197822
H17   H     H_    0.614864 0.122224 0.384661 0.177996
N1    N     N_R   0.500860 0.501210 0.147910 -0.184213
N2    N     N_R   0.500890 0.501290 0.852040 -0.186509
O1    O     O_R   0.499990 0.319640 0.618810 -0.575200
O2    O     O_R   0.500000 0.319660 0.381240 -0.576007
O3    O     O_R   0.370250 0.499960 0.618800 -0.600318
O4    O     O_R   0.370260 0.499980 0.381230 -0.586585
O5    O     O_R   0.500000 0.680340 0.618760 -0.605325
O6    O     O_R   0.500010 0.680360 0.381190 -0.570101
O7    O     O_R   0.629740 0.500020 0.618770 -0.600096
O8    O     O_R   0.629750 0.500040 0.381200 -0.606650
F1    F     F_    0.631095 0.885483 0.375185 -0.644757
F2    F     F_    0.738544 0.816402 0.140642 -0.609743
O9    O     O_3   0.909622 0.459620 0.119821 -0.603634
C39   C     C_3   0.880455 0.334259 0.098467 0.042160
H18   H     H_    0.820555 0.334019 0.031171 0.177665
H19   H     H_    0.859978 0.284547 0.196231 0.147170
C40   C     C_3   0.951084 0.262705 0.023191 -0.807150
H20   H     H_    0.009595 0.251995 0.091492 0.235028
H21   H     H_    0.923421 0.168773 0.995177 0.232211
H22   H     H_    0.972365 0.312242 0.926548 0.255299

loop_
_geom_bond_atom_site_label_1
_geom_bond_atom_site_label_2
_ccdc_geom_bond_type
C27   H8    S    
C35   C36   A    
C7    C8    A    
Cu1   O5    S    
C26   C27   A    
C29   C30   A    
Cu2   O4    S    
C40   H21   S    
C4    H12   S    
C18   C24   A    
C31   N1    A    
C36   C37   A    
C17   H5    S    
C34   C35   A    
C5    C6    A    
C15   C16   A    
C31   H6    S    
C18   C19   A    
C10   H13   S    
C29   N2    A    
C8    C9    A    
Cu2   O8    S    
C23   C24   S    
C6    C38   A    
O9    C39   S    
C16   H4    S    
C14   H2    S    
C2    C34   A    
C21   C22   A    
C34   H1    S    
C8    H15   S    
C5    C10   A    
C33   O7    A    
Cu2   N1    S    
C40   H20   S    
C3    O9    S    
C1    O1    A    
Cu1   Cu2   S    
C39   H19   S    
C12   O4    A    
C16   C17   A    
C25   C26   A    
C40   H22   S    
Cu2   O2    S    
C32   H11   S    
C21   H17   S    
C37   C38   A    
C12   O3    A    
C28   H9    S    
C2    C38   A    
C31   C32   A    
Cu1   N2    S    
C17   C18   A    
C9    H16   S    
C22   F1    S    
C23   O5    A    
Cu2   O6    S    
Cu1   O7    S    
C22   C24   A    
C3    C4    A    
C36   H10   S    
C33   O8    A    
C13   H14   S    
C25   C30   A    
Cu1   O3    S    
C25   H7    S    
C28   C29   A    
C1    C20   S    
C14   C19   A    
C4    C5    A    
C1    O2    A    
C39   C40   S    
C11   C12   S    
C6    C7    A    
C23   O6    A    
C19   C20   A    
C15   H3    S    
C39   H18   S    
C11   C13   A    
Cu1   O1    S    
C30   N1    A    
C33   C35   S    
C10   C11   A    
C7    C13   A    
C20   C21   A    
C3    C37   A    
C27   C28   A    
C26   F2    S    
C14   C15   A    
C32   N2    A    
C2    C9    A    
