data_mof_unit_25071.cif
_audit_creation_date              2012-12-10T18:11:08-0500
_audit_creation_method            fapswitch 2.2
_symmetry_space_group_name_H-M    P1
_symmetry_Int_Tables_number       1
_space_group_crystal_system       triclinic
_cell_length_a                    10.91892
_cell_length_b                    9.65539
_cell_length_c                    10.893486
_cell_angle_alpha                 89.508063
_cell_angle_beta                  86.7485
_cell_angle_gamma                 89.499196
_cell_volume                      1146.53109521

loop_
_atom_site_label
_atom_site_type_symbol
_atom_type_description
_atom_site_fract_x
_atom_site_fract_y
_atom_site_fract_z
_atom_type_partial_charge
Br1   Br    Br    0.255049 0.669477 0.945086 -0.378671
Br2   Br    Br    0.886209 0.636503 0.259381 -0.480122
Br3   Br    Br    0.873851 0.321984 0.280806 -0.498646
Br4   Br    Br    0.670784 0.150936 0.693298 -0.436260
Br5   Br    Br    0.696145 0.834724 0.669241 -0.403003
Br6   Br    Br    0.765626 0.631179 0.898399 -0.340044
Br7   Br    Br    0.501224 0.162801 0.972932 -0.536804
Br8   Br    Br    0.119246 0.735419 0.684469 -0.393862
Br9   Br    Br    0.106804 0.403898 0.764909 -0.382906
C1    C     C_R   0.260748 0.500470 0.504488 0.880560
C2    C     C_3   0.939934 0.481055 0.362489 0.407230
C3    C     C_3   0.623179 0.081377 0.532734 0.423413
C4    C     C_3   0.625761 0.914089 0.522239 0.444736
C5    C     C_3   0.395323 0.082370 0.581195 0.044276
C6    C     C_3   0.407712 0.918020 0.596144 0.050972
C7    C     C_3   0.473566 0.084220 0.379222 -0.331371
C8    C     C_3   0.460833 0.919020 0.383732 -0.359549
C9    C     C_R   0.503244 0.500690 0.260508 0.906614
C10   C     C_R   0.739994 0.499208 0.499349 0.906000
C11   C     C_R   0.499917 0.498711 0.740316 0.923612
C12   C     C_3   0.506503 0.502377 0.124658 -0.110813
C13   C     C_3   0.509263 0.628116 0.037544 0.069222
C14   C     C_3   0.405707 0.440198 0.051152 0.043940
C15   C     C_3   0.404995 0.567807 0.965424 0.225324
C16   C     C_3   0.502093 0.494134 0.877478 -0.270636
C17   C     C_3   0.606123 0.558128 0.949798 0.217052
C18   C     C_3   0.499887 0.364112 0.965244 0.245086
C19   C     C_3   0.600699 0.431432 0.036414 0.052975
C20   C     C_3   0.065007 0.644385 0.539410 0.106781
C21   C     C_3   0.066952 0.386947 0.593337 0.104291
C22   C     C_3   0.925431 0.632890 0.552402 -0.374238
C23   C     C_3   0.926412 0.379566 0.581774 -0.413327
C24   C     C_3   0.085587 0.465900 0.366655 0.167133
C25   C     C_3   0.123484 0.500113 0.502501 -0.102060
C26   C     C_3   0.879735 0.497145 0.496995 -0.132643
Cu1   Cu    Cu3+1 0.499860 0.642410 0.500060 1.037234
Cu2   Cu    Cu3+1 0.499860 0.357590 0.500060 1.017914
H1    H     H_    0.387205 0.129965 0.346492 0.169332
H2    H     H_    0.877494 0.385504 0.674013 0.251177
H3    H     H_    0.888044 0.723505 0.506855 0.220803
H4    H     H_    0.905388 0.277764 0.544211 0.208071
H5    H     H_    0.716511 0.113221 0.357502 0.233685
H6    H     H_    0.806347 0.106438 0.477836 0.222929
H7    H     H_    0.692594 0.900601 0.333315 0.225629
H8    H     H_    0.801218 0.895598 0.434271 0.214156
H9    H     H_    0.433623 0.144713 0.753021 0.297111
H10   H     H_    0.284629 0.118902 0.736474 0.233685
H11   H     H_    0.488363 0.934737 0.764595 0.273130
H12   H     H_    0.363682 0.891792 0.369790 0.165561
H13   H     H_    0.343009 0.885256 0.774601 0.262603
H14   H     H_    0.524245 0.832083 0.993911 0.291747
H15   H     H_    0.430798 0.798388 0.117531 0.238338
H16   H     H_    0.243096 0.345761 0.029986 0.298750
H17   H     H_    0.322231 0.282168 0.145319 0.246921
H18   H     H_    0.743591 0.301980 0.993622 0.295509
H19   H     H_    0.775002 0.432557 0.084575 0.307872
H20   H     H_    0.122968 0.534450 0.188221 0.331705
H21   H     H_    0.130401 0.662948 0.289176 0.234335
H22   H     H_    0.083742 0.246018 0.386474 0.222752
H23   H     H_    0.540175 0.115870 0.304532 0.212022
H24   H     H_    0.218989 0.310882 0.329296 0.244950
H25   H     H_    0.509839 0.872740 0.302878 0.220729
H26   H     H_    0.308887 0.097535 0.531852 0.133409
H27   H     H_    0.317081 0.876042 0.574711 0.176399
H28   H     H_    0.088818 0.723275 0.468239 0.128923
H29   H     H_    0.107663 0.283791 0.572208 0.133010
H30   H     H_    0.893054 0.637103 0.650743 0.284469
N1    N     N_3   0.500250 0.143650 0.502780 -0.154810
N2    N     N_3   0.149977 0.558372 0.276063 -0.546128
N3    N     N_3   0.124313 0.323647 0.331438 -0.519716
N4    N     N_3   0.500250 0.856350 0.502780 -0.163341
N5    N     N_3   0.720721 0.138019 0.449574 -0.511634
N6    N     N_3   0.711640 0.865940 0.420845 -0.521303
N7    N     N_3   0.365179 0.158607 0.693636 -0.490848
N8    N     N_3   0.425753 0.872846 0.722775 -0.475064
N9    N     N_3   0.515611 0.772320 0.074301 -0.501538
N10   N     N_3   0.295297 0.374099 0.103096 -0.529165
N11   N     N_3   0.709681 0.357187 0.070556 -0.454935
O1    O     O_R   0.317570 0.620260 0.500070 -0.579170
O2    O     O_R   0.317570 0.379740 0.500070 -0.608094
O3    O     O_R   0.499850 0.620240 0.316900 -0.581680
O4    O     O_R   0.499850 0.379760 0.316900 -0.584694
O5    O     O_R   0.682190 0.620260 0.500030 -0.528439
O6    O     O_R   0.682190 0.379740 0.500030 -0.520406
O7    O     O_R   0.499910 0.620280 0.683200 -0.507949
O8    O     O_R   0.499910 0.379720 0.683200 -0.530209

loop_
_geom_bond_atom_site_label_1
_geom_bond_atom_site_label_2
_ccdc_geom_bond_type
H24   N3    S    
C6    N8    S    
H6    N5    S    
C9    C12   S    
C13   N9    S    
H19   N11   S    
C22   H30   S    
C3    N1    S    
Br8   C20   S    
C5    N7    S    
Cu1   Cu2   S    
C11   C16   S    
Cu1   O5    S    
Cu2   N1    S    
C9    O3    A    
Br7   C18   S    
C22   H3    S    
H8    N6    S    
C7    H23   S    
C23   H2    S    
C7    C8    S    
C11   O8    A    
C6    H27   S    
Cu2   O6    S    
C7    N1    S    
C14   C18   S    
Br4   C3    S    
C19   N11   S    
Br5   C4    S    
Cu1   N4    S    
C24   N2    S    
H17   N10   S    
C3    N5    S    
C12   C13   S    
H11   N8    S    
C10   O5    A    
Br2   C2    S    
Cu2   O2    S    
C21   C25   S    
C23   C26   S    
Cu2   O8    S    
C2    C24   S    
C15   C16   S    
C8    H12   S    
H18   N11   S    
C1    O2    A    
C4    N4    S    
C16   C17   S    
C20   C25   S    
C14   N10   S    
H16   N10   S    
C8    H25   S    
Cu1   O3    S    
C14   C15   S    
C11   O7    A    
H5    N5    S    
C24   C25   S    
C1    C25   S    
H14   N9    S    
C21   H29   S    
Br9   C21   S    
C20   H28   S    
C24   N3    S    
C12   C19   S    
C4    N6    S    
C8    N4    S    
C12   C14   S    
C13   C15   S    
Cu2   O4    S    
C23   H4    S    
C10   O6    A    
H9    N7    S    
H10   N7    S    
H15   N9    S    
Cu1   O1    S    
C1    O1    A    
H21   N2    S    
Cu1   O7    S    
C16   C18   S    
C6    N4    S    
C17   C19   S    
C2    C26   S    
C20   C22   S    
C10   C26   S    
H13   N8    S    
C21   C23   S    
Br6   C17   S    
C5    H26   S    
C9    O4    A    
C22   C26   S    
H7    N6    S    
Br3   C2    S    
H22   N3    S    
C3    C4    S    
Br1   C15   S    
C13   C17   S    
C18   C19   S    
C5    N1    S    
C5    C6    S    
H20   N2    S    
C7    H1    S    
