data_mof_unit_43416.cif
_audit_creation_date              2012-12-10T17:23:31-0500
_audit_creation_method            fapswitch 2.2
_symmetry_space_group_name_H-M    P1
_symmetry_Int_Tables_number       1
_space_group_crystal_system       triclinic
_cell_length_a                    10.170914
_cell_length_b                    10.806088
_cell_length_c                    15.714995
_cell_angle_alpha                 90.294433
_cell_angle_beta                  81.624452
_cell_angle_gamma                 94.312428
_cell_volume                      1703.91168252

loop_
_atom_site_label
_atom_site_type_symbol
_atom_type_description
_atom_site_fract_x
_atom_site_fract_y
_atom_site_fract_z
_atom_type_partial_charge
C1    C     C_R   0.554534 0.732821 0.491849 0.979169
C2    C     C_3   0.539470 0.393138 0.967142 0.581812
C3    C     C_3   0.585718 0.594171 0.965552 -0.324020
C4    C     C_3   0.414448 0.403464 0.034341 -0.321617
C5    C     C_1   0.501863 0.502097 0.750771 -0.191501
C6    C     C_1   0.498063 0.497610 0.249200 -0.161443
C7    C     C_3   0.374947 0.514325 0.983415 -0.318370
C8    C     C_3   0.625227 0.483326 0.016476 -0.315685
C9    C     C_3   0.500725 0.501916 0.917047 0.074769
C10   C     C_3   0.499432 0.495746 0.082847 0.070215
C11   C     C_1   0.501804 0.502453 0.826081 0.005767
C12   C     C_R   0.445276 0.268402 0.503399 0.984709
C13   C     C_1   0.498198 0.496137 0.173864 0.012503
C14   C     C_2   0.579268 0.866150 0.493740 -0.434303
C15   C     C_2   0.419030 0.142613 0.480662 -0.413513
C16   C     C_3   0.390316 0.798752 0.013978 0.097758
C17   C     C_3   0.348381 0.916815 0.059898 -0.810021
C18   C     C_3   0.611284 0.199450 0.985796 0.101990
C19   C     C_3   0.652561 0.081041 0.940093 -0.843338
C20   C     C_3   0.598399 0.077814 0.631894 0.044562
C21   C     C_3   0.606234 0.164533 0.707760 -0.710137
C22   C     C_3   0.258664 0.890314 0.458025 0.125697
C23   C     C_2   0.477476 0.933452 0.482624 0.409344
C24   C     C_3   0.177662 0.810810 0.401272 -0.781763
C25   C     C_3   0.149844 0.658797 0.657558 0.251645
C26   C     C_3   0.047523 0.755734 0.667605 -0.991893
C27   C     C_3   0.861593 0.264000 0.402647 0.209797
C28   C     C_3   0.787828 0.215313 0.330241 -0.816702
C29   C     C_2   0.465224 0.054827 0.524056 0.347101
C30   C     C_2   0.927832 0.514799 0.503840 0.059522
C31   C     C_2   0.076901 0.509620 0.482333 0.035877
C32   C     C_R   0.500761 0.501082 0.661944 0.880159
C33   C     C_R   0.499342 0.499467 0.338023 0.889447
C34   C     C_3   0.460703 0.604490 0.032710 0.583346
H1    H     H_    0.653707 0.672190 0.935571 0.154378
H2    H     H_    0.479342 0.823491 0.965402 0.131856
H3    H     H_    0.429583 0.957367 0.094001 0.257140
H4    H     H_    0.326903 0.985564 0.012439 0.206491
H5    H     H_    0.257362 0.895862 0.107360 0.258814
H6    H     H_    0.523240 0.174966 0.035204 0.135258
H7    H     H_    0.695681 0.238544 0.017888 0.141071
H8    H     H_    0.741985 0.101867 0.891309 0.259008
H9    H     H_    0.676376 0.013289 0.987449 0.216039
H10   H     H_    0.570091 0.039266 0.907647 0.249089
H11   H     H_    0.674413 0.113659 0.577600 0.127940
H12   H     H_    0.346531 0.325377 0.064287 0.155837
H13   H     H_    0.622732 0.984892 0.652063 0.146798
H14   H     H_    0.532737 0.130976 0.763653 0.266411
H15   H     H_    0.707813 0.168545 0.726162 0.207406
H16   H     H_    0.584276 0.259017 0.690010 0.258309
H17   H     H_    0.221727 0.984390 0.460004 0.132551
H18   H     H_    0.240407 0.850880 0.524021 0.147527
H19   H     H_    0.217125 0.717936 0.392518 0.274366
H20   H     H_    0.071599 0.799916 0.431301 0.188393
H21   H     H_    0.184032 0.855475 0.337155 0.250920
H22   H     H_    0.246167 0.700343 0.623876 0.157960
H23   H     H_    0.725985 0.469181 0.032193 0.158478
H24   H     H_    0.167732 0.631569 0.722710 0.146609
H25   H     H_    0.954713 0.718046 0.708228 0.270917
H26   H     H_    0.087987 0.839947 0.698643 0.232919
H27   H     H_    0.023292 0.781656 0.603726 0.247300
H28   H     H_    0.801822 0.236175 0.465646 0.127318
H29   H     H_    0.956118 0.217619 0.398585 0.113127
H30   H     H_    0.849536 0.236623 0.267003 0.246693
H31   H     H_    0.766890 0.113180 0.336856 0.198002
H32   H     H_    0.691880 0.258566 0.332797 0.266591
H33   H     H_    0.274206 0.528559 0.967699 0.156289
H34   H     H_    0.398239 0.127511 0.415319 0.121250
H35   H     H_    0.666018 0.903933 0.520256 0.078558
H36   H     H_    0.119064 0.473731 0.420584 0.139154
H37   H     H_    0.888876 0.573509 0.556330 0.141603
H38   H     H_    0.306801 0.760192 0.980868 0.135506
N1    N     N_2   0.842700 0.448880 0.465440 0.050126
N2    N     N_2   0.157300 0.551120 0.534560 0.038965
O1    O     O_R   0.431060 0.692470 0.506960 -0.612718
O2    O     O_3   0.580260 0.283921 0.924952 -0.610435
O3    O     O_3   0.467091 0.069771 0.611978 -0.616872
O4    O     O_3   0.394968 0.892651 0.422655 -0.600766
O5    O     O_3   0.098526 0.552686 0.617400 -0.544787
O6    O     O_3   0.893815 0.392995 0.392410 -0.545382
O7    O     O_R   0.568940 0.307530 0.493040 -0.634021
O8    O     O_R   0.651120 0.659650 0.484770 -0.629427
O9    O     O_R   0.348880 0.340350 0.515230 -0.602496
O10   O     O_R   0.389990 0.516420 0.634310 -0.613236
O11   O     O_R   0.610010 0.483580 0.365690 -0.583342
O12   O     O_R   0.610050 0.483600 0.612130 -0.629924
O13   O     O_R   0.389950 0.516400 0.387870 -0.634889
O14   O     O_3   0.419735 0.713622 0.074922 -0.597503
Zn1   Zn    Zn3+2 0.353060 0.521920 0.514810 0.974435
Zn2   Zn    Zn3+2 0.646940 0.478080 0.485190 0.977508

loop_
_geom_bond_atom_site_label_1
_geom_bond_atom_site_label_2
_ccdc_geom_bond_type
C28   H32   S    
C16   H38   S    
C25   H22   S    
C21   H15   S    
C30   H37   S    
C4    H12   S    
C24   H21   S    
C20   O3    S    
C23   C29   S    
N2    Zn1   S    
C26   H27   S    
N1    Zn2   S    
C5    C11   T    
C30   C31   S    
C24   H20   S    
C18   C19   S    
C17   H5    S    
C18   H6    S    
C33   O11   A    
C31   H36   S    
C16   C17   S    
C26   H25   S    
C20   H11   S    
C19   H8    S    
C5    C32   S    
C4    C7    S    
C32   O10   A    
C21   H16   S    
C25   C26   S    
C19   H9    S    
C15   C29   D    
O9    Zn1   S    
C1    O1    A    
C22   O4    S    
C3    C8    S    
O12   Zn2   S    
C18   H7    S    
C30   N1    D    
C31   N2    D    
C17   H3    S    
C3    C34   S    
C1    O8    A    
C12   O9    A    
C14   C23   D    
C2    C4    S    
C3    C9    S    
C27   H28   S    
C8    H23   S    
C12   C15   S    
C3    H1    S    
C32   O12   A    
C10   C34   S    
C34   O14   S    
C9    C11   S    
C27   H29   S    
O7    Zn2   S    
C28   H30   S    
C27   O6    S    
N2    O5    S    
O13   Zn1   S    
C14   H35   S    
C22   C24   S    
C25   H24   S    
C4    C10   S    
C2    O2    S    
C19   H10   S    
C22   H18   S    
C7    C9    S    
C18   O2    S    
C25   O5    S    
C2    C8    S    
C10   C13   S    
O11   Zn2   S    
O8    Zn2   S    
C6    C33   S    
C21   H14   S    
C28   H31   S    
C24   H19   S    
C16   H2    S    
C6    C13   T    
C15   H34   S    
C7    C34   S    
N1    O6    S    
C12   O7    A    
C17   H4    S    
C23   O4    S    
C33   O13   A    
C20   H13   S    
O1    Zn1   S    
C7    H33   S    
C29   O3    S    
C20   C21   S    
C8    C10   S    
O10   Zn1   S    
C27   C28   S    
C16   O14   S    
C1    C14   S    
C2    C9    S    
C26   H26   S    
C22   H17   S    
