data_mof_unit_18662.cif
_audit_creation_date              2012-10-26T20:16:43-0400
_audit_creation_method            fapswitch 2.2
_symmetry_space_group_name_H-M    P1
_symmetry_Int_Tables_number       1
_space_group_crystal_system       triclinic
_cell_length_a                    10.906771
_cell_length_b                    10.905105
_cell_length_c                    9.801752
_cell_angle_alpha                 98.735961
_cell_angle_beta                  98.729167
_cell_angle_gamma                 92.981628
_cell_volume                      1135.57605814

loop_
_atom_site_label
_atom_site_type_symbol
_atom_type_description
_atom_site_fract_x
_atom_site_fract_y
_atom_site_fract_z
_atom_type_partial_charge
C1    C     C_R   0.500940 0.261970 0.499288 0.543818
C2    C     C_R   0.672453 0.949019 0.849662 -0.095804
C3    C     C_R   0.447575 0.076590 0.228526 0.061385
C4    C     C_R   0.552432 0.923412 0.771472 0.061376
C5    C     C_R   0.541992 0.132171 0.169854 -0.030162
C6    C     C_R   0.458012 0.867834 0.830134 -0.030162
C7    C     C_R   0.514989 0.166423 0.037359 -0.093032
C8    C     C_R   0.485009 0.833571 0.962623 -0.093020
C9    C     C_R   0.394742 0.142263 0.961094 -0.122697
C10   C     C_R   0.605253 0.857719 0.038891 -0.122696
C11   C     C_R   0.471596 0.914922 0.375975 -0.165855
C12   C     C_R   0.499063 0.738031 0.500712 0.543816
C13   C     C_R   0.528415 0.085081 0.624025 -0.165855
C14   C     C_R   0.497779 0.872247 0.503789 -0.008733
C15   C     C_R   0.502231 0.127755 0.496211 -0.008731
C16   C     C_R   0.261970 0.500928 0.499285 0.543758
C17   C     C_R   0.738030 0.499071 0.500715 0.543758
C18   C     C_R   0.525271 0.958804 0.630336 -0.032950
C19   C     C_R   0.474742 0.041198 0.369663 -0.032947
C20   C     C_2   0.510769 0.510302 0.078979 -0.042940
C21   C     C_2   0.489233 0.489696 0.921022 -0.042938
C22   C     C_R   0.166049 0.514317 0.037027 -0.093907
C23   C     C_R   0.872247 0.497814 0.503798 -0.008766
C24   C     C_R   0.833942 0.485658 0.962971 -0.093907
C25   C     C_R   0.132124 0.541467 0.169668 -0.030157
C26   C     C_R   0.867868 0.458516 0.830326 -0.030153
C27   C     C_R   0.076553 0.447182 0.228535 0.061385
C28   C     C_R   0.923442 0.552810 0.771466 0.061388
C29   C     C_R   0.050668 0.327125 0.150425 -0.095962
C30   C     C_R   0.949324 0.672867 0.849583 -0.095961
C31   C     C_R   0.082363 0.301147 0.016706 -0.119933
C32   C     C_R   0.917629 0.698835 0.983304 -0.119936
C33   C     C_R   0.141596 0.394044 0.960826 -0.123203
C34   C     C_R   0.127752 0.502188 0.496202 -0.008768
C35   C     C_R   0.858397 0.605929 0.039181 -0.123205
C36   C     C_R   0.914930 0.471502 0.375996 -0.165841
C37   C     C_R   0.085068 0.528504 0.624002 -0.165839
C38   C     C_R   0.958799 0.525425 0.630325 -0.032898
C39   C     C_R   0.041199 0.474575 0.369674 -0.032899
C40   C     C_R   0.301727 0.082968 0.016748 -0.119839
C41   C     C_R   0.698273 0.917006 0.983244 -0.119840
C42   C     C_R   0.327552 0.050964 0.150337 -0.095809
Cu1   Cu    Cu3+1 0.521120 0.521140 0.639640 0.933621
Cu2   Cu    Cu3+1 0.478880 0.478860 0.360360 0.933619
H1    H     H_    0.635675 0.150403 0.227643 0.097922
H2    H     H_    0.379954 0.381073 0.095077 0.230186
H3    H     H_    0.210729 0.586614 0.993093 0.096251
H4    H     H_    0.789262 0.413352 0.006901 0.096247
H5    H     H_    0.150531 0.635183 0.227379 0.098206
H6    H     H_    0.849462 0.364800 0.772608 0.098201
H7    H     H_    0.005571 0.254023 0.192914 0.092739
H8    H     H_    0.994423 0.745976 0.807099 0.092733
H9    H     H_    0.060028 0.209217 0.955915 0.091792
H10   H     H_    0.939965 0.790764 0.044100 0.091788
H11   H     H_    0.849442 0.449187 0.279230 0.126437
H12   H     H_    0.364333 0.849608 0.772340 0.097923
H13   H     H_    0.150556 0.550824 0.720768 0.126437
H14   H     H_    0.373871 0.168133 0.858274 0.100252
H15   H     H_    0.626121 0.831839 0.141706 0.100250
H16   H     H_    0.209821 0.060847 0.955894 0.091842
H17   H     H_    0.790181 0.939111 0.044098 0.091843
H18   H     H_    0.254348 0.005879 0.192682 0.092717
H19   H     H_    0.745661 0.994097 0.807320 0.092720
H20   H     H_    0.167202 0.373065 0.857888 0.100320
H21   H     H_    0.832794 0.626900 0.142123 0.100318
H22   H     H_    0.587379 0.211136 0.993588 0.096211
H23   H     H_    0.412618 0.788856 0.006385 0.096217
H24   H     H_    0.449342 0.849428 0.279198 0.126509
H25   H     H_    0.550661 0.150575 0.720803 0.126507
H26   H     H_    0.417937 0.419235 0.864988 0.143161
H27   H     H_    0.582065 0.580762 0.135013 0.143161
H28   H     H_    0.620056 0.618919 0.904924 0.230185
N1    N     N_2   0.447120 0.447110 0.150550 -0.350236
N2    N     N_2   0.552880 0.552890 0.849450 -0.350231
O1    O     O_R   0.517830 0.337490 0.617920 -0.513194
O2    O     O_R   0.482170 0.662510 0.382080 -0.513192
O3    O     O_R   0.482150 0.301790 0.382070 -0.484418
O4    O     O_R   0.517850 0.698210 0.617930 -0.484415
O5    O     O_R   0.337480 0.517860 0.617920 -0.513293
O6    O     O_R   0.662520 0.482140 0.382080 -0.513296
O7    O     O_R   0.301810 0.482160 0.382070 -0.484690
O8    O     O_R   0.698190 0.517840 0.617930 -0.484693

loop_
_geom_bond_atom_site_label_1
_geom_bond_atom_site_label_2
_ccdc_geom_bond_type
C3    C42   A    
C40   H16   S    
C27   C29   A    
C34   C37   A    
C1    O3    A    
C14   C18   A    
C41   H17   S    
C2    H19   S    
Cu1   O4    S    
C15   C19   A    
C11   C19   A    
C17   C23   S    
C13   C18   A    
Cu2   O3    S    
C24   C26   A    
C9    H14   S    
C26   H6    S    
C11   C14   A    
C35   H21   S    
C2    C41   A    
Cu1   O5    S    
C17   O8    A    
Cu2   O2    S    
C16   C34   S    
C27   C39   S    
C22   C25   A    
C12   O4    A    
C31   C33   A    
C20   H27   S    
C3    C19   S    
C1    C15   S    
C42   H18   S    
C4    C18   S    
Cu1   N2    S    
C40   C42   A    
C22   H3    S    
C10   C41   A    
C32   H10   S    
Cu1   O1    S    
C24   C35   A    
C34   C39   A    
C1    O1    A    
C32   C35   A    
Cu2   O6    S    
H28   N2    S    
Cu2   O7    S    
C5    C7    A    
C6    C8    A    
C5    H1    S    
C21   N2    D    
C9    C40   A    
C24   H4    S    
C2    C4    A    
Cu1   Cu2   S    
C37   C38   A    
C28   C38   S    
C31   H9    S    
C4    C6    A    
C12   C14   S    
C13   C15   A    
C12   O2    A    
C11   H24   S    
C29   H7    S    
C7    C9    A    
C22   C33   A    
C30   H8    S    
C36   C39   A    
C6    H12   S    
C3    C5    A    
C25   C27   A    
C23   C38   A    
C26   C28   A    
C21   H26   S    
C16   O5    A    
C28   C30   A    
C10   H15   S    
C29   C31   A    
C36   H11   S    
C7    H22   S    
C30   C32   A    
C13   H25   S    
C33   H20   S    
C16   O7    A    
C20   N1    D    
C17   O6    A    
Cu2   N1    S    
C25   H5    S    
C20   C21   S    
C8    H23   S    
C8    C10   A    
C23   C36   A    
Cu1   O8    S    
H2    N1    S    
C37   H13   S    
