data_mof_unit_40161.cif
_audit_creation_date              2012-12-10T18:12:37-0500
_audit_creation_method            fapswitch 2.2
_symmetry_space_group_name_H-M    P1
_symmetry_Int_Tables_number       1
_space_group_crystal_system       triclinic
_cell_length_a                    12.599452
_cell_length_b                    13.07519
_cell_length_c                    15.732176
_cell_angle_alpha                 91.34692
_cell_angle_beta                  102.583157
_cell_angle_gamma                 82.134462
_cell_volume                      2505.62059126

loop_
_atom_site_label
_atom_site_type_symbol
_atom_type_description
_atom_site_fract_x
_atom_site_fract_y
_atom_site_fract_z
_atom_type_partial_charge
C1    C     C_R   0.438413 0.691662 0.486806 0.900514
C2    C     C_3   0.500641 0.497079 0.917094 0.107600
C3    C     C_3   0.508384 0.399445 0.028403 -0.194867
C4    C     C_3   0.497066 0.498124 0.082464 0.121192
C5    C     C_3   0.594505 0.445014 0.988608 -0.256476
C6    C     C_3   0.583939 0.543396 0.044867 -0.243590
C7    C     C_1   0.503047 0.498785 0.826531 0.063309
C8    C     C_1   0.496320 0.498454 0.173273 -0.036157
C9    C     C_R   0.711347 0.054286 0.451795 -0.109746
C10   C     C_R   0.599099 0.195435 0.506685 -0.293510
C11   C     C_R   0.292029 0.842978 0.482079 0.545201
C12   C     C_R   0.501004 0.500294 0.661892 0.898707
C13   C     C_R   0.257157 0.948835 0.469571 -0.349796
C14   C     C_R   0.327624 0.014008 0.450273 -0.014890
C15   C     C_R   0.438771 0.974092 0.452389 0.091176
C16   C     C_R   0.465191 0.867251 0.444243 -0.087240
C17   C     C_R   0.525388 0.035061 0.463757 -0.040853
C18   C     C_R   0.624433 0.995248 0.438795 -0.062223
C19   C     C_R   0.637756 0.894094 0.406982 0.546427
C20   C     C_R   0.558359 0.830271 0.410820 -0.238720
C21   C     C_R   0.520332 0.129772 0.507826 0.549335
C22   C     C_R   0.700992 0.153626 0.487297 -0.102836
C23   C     C_R   0.561774 0.307441 0.510400 0.896528
C24   C     C_R   0.397245 0.801399 0.469289 -0.215533
C25   C     C_R   0.084668 0.357112 0.367267 0.411493
C26   C     C_R   0.805461 0.626314 0.607357 -0.097292
C27   C     C_R   0.915849 0.626253 0.649588 0.498270
C28   C     C_R   0.998034 0.563441 0.617998 -0.178786
C29   C     C_R   0.968095 0.509804 0.538508 -0.115477
C30   C     C_R   0.855629 0.498302 0.508135 0.172112
C31   C     C_R   0.044415 0.465970 0.488514 -0.054667
C32   C     C_R   0.010587 0.399360 0.418016 0.071291
C33   C     C_R   0.902375 0.379003 0.397292 -0.156614
C34   C     C_R   0.498984 0.499683 0.338098 0.881062
C35   C     C_R   0.826353 0.428151 0.441422 -0.189035
C36   C     C_R   0.151334 0.491855 0.501522 -0.112390
C37   C     C_R   0.191984 0.380042 0.389068 -0.083317
C38   C     C_3   0.402157 0.550190 0.011384 -0.324621
C39   C     C_3   0.489401 0.593456 0.972757 0.594398
C40   C     C_1   0.503219 0.499859 0.751252 -0.138853
C41   C     C_1   0.496890 0.498948 0.248723 -0.182754
C42   C     C_3   0.415453 0.452251 0.955929 -0.005674
H1    H     H_    0.174473 0.980262 0.474190 0.173605
H2    H     H_    0.568955 0.752648 0.385859 0.173739
H3    H     H_    0.251249 0.348616 0.351819 0.197644
H4    H     H_    0.874944 0.326783 0.345107 0.205253
H5    H     H_    0.179679 0.551895 0.545017 0.180593
H6    H     H_    0.323865 0.592899 0.022279 0.149057
H7    H     H_    0.745463 0.407923 0.422758 0.207565
H8    H     H_    0.652583 0.581182 0.083277 0.144390
H9    H     H_    0.672416 0.401844 0.977402 0.158913
H10   H     H_    0.515584 0.319491 0.053331 0.151493
H11   H     H_    0.789023 0.021378 0.437128 0.225147
N1    N     N_R   0.222180 0.444680 0.455580 -0.129178
N2    N     N_R   0.776980 0.554790 0.543960 -0.190248
O1    O     O_R   0.366730 0.627160 0.478790 -0.571550
O2    O     O_R   0.544830 0.662520 0.507160 -0.644946
O3    O     O_R   0.410960 0.482330 0.609040 -0.576059
O4    O     O_R   0.589060 0.517690 0.637410 -0.657136
O5    O     O_R   0.455170 0.337480 0.492840 -0.527547
O6    O     O_R   0.633270 0.372840 0.521210 -0.663570
O7    O     O_R   0.410940 0.482310 0.362590 -0.620827
O8    O     O_R   0.589040 0.517670 0.390960 -0.640402
Zn1   Zn    Zn3+2 0.381080 0.476390 0.481050 0.999792
Zn2   Zn    Zn3+2 0.618920 0.523610 0.518950 0.896080
O9    O     O_3   0.480157 0.693166 0.937238 -0.597317
C43   C     C_3   0.470339 0.767130 0.002580 -0.266632
H12   H     H_    0.544065 0.757962 0.056947 0.153780
H13   H     H_    0.394792 0.763834 0.027529 0.160281
H14   H     H_    0.463692 0.845050 0.973905 0.201578
O10   O     O_3   0.439086 0.158381 0.553945 -0.609283
C44   C     C_3   0.481432 0.130302 0.641987 -0.290078
H15   H     H_    0.415570 0.150738 0.678522 0.213767
H16   H     H_    0.550594 0.173409 0.671579 0.152936
H17   H     H_    0.507773 0.045536 0.649338 0.177097
O11   O     O_3   0.225925 0.781287 0.511107 -0.571590
C45   C     C_3   0.135262 0.768318 0.442986 -0.259115
H18   H     H_    0.162158 0.734769 0.384173 0.151289
H19   H     H_    0.079604 0.841947 0.426180 0.160644
H20   H     H_    0.086793 0.713676 0.465151 0.179401
C46   C     C_2   0.278031 0.117294 0.414436 0.538088
H21   H     H_    0.201047 0.153154 0.428752 0.087932
O12   O     O_2   0.320161 0.160784 0.365127 -0.592919
O13   O     O_3   0.053965 0.289570 0.300183 -0.598967
C47   C     C_3   0.041428 0.341048 0.220132 -0.318323
H22   H     H_    0.981135 0.412588 0.215225 0.149492
H23   H     H_    0.009201 0.289212 0.166713 0.202957
H24   H     H_    0.121485 0.359235 0.209971 0.164871
C48   C     C_2   0.722227 0.702278 0.635836 0.480411
H25   H     H_    0.649528 0.679922 0.651237 0.115037
O14   O     O_2   0.736311 0.792806 0.644801 -0.565814
C49   C     C_2   0.109537 0.541953 0.675324 0.448128
H26   H     H_    0.157928 0.466982 0.673117 0.106439
O15   O     O_2   0.149100 0.607337 0.724301 -0.480802
O16   O     O_3   0.943167 0.686589 0.722696 -0.520691
C50   C     C_3   0.930211 0.633856 0.796357 -0.199480
H27   H     H_    0.981282 0.556774 0.805048 0.139964
H28   H     H_    0.842787 0.625254 0.792817 0.120601
H29   H     H_    0.957925 0.679864 0.855161 0.195244
C51   C     C_2   0.321457 0.400114 0.908080 0.418329
H30   H     H_    0.266058 0.372981 0.943757 0.049079
O17   O     O_2   0.306679 0.387745 0.829490 -0.573011
C52   C     C_2   0.800553 0.205821 0.511723 0.416268
H31   H     H_    0.804954 0.267704 0.558755 0.102231
O18   O     O_2   0.881820 0.176781 0.482610 -0.578369
O19   O     O_3   0.726694 0.859491 0.370347 -0.623260
C53   C     C_3   0.796705 0.781592 0.423580 -0.305014
H32   H     H_    0.873497 0.764154 0.399350 0.179444
H33   H     H_    0.759267 0.709068 0.419731 0.179838
H34   H     H_    0.819777 0.807164 0.492368 0.201030

loop_
_geom_bond_atom_site_label_1
_geom_bond_atom_site_label_2
_ccdc_geom_bond_type
O8    Zn2   S    
C3    C42   S    
C27   O16   S    
O16   C50   S    
C4    C8    S    
C26   N2    A    
C46   H21   S    
C45   H18   S    
C10   C22   A    
C26   C48   S    
C26   C27   A    
C30   C35   A    
C21   O10   S    
C28   C29   A    
C1    O1    A    
C38   C42   S    
C42   C51   S    
C11   O11   S    
C5    C6    S    
C33   C35   A    
C9    C22   A    
C45   H20   S    
O19   C53   S    
C15   C16   A    
C50   H29   S    
C11   C24   A    
C34   O7    A    
C36   H5    S    
C18   C19   A    
C49   H26   S    
O7    Zn1   S    
C52   H31   S    
C2    C7    S    
C20   H2    S    
C12   O4    A    
C2    C39   S    
C19   C20   A    
C50   H28   S    
C35   H7    S    
C25   O13   S    
C53   H32   S    
O1    Zn1   S    
C48   O14   D    
C38   H6    S    
C16   C20   A    
C12   O3    A    
C25   C32   A    
C47   H23   S    
O9    C43   S    
C16   C24   A    
C13   C14   A    
C33   H4    S    
C53   H33   S    
C34   C41   S    
C44   H17   S    
C51   O17   D    
N2    Zn2   S    
O11   C45   S    
C45   H19   S    
C10   C21   A    
O3    Zn1   S    
C23   O5    A    
C43   H12   S    
C8    C41   T    
C4    C6    S    
C47   H22   S    
C6    H8    S    
C22   C52   S    
C43   H13   S    
C12   C40   S    
C29   C30   A    
C1    O2    A    
C31   C32   A    
C14   C15   A    
C7    C40   T    
C50   H27   S    
C49   O15   D    
C17   C18   A    
C52   O18   D    
O13   C47   S    
C37   N1    A    
C44   H16   S    
C4    C38   S    
C39   O9    S    
C2    C5    S    
C9    H11   S    
C37   H3    S    
C3    C4    S    
C13   H1    S    
C47   H24   S    
C15   C17   A    
C6    C39   S    
O2    Zn2   S    
C44   H15   S    
C3    C5    S    
C46   O12   D    
C3    H10   S    
C10   C23   S    
C30   N2    A    
O5    Zn1   S    
C43   H14   S    
C32   C33   A    
O10   C44   S    
C29   C31   A    
O4    Zn2   S    
C11   C13   A    
C38   C39   S    
N1    Zn1   S    
C2    C42   S    
C34   O8    A    
C53   H34   S    
C17   C21   A    
C36   N1    A    
C28   C49   S    
C19   O19   S    
O6    Zn2   S    
C9    C18   A    
C23   O6    A    
C1    C24   S    
C27   C28   A    
C31   C36   A    
C5    H9    S    
C51   H30   S    
C14   C46   S    
C48   H25   S    
C25   C37   A    
