data_mof_unit_23418.cif
_audit_creation_date              2012-12-11T15:14:40-0500
_audit_creation_method            fapswitch 2.2
_symmetry_space_group_name_H-M    P1
_symmetry_Int_Tables_number       1
_space_group_crystal_system       triclinic
_cell_length_a                    22.31262
_cell_length_b                    7.234749
_cell_length_c                    19.414698
_cell_angle_alpha                 89.999203
_cell_angle_beta                  98.627171
_cell_angle_gamma                 90.000574
_cell_volume                      3098.58046723

loop_
_atom_site_label
_atom_site_type_symbol
_atom_type_description
_atom_site_fract_x
_atom_site_fract_y
_atom_site_fract_z
_atom_type_partial_charge
O1    O     O_R   0.448470 0.506130 0.415700 -0.537102
O2    O     O_R   0.551530 0.006130 0.584300 -0.537100
O3    O     O_R   0.436320 0.174490 0.555800 -0.542200
O4    O     O_R   0.563680 0.674490 0.444200 -0.542196
C1    C     C_R   0.421618 0.344062 0.575575 0.761380
C2    C     C_R   0.578381 0.844065 0.424424 0.761379
O5    O     O_R   0.441350 0.176340 0.414480 -0.541560
O6    O     O_R   0.558650 0.676340 0.585520 -0.541564
O7    O     O_R   0.556600 0.007100 0.441970 -0.530251
O8    O     O_R   0.443400 0.507100 0.558030 -0.530262
C3    C     C_R   0.426494 0.344880 0.390195 0.767459
C4    C     C_R   0.573506 0.844879 0.609805 0.767450
O9    O     O_3   0.537810 0.339550 0.509190 -0.382381
O10   O     O_3   0.462190 0.839550 0.490810 -0.382388
V1    V     V_3+5 0.492990 0.064280 0.498300 1.434938
V2    V     V_3+5 0.507010 0.564280 0.501700 1.434932
C5    C     C_R   0.867240 0.003044 0.700361 -0.148768
C6    C     C_R   0.132759 0.503024 0.299640 -0.148768
H1    H     H_    0.951047 0.048217 0.766870 0.121807
H2    H     H_    0.048952 0.548198 0.233131 0.121806
H3    H     H_    0.887650 0.041107 0.655260 0.124431
H4    H     H_    0.112349 0.541078 0.344742 0.124430
C7    C     C_R   0.882693 0.945353 0.824452 -0.110345
C8    C     C_R   0.117307 0.445349 0.175548 -0.110345
C9    C     C_R   0.588044 0.857241 0.736585 -0.178076
C10   C     C_R   0.411956 0.357257 0.263415 -0.178077
C11   C     C_R   0.622312 0.887365 0.801198 -0.139548
C12   C     C_R   0.377687 0.387387 0.198802 -0.139544
C13   C     C_R   0.684725 0.909704 0.807283 -0.052765
C14   C     C_R   0.315274 0.409722 0.192718 -0.052763
C15   C     C_R   0.715607 0.893179 0.749172 0.035261
C16   C     C_R   0.284393 0.393183 0.250829 0.035259
C17   C     C_R   0.679981 0.870839 0.681871 -0.097554
C18   C     C_R   0.320018 0.370837 0.318129 -0.097554
C19   C     C_R   0.780326 0.912813 0.755749 -0.039980
C20   C     C_R   0.219674 0.412811 0.244252 -0.039978
C21   C     C_R   0.805950 0.951221 0.694566 -0.037324
C22   C     C_R   0.194049 0.451207 0.305435 -0.037322
C23   C     C_R   0.770442 0.930532 0.628361 0.122729
C24   C     C_R   0.229557 0.430512 0.371640 0.122724
C25   C     C_R   0.709983 0.871911 0.622641 0.417752
C26   C     C_R   0.290016 0.371897 0.377360 0.417753
C27   C     C_R   0.820277 0.894710 0.820714 0.418163
C28   C     C_R   0.179723 0.394711 0.179286 0.418162
C29   C     C_R   0.904164 0.005912 0.764507 -0.225487
C30   C     C_R   0.095835 0.505897 0.235494 -0.225489
C31   C     C_R   0.615390 0.853007 0.676401 -0.062346
C32   C     C_R   0.384610 0.353011 0.323599 -0.062348
H5    H     H_    0.539258 0.844877 0.733130 0.097754
H6    H     H_    0.460742 0.344898 0.266870 0.097764
H7    H     H_    0.707280 0.951794 0.857488 0.141760
H8    H     H_    0.292719 0.451817 0.142514 0.141760
H9    H     H_    0.600043 0.899659 0.846848 0.114660
H10   H     H_    0.399956 0.399692 0.153153 0.114667
C33   C     C_3   0.769660 0.768127 0.300733 0.426052
C34   C     C_3   0.230336 0.268121 0.699272 0.426010
C35   C     C_3   0.804366 0.948921 0.288243 -0.351397
C36   C     C_3   0.195631 0.448922 0.711753 -0.351221
H11   H     H_    0.847175 0.000586 0.318669 0.152272
H12   H     H_    0.152822 0.500579 0.681325 0.152287
C37   C     C_1   0.876442 0.941774 0.122163 -0.200926
C38   C     C_1   0.123558 0.441787 0.877837 -0.200933
C39   C     C_1   0.624112 0.851767 0.378734 -0.167255
C40   C     C_1   0.375887 0.351756 0.621264 -0.167271
C41   C     C_3   0.759617 0.728912 0.221777 0.435555
C42   C     C_3   0.240382 0.228936 0.778231 0.435500
C43   C     C_3   0.792861 0.909748 0.208372 -0.076044
C44   C     C_3   0.207139 0.409777 0.791626 -0.076046
C45   C     C_3   0.697682 0.830974 0.213460 -0.367710
C46   C     C_3   0.302317 0.330996 0.786540 -0.367636
C47   C     C_3   0.708630 0.871028 0.293220 -0.036069
C48   C     C_3   0.291367 0.371020 0.706777 -0.036151
C49   C     C_3   0.731806 0.013061 0.201549 0.460450
C50   C     C_3   0.268195 0.513089 0.798440 0.460400
C51   C     C_3   0.742569 0.050340 0.280207 0.138126
C52   C     C_3   0.257429 0.550341 0.719780 0.138119
C53   C     C_1   0.838567 0.930152 0.160802 0.024010
C54   C     C_1   0.161433 0.430175 0.839197 0.024023
C55   C     C_1   0.662193 0.858936 0.340225 0.027793
C56   C     C_1   0.337805 0.358921 0.659772 0.027676
H13   H     H_    0.654979 0.779201 0.182820 0.144926
H14   H     H_    0.345020 0.279233 0.817183 0.144922
O11   O     O_R   0.056650 0.288730 0.942060 -0.538881
O12   O     O_R   0.943350 0.788730 0.057940 -0.538881
O13   O     O_R   0.058660 0.616870 0.085540 -0.541513
O14   O     O_R   0.941340 0.116870 0.914460 -0.541513
C57   C     C_R   0.073518 0.448716 0.110068 0.696956
C58   C     C_R   0.926481 0.948717 0.889932 0.696954
O15   O     O_R   0.063700 0.618520 0.944220 -0.534000
O16   O     O_R   0.936300 0.118520 0.055780 -0.533998
O17   O     O_R   0.948460 0.787610 0.915680 -0.525996
O18   O     O_R   0.051540 0.287610 0.084320 -0.525997
C59   C     C_R   0.077863 0.450540 0.923535 0.687348
C60   C     C_R   0.922137 0.950537 0.076465 0.687351
O19   O     O_3   0.962230 0.453430 0.990860 -0.370872
O20   O     O_3   0.037770 0.953430 0.009140 -0.370874
V3    V     V_3+5 0.007010 0.728750 0.001700 1.438092
V4    V     V_3+5 0.992990 0.228750 0.998300 1.438092
O21   O     O_3   0.788476 0.629088 0.350189 -0.556988
C61   C     C_3   0.805460 0.709741 0.416196 -0.218506
H15   H     H_    0.847849 0.791265 0.417770 0.131180
H16   H     H_    0.814676 0.597597 0.455297 0.154951
H17   H     H_    0.768711 0.797119 0.431648 0.187872
O22   O     O_3   0.211516 0.129061 0.649827 -0.556952
C62   C     C_3   0.194542 0.209682 0.583812 -0.218417
H18   H     H_    0.152160 0.291246 0.582229 0.131165
H19   H     H_    0.185316 0.097516 0.544722 0.154950
H20   H     H_    0.231299 0.297010 0.568353 0.187848
N1    N     N_3   0.733198 0.225729 0.313598 -0.605245
H21   H     H_    0.759307 0.323389 0.292246 0.302639
H22   H     H_    0.687883 0.263643 0.299351 0.231465
N2    N     N_3   0.266803 0.725719 0.686379 -0.605241
H23   H     H_    0.240814 0.823484 0.707850 0.302708
H24   H     H_    0.312153 0.763400 0.700484 0.231330
O23   O     O_3   0.716072 0.150229 0.150321 -0.528031
C63   C     C_3   0.652758 0.174288 0.138518 -0.173950
H25   H     H_    0.633839 0.195646 0.187762 0.110086
H26   H     H_    0.630385 0.054761 0.109242 0.116176
H27   H     H_    0.642128 0.299449 0.105978 0.166544
O24   O     O_3   0.283932 0.650263 0.849664 -0.528043
C64   C     C_3   0.347242 0.674429 0.861419 -0.173903
H28   H     H_    0.366126 0.695848 0.812157 0.110097
H29   H     H_    0.369652 0.554927 0.890677 0.116155
H30   H     H_    0.357868 0.799592 0.893959 0.166554
O25   O     O_3   0.764911 0.554478 0.190553 -0.532678
C65   C     C_3   0.826141 0.498726 0.198486 -0.174956
H31   H     H_    0.852075 0.534251 0.250319 0.130429
H32   H     H_    0.848563 0.558129 0.156276 0.140022
H33   H     H_    0.827665 0.346261 0.193207 0.178766
O26   O     O_3   0.235085 0.054517 0.809467 -0.532714
C66   C     C_3   0.173855 0.998765 0.801536 -0.174860
H34   H     H_    0.147909 0.034371 0.749717 0.130429
H35   H     H_    0.151445 0.058097 0.843768 0.140026
H36   H     H_    0.172330 0.846290 0.806782 0.178753
N3    N     N_3   0.795411 0.959275 0.565231 -0.651396
H37   H     H_    0.832372 0.870659 0.564856 0.209475
H38   H     H_    0.810019 0.096312 0.563786 0.228545
N4    N     N_3   0.204588 0.459243 0.434770 -0.651392
H39   H     H_    0.167628 0.370623 0.435145 0.209475
H40   H     H_    0.189979 0.596278 0.436216 0.228548
O27   O     O_3   0.800455 0.792337 0.873559 -0.557732
C67   C     C_3   0.807750 0.888601 0.937498 -0.262240
H41   H     H_    0.813875 0.040855 0.932732 0.112819
H42   H     H_    0.845894 0.826573 0.972344 0.165642
H43   H     H_    0.766930 0.866062 0.962763 0.165315
O28   O     O_3   0.199545 0.292346 0.126441 -0.557731
C68   C     C_3   0.192250 0.388615 0.062503 -0.262237
H44   H     H_    0.186124 0.540868 0.067269 0.112819
H45   H     H_    0.154106 0.326587 0.027657 0.165639
H46   H     H_    0.233070 0.366083 0.037238 0.165320
O29   O     O_3   0.680480 0.819485 0.557890 -0.557669
C69   C     C_3   0.694777 0.632132 0.547516 -0.191767
H47   H     H_    0.675020 0.540886 0.584423 0.133117
H48   H     H_    0.744545 0.608635 0.552474 0.124609
H49   H     H_    0.675234 0.590880 0.493909 0.168192
O30   O     O_3   0.319520 0.319465 0.442110 -0.557668
C70   C     C_3   0.305223 0.132108 0.452482 -0.191788
H50   H     H_    0.324969 0.040872 0.415563 0.133108
H51   H     H_    0.255455 0.108620 0.447537 0.124622
H52   H     H_    0.324777 0.090840 0.506083 0.168189

loop_
_geom_bond_atom_site_label_1
_geom_bond_atom_site_label_2
_ccdc_geom_bond_type
C42   C44   S    
C70   H50   S    
C7    C29   A    
C11   C13   A    
C40   C56   T    
C68   H44   S    
C43   C53   S    
C48   C52   S    
C66   H36   S    
O2    C4    A    
C2    O7    A    
N2    H24   S    
O19   V4    S    
C36   C52   S    
N3    H37   S    
C23   C25   A    
C39   C55   T    
O5    C3    A    
C62   H19   S    
C33   C47   S    
C65   H31   S    
C50   C52   S    
O12   V3    S    
C16   C20   A    
O30   C70   S    
C68   H45   S    
C5    C29   A    
C10   H6    S    
O14   C58   A    
C35   H11   S    
C44   C50   S    
O23   C63   S    
O11   C59   A    
C7    C27   A    
C63   H25   S    
C45   C47   S    
N2    H23   S    
C64   H30   S    
C66   H35   S    
C27   O27   S    
C37   C53   T    
C18   C26   A    
C34   C48   S    
O11   V4    S    
C24   N4    S    
C46   C50   S    
C28   O28   S    
O29   C69   S    
C15   C17   A    
C45   C49   S    
C43   C49   S    
C34   C36   S    
C19   C27   A    
C9    C31   A    
C10   C32   A    
C24   C26   A    
C70   H51   S    
C22   C24   A    
C47   C51   S    
C57   O18   A    
C13   C15   A    
C52   N2    S    
C49   C51   S    
C67   H43   S    
C3    C32   S    
C34   C42   S    
C35   C43   S    
C4    C31   S    
C46   H14   S    
C6    C30   A    
C47   C55   S    
O22   C62   S    
C33   C41   S    
O16   C60   A    
O13   C57   A    
C44   C54   S    
C62   H20   S    
C51   N1    S    
O18   V4    S    
C68   H46   S    
C45   H13   S    
C34   O22   S    
O4    C2    A    
C12   H10   S    
C37   C60   S    
C23   N3    S    
C65   H33   S    
C41   C43   S    
C61   H17   S    
C5    H3    S    
H1    C29   S    
C48   C56   S    
C1    C40   S    
O15   V3    S    
C41   O25   S    
C2    C39   S    
O4    V2    S    
C26   O30   S    
O21   C61   S    
O10   V1    S    
C69   H49   S    
O6    C4    A    
O20   V3    S    
C61   H16   S    
O1    V2    S    
O12   C60   A    
O17   V3    S    
O2    V1    S    
C64   H28   S    
N4    H40   S    
C36   C44   S    
C8    C28   A    
C69   H48   S    
C70   H52   S    
C7    C58   S    
C33   C35   S    
O25   C65   S    
C17   C31   A    
C15   C19   A    
C20   C28   A    
C18   C32   A    
C5    C21   A    
C66   H34   S    
O3    V1    S    
O24   C64   S    
O28   C68   S    
C13   H7    S    
N3    H38   S    
C14   H8    S    
C65   H32   S    
C19   C21   A    
C6    H4    S    
C38   C54   T    
O3    C1    A    
C11   H9    S    
C12   C14   A    
C25   O29   S    
C9    C11   A    
C50   O24   S    
C62   H18   S    
C38   C59   S    
C10   C12   A    
C49   O23   S    
C63   H27   S    
C8    C30   A    
C35   C51   S    
N1    H22   S    
O26   C66   S    
C6    C22   A    
C17   C25   A    
C1    O8    A    
C21   C23   A    
O8    V2    S    
N1    H21   S    
C20   C22   A    
C14   C16   A    
C42   C46   S    
C58   O17   A    
C41   C45   S    
O5    V1    S    
C61   H15   S    
C63   H26   S    
C67   H42   S    
O15   C59   A    
O14   V4    S    
C8    C57   S    
C9    H5    S    
C64   H29   S    
O13   V3    S    
N4    H39   S    
C69   H47   S    
O6    V2    S    
O9    V2    S    
C33   O21   S    
C67   H41   S    
C46   C48   S    
O1    C3    A    
O27   C67   S    
C36   H12   S    
O16   V4    S    
H2    C30   S    
O7    V1    S    
C16   C18   A    
C42   O26   S    
