data_mof_unit_36988.cif
_audit_creation_date              2012-12-11T16:22:13-0500
_audit_creation_method            fapswitch 2.2
_symmetry_space_group_name_H-M    P1
_symmetry_Int_Tables_number       1
_space_group_crystal_system       triclinic
_cell_length_a                    13.492529
_cell_length_b                    14.048526
_cell_length_c                    30.035024
_cell_angle_alpha                 97.743323
_cell_angle_beta                  90.187099
_cell_angle_gamma                 118.717099
_cell_volume                      4932.20360836

loop_
_atom_site_label
_atom_site_type_symbol
_atom_type_description
_atom_site_fract_x
_atom_site_fract_y
_atom_site_fract_z
_atom_type_partial_charge
C1    C     C_R   0.720879 0.098807 0.569143 0.548575
C2    C     C_1   0.348154 0.665048 0.764280 -0.032816
C3    C     C_3   0.149333 0.390495 0.247805 0.007480
C4    C     C_3   0.195871 0.314511 0.257089 -0.264303
C5    C     C_3   0.133370 0.247868 0.293884 -0.485268
C6    C     C_3   0.039011 0.005663 0.100193 0.025779
C7    C     C_3   0.988079 0.886920 0.109251 -0.274909
C8    C     C_3   0.885637 0.856569 0.137106 -0.494792
C9    C     C_3   0.124723 0.955643 0.272378 0.001557
C10   C     C_3   0.029738 0.917242 0.304530 -0.269514
C11   C     C_3   0.917861 0.893961 0.281388 -0.489521
C12   C     C_3   0.556876 0.285908 0.055739 0.023763
C13   C     C_1   0.350821 0.671452 0.724877 -0.031121
C14   C     C_3   0.609668 0.219987 0.072096 -0.287550
C15   C     C_3   0.648738 0.169153 0.032643 -0.472920
C16   C     C_3   0.742397 0.358129 0.413174 0.021308
C17   C     C_3   0.810754 0.479718 0.408435 -0.272013
C18   C     C_3   0.733021 0.526203 0.398263 -0.491669
C19   C     C_R   0.383881 0.788798 0.551107 0.542539
C20   C     C_R   0.302831 0.601438 0.897883 0.018703
C21   C     C_3   0.216435 0.104340 0.722985 -0.104627
C22   C     C_3   0.264324 0.056403 0.755369 -0.099417
C23   C     C_1   0.296797 0.197977 0.876545 -0.016598
C24   C     C_1   0.364429 0.135355 0.613809 -0.017997
C25   C     C_3   0.264235 0.212902 0.756712 -0.100785
C26   C     C_3   0.312427 0.164776 0.788238 0.051778
C27   C     C_R   0.352050 0.681283 0.678190 0.035365
C28   C     C_3   0.377174 0.259929 0.733749 -0.098478
C29   C     C_3   0.329251 0.151735 0.700816 0.052610
C30   C     C_3   0.425039 0.212006 0.765942 -0.103316
C31   C     C_R   0.397306 0.118547 0.569570 0.545932
C32   C     C_3   0.377321 0.103532 0.732337 -0.099766
C33   C     C_1   0.304433 0.178314 0.836904 -0.060064
C34   C     C_1   0.344519 0.144351 0.652642 -0.060859
C35   C     C_3   0.928518 0.246100 0.731717 -0.148827
C36   C     C_3   0.859703 0.277330 0.766362 -0.115311
C37   C     C_1   0.894582 0.204132 0.878773 -0.013602
C38   C     C_R   0.258149 0.676575 0.656070 -0.119481
C39   C     C_1   0.768850 0.131209 0.614606 -0.012203
C40   C     C_3   0.914468 0.152138 0.757587 -0.109120
C41   C     C_3   0.844599 0.182861 0.791215 0.018516
C42   C     C_3   0.803226 0.073932 0.728541 0.308555
C43   C     C_R   0.719009 0.094670 0.442344 0.566926
C44   C     C_3   0.817079 0.166035 0.703053 0.046790
C45   C     C_3   0.733267 0.102506 0.762717 -0.065262
C46   C     C_3   0.747953 0.196734 0.737033 -0.136946
C47   C     C_1   0.865899 0.193113 0.839699 -0.053901
C48   C     C_1   0.796129 0.150820 0.654266 -0.045327
C49   C     C_R   0.264838 0.702693 0.612650 -0.126205
C50   C     C_3   0.241287 0.640981 0.259053 0.261096
C51   C     C_3   0.300465 0.729977 0.228782 -0.129792
C52   C     C_1   0.307252 0.603735 0.111535 0.000721
C53   C     C_1   0.366899 0.737783 0.378365 0.005747
C54   C     C_3   0.276079 0.563611 0.231060 0.282231
C55   C     C_R   0.382267 0.784599 0.424520 0.545076
C56   C     C_3   0.336302 0.651956 0.200675 -0.021872
C57   C     C_3   0.387021 0.610375 0.261289 -0.162560
C58   C     C_3   0.351323 0.687730 0.289494 0.043910
C59   C     C_3   0.448250 0.699762 0.230567 -0.134988
C60   C     C_R   0.253443 0.662013 0.833516 -0.118226
C61   C     C_3   0.411485 0.775682 0.259211 0.275442
C62   C     C_1   0.324491 0.629737 0.151654 -0.030239
C63   C     C_1   0.358547 0.710643 0.338393 0.012000
C64   C     C_R   0.363414 0.131415 0.399020 -0.026398
C65   C     C_R   0.422811 0.235403 0.385581 -0.153926
C66   C     C_R   0.418775 0.246150 0.340331 -0.174211
C67   C     C_R   0.396777 0.114297 0.442683 0.541899
C68   C     C_R   0.354323 0.153503 0.308230 0.021440
C69   C     C_R   0.284198 0.050878 0.321694 0.276930
C70   C     C_R   0.290965 0.040238 0.367064 -0.095763
C71   C     C_R   0.234643 0.635617 0.876892 -0.126830
C72   C     C_R   0.255610 0.099286 0.149690 -0.133265
C73   C     C_R   0.236610 0.112689 0.105449 0.228130
C74   C     C_R   0.432064 0.262900 0.110619 0.235950
C75   C     C_R   0.446033 0.251620 0.155325 -0.101652
C76   C     C_R   0.356429 0.172986 0.175119 -0.065952
C77   C     C_1   0.364146 0.169220 0.222119 -0.044544
C78   C     C_1   0.362679 0.163604 0.261541 -0.027250
C79   C     C_R   0.365972 0.734247 0.591174 0.019301
C80   C     C_R   0.322648 0.201818 0.087171 0.024500
C81   C     C_R   0.770146 0.126952 0.399826 0.033977
C82   C     C_R   0.395572 0.602642 0.876122 -0.129553
C83   C     C_R   0.763684 0.043923 0.366031 -0.158618
C84   C     C_R   0.781572 0.062864 0.321831 -0.117285
C85   C     C_R   0.810335 0.165865 0.311052 -0.013507
C86   C     C_R   0.826433 0.251957 0.344591 -0.105476
C87   C     C_R   0.803547 0.232853 0.389119 0.264183
C88   C     C_R   0.871959 0.296837 0.164418 -0.121431
C89   C     C_R   0.904276 0.307911 0.120666 -0.122395
C90   C     C_R   0.841624 0.112582 0.104763 -0.147284
C91   C     C_R   0.456936 0.730613 0.612495 -0.122356
C92   C     C_R   0.812392 0.102428 0.148900 -0.125540
C93   C     C_R   0.413988 0.628866 0.832697 -0.115625
C94   C     C_R   0.831567 0.195434 0.179055 0.034673
C95   C     C_1   0.822121 0.188829 0.225841 -0.059023
C96   C     C_1   0.817320 0.180628 0.264992 -0.053727
C97   C     C_R   0.894317 0.216584 0.091177 0.020502
C98   C     C_R   0.284034 0.232736 0.922053 0.535941
C99   C     C_R   0.266584 0.547695 0.938142 0.540172
C100  C     C_R   0.944900 0.222092 0.923073 0.540074
C101  C     C_R   0.294049 0.241767 0.048301 0.556387
C102  C     C_R   0.274947 0.557961 0.065203 0.546624
C103  C     C_R   0.450104 0.704814 0.655973 -0.103708
C104  C     C_R   0.340684 0.655043 0.810958 0.036698
C105  C     C_R   0.953234 0.232754 0.049617 0.536465
C106  C     C_3   0.857570 0.956319 0.688689 0.008887
C107  C     C_3   0.811401 0.846390 0.657520 -0.252920
C108  C     C_3   0.907060 0.831966 0.636432 -0.485266
C109  C     C_3   0.046615 0.565306 0.243557 0.003789
C110  C     C_3   0.000965 0.644281 0.238725 -0.260724
C111  C     C_3   0.899452 0.593119 0.203900 -0.493875
C112  C     C_3   0.484118 0.960996 0.252462 0.024238
C113  C     C_3   0.536211 0.960545 0.207070 -0.288302
C114  C     C_3   0.532527 0.044696 0.180881 -0.474301
Cr1   Cr    Cr6+3 0.583430 0.162610 0.509470 1.031610
Cr2   Cr    Cr6+3 0.584210 0.916680 0.495400 1.014820
Cr3   Cr    Cr6+3 0.332380 0.920740 0.495100 1.022444
Cr4   Cr    Cr6+3 0.086810 0.177030 0.983130 1.045301
Cr5   Cr    Cr6+3 0.337180 0.419300 0.994610 1.031936
Cr6   Cr    Cr6+3 0.084840 0.422330 0.995830 1.014278
H1    H     H_    0.162816 0.635752 0.892829 0.131487
H2    H     H_    0.653658 0.042795 0.775633 0.114887
H3    H     H_    0.196628 0.682648 0.816782 0.106040
H4    H     H_    0.982695 0.133891 0.766752 0.092556
H5    H     H_    0.263845 0.775482 0.213941 0.099319
H6    H     H_    0.190863 0.034085 0.165223 0.109198
H7    H     H_    0.245555 0.959055 0.376525 0.152959
H8    H     H_    0.478851 0.307101 0.409538 0.127428
H9    H     H_    0.526684 0.304815 0.174581 0.133860
H10   H     H_    0.470289 0.325761 0.330129 0.111681
H11   H     H_    0.943055 0.388919 0.110924 0.131497
H12   H     H_    0.131072 0.060658 0.704652 0.088772
H13   H     H_    0.884182 0.368210 0.187441 0.092230
H14   H     H_    0.852070 0.332380 0.335790 0.109727
H15   H     H_    0.736273 0.961534 0.372932 0.144039
H16   H     H_    0.779559 0.023167 0.159976 0.100999
H17   H     H_    0.768161 0.995800 0.295693 0.132344
H18   H     H_    0.535991 0.754536 0.596851 0.127194
H19   H     H_    0.481883 0.623611 0.815333 0.111390
H20   H     H_    0.449607 0.576723 0.891408 0.131300
H21   H     H_    0.523048 0.708386 0.672989 0.124199
H22   H     H_    0.916038 0.959569 0.715794 0.127360
H23   H     H_    0.424209 0.058547 0.721659 0.111681
H24   H     H_    0.905383 0.023405 0.668506 0.129570
H25   H     H_    0.763121 0.778280 0.676989 0.166383
H26   H     H_    0.752797 0.842237 0.630289 0.172232
H27   H     H_    0.955301 0.898242 0.616151 0.152167
H28   H     H_    0.870901 0.751526 0.613969 0.148161
H29   H     H_    0.965704 0.834052 0.663079 0.143890
H30   H     H_    0.978157 0.490045 0.254405 0.136622
H31   H     H_    0.068995 0.539751 0.209985 0.148618
H32   H     H_    0.974937 0.666788 0.271779 0.179294
H33   H     H_    0.068894 0.719785 0.228033 0.170506
H34   H     H_    0.510684 0.255741 0.784069 0.102977
H35   H     H_    0.923719 0.570647 0.170413 0.148714
H36   H     H_    0.869433 0.653155 0.200906 0.144193
H37   H     H_    0.828974 0.518583 0.214390 0.147807
H38   H     H_    0.534043 0.044266 0.272501 0.166191
H39   H     H_    0.396347 0.947609 0.247966 0.172653
H40   H     H_    0.625207 0.978886 0.213175 0.172893
H41   H     H_    0.489151 0.878635 0.185918 0.155869
H42   H     H_    0.443162 0.022544 0.172409 0.159156
H43   H     H_    0.573754 0.044976 0.148951 0.153407
H44   H     H_    0.577578 0.128354 0.200931 0.160067
H45   H     H_    0.423142 0.343431 0.724321 0.106336
H46   H     H_    0.533449 0.725940 0.218029 0.118170
H47   H     H_    0.421717 0.562242 0.275232 0.104435
H48   H     H_    0.058476 0.339522 0.235820 0.158250
H49   H     H_    0.152898 0.441459 0.280215 0.154606
H50   H     H_    0.185903 0.257601 0.225757 0.180030
H51   H     H_    0.287513 0.364207 0.268239 0.164264
H52   H     H_    0.134727 0.302832 0.324436 0.158201
H53   H     H_    0.175330 0.201968 0.303670 0.150972
H54   H     H_    0.044080 0.188518 0.281518 0.154586
H55   H     H_    0.977809 0.008722 0.076636 0.173306
H56   H     H_    0.217446 0.257974 0.767401 0.106135
H57   H     H_    0.048456 0.063259 0.131434 0.121840
H58   H     H_    0.961391 0.830411 0.076583 0.171902
H59   H     H_    0.051967 0.874915 0.127422 0.159683
H60   H     H_    0.911068 0.910383 0.170416 0.139066
H61   H     H_    0.849871 0.769965 0.142691 0.152425
H62   H     H_    0.819107 0.865290 0.119097 0.145602
H63   H     H_    0.095313 0.897316 0.240282 0.140434
H64   H     H_    0.141923 0.035820 0.263123 0.123305
H65   H     H_    0.019004 0.841498 0.316349 0.175334
H66   H     H_    0.052634 0.981973 0.334388 0.153940
H67   H     H_    0.883010 0.361790 0.782761 0.115815
H68   H     H_    0.927385 0.968575 0.268869 0.141642
H69   H     H_    0.851492 0.869440 0.305770 0.147544
H70   H     H_    0.890443 0.825984 0.252578 0.143642
H71   H     H_    0.181814 0.658003 0.673187 0.106736
H72   H     H_    0.621057 0.350601 0.038070 0.156498
H73   H     H_    0.484765 0.231946 0.030240 0.127064
H74   H     H_    0.682879 0.274755 0.096888 0.178365
H75   H     H_    0.546232 0.152636 0.088854 0.155262
H76   H     H_    0.577920 0.119468 0.006241 0.147129
H77   H     H_    0.676967 0.114019 0.044504 0.155132
H78   H     H_    0.008177 0.305015 0.718567 0.111976
H79   H     H_    0.720350 0.234480 0.017843 0.152436
H80   H     H_    0.690228 0.350964 0.442339 0.176608
H81   H     H_    0.681497 0.311528 0.382869 0.119925
H82   H     H_    0.863876 0.526817 0.440281 0.177446
H83   H     H_    0.867918 0.490259 0.380814 0.168685
H84   H     H_    0.681131 0.482013 0.365928 0.141892
H85   H     H_    0.784923 0.614583 0.395401 0.152234
H86   H     H_    0.675945 0.518103 0.425776 0.144418
H87   H     H_    0.193422 0.704600 0.597087 0.131697
H88   H     H_    0.828056 0.040201 0.081974 0.107120
H89   H     H_    0.679914 0.215534 0.728201 0.108787
H90   H     H_    0.218348 0.972977 0.764859 0.103720
O1    O     O_R   0.493980 0.188910 0.559650 -0.509350
O2    O     O_R   0.170560 0.527890 0.952050 -0.516156
O3    O     O_R   0.987620 0.318470 0.945550 -0.498358
O4    O     O_R   0.678640 0.153520 0.554450 -0.492237
O5    O     O_R   0.976400 0.159270 0.031530 -0.520685
O6    O     O_R   0.194000 0.188570 0.028560 -0.454758
O7    O     O_R   0.365260 0.335720 0.039020 -0.482765
O8    O     O_R   0.330440 0.515580 0.044910 -0.487230
O9    O     O_R   0.177310 0.536200 0.050190 -0.514060
O10   O     O_R   0.993870 0.326170 0.036530 -0.505267
O11   O     O_3   0.169610 0.339550 0.991190 -0.249277
O12   O     O_R   0.480180 0.824400 0.444640 -0.499756
O13   O     O_R   0.698130 0.004030 0.549500 -0.512497
O14   O     O_R   0.481060 0.827210 0.535360 -0.504140
O15   O     O_R   0.309260 0.811560 0.537660 -0.515844
O16   O     O_R   0.341620 0.023400 0.546290 -0.495116
O17   O     O_R   0.493030 0.185890 0.461780 -0.531822
O18   O     O_R   0.677760 0.150720 0.463730 -0.462819
O19   O     O_R   0.697180 0.001010 0.451640 -0.530007
O20   O     O_3   0.766340 0.964649 0.708006 -0.569739
O21   O     O_3   0.136660 0.613394 0.277673 -0.575206
O22   O     O_3   0.489662 0.885543 0.277747 -0.563637
O23   O     O_R   0.308310 0.808540 0.439800 -0.505410
O24   O     O_3   0.206402 0.451404 0.213349 -0.567041
O25   O     O_3   0.140097 0.035771 0.078135 -0.553930
O26   O     O_3   0.222397 0.956851 0.290507 -0.580491
O27   O     O_3   0.525443 0.339322 0.091941 -0.551986
O28   O     O_3   0.817006 0.317473 0.422574 -0.562808
O29   O     O_R   0.340740 0.020600 0.455570 -0.502642
O30   O     O_3   0.500010 0.000010 0.499990 -0.247416
O31   O     O_R   0.969650 0.150960 0.933380 -0.506731
O32   O     O_R   0.187740 0.180870 0.937580 -0.493861
O33   O     O_R   0.358510 0.327410 0.940870 -0.520759
O34   O     O_R   0.324180 0.507870 0.953930 -0.504984

loop_
_geom_bond_atom_site_label_1
_geom_bond_atom_site_label_2
_ccdc_geom_bond_type
C70   H7    S    
C8    H61   S    
C66   C68   A    
C6    O25   S    
Cr6   O2    S    
Cr6   O11   S    
C105  O5    A    
C4    H51   S    
C20   C82   A    
Cr2   O19   S    
C109  O21   S    
C12   H73   S    
C95   C96   T    
C51   C61   S    
C72   C76   A    
C61   O22   S    
C114  H43   S    
C7    C8    S    
C38   C49   A    
C77   C78   T    
C25   C28   S    
C112  H38   S    
C52   C102  S    
C50   C54   S    
C22   C32   S    
C18   H85   S    
C9    H63   S    
C28   C29   S    
C112  H39   S    
C69   O26   S    
C88   H13   S    
C29   C32   S    
C110  H32   S    
C69   C70   A    
C3    O24   S    
Cr1   O30   S    
C107  H25   S    
C85   C96   S    
C114  H42   S    
C6    H55   S    
C27   C38   A    
Cr5   O11   S    
C10   H65   S    
C17   C18   S    
C51   C56   S    
C5    H54   S    
C67   O29   A    
C99   O34   A    
C17   H83   S    
C2    C13   T    
C110  C111  S    
C32   H23   S    
C82   H20   S    
C90   C92   A    
C86   H14   S    
C49   H87   S    
Cr3   O30   S    
C68   C69   A    
C23   C33   T    
Cr5   O8    S    
C107  C108  S    
C20   C71   A    
C36   C46   S    
Cr4   O5    S    
C64   C70   A    
C37   C47   T    
C66   H10   S    
C9    C10   S    
C79   C91   A    
C90   C97   A    
C83   H15   S    
C16   H80   S    
Cr4   O31   S    
C72   C73   A    
C108  H27   S    
C97   C105  S    
C58   C61   S    
C40   C42   S    
C14   H74   S    
C16   O28   S    
C82   C93   A    
C74   C80   A    
C21   C22   S    
C9    O26   S    
Cr2   O12   S    
C36   C41   S    
C92   H16   S    
C42   C44   S    
C55   O23   A    
C40   H4    S    
C103  H21   S    
C93   C104  A    
C112  C113  S    
C81   C83   A    
C44   C46   S    
C3    H48   S    
C106  H22   S    
C6    C7    S    
C54   C56   S    
C99   O2    A    
C53   C55   S    
C68   C78   S    
C12   H72   S    
C88   C94   A    
Cr3   O16   S    
C59   C61   S    
C98   O32   A    
C74   C75   A    
Cr4   O32   S    
C11   H68   S    
C50   C58   S    
C64   C67   S    
C84   C85   A    
C14   H75   S    
C107  H26   S    
C1    C39   S    
C86   C87   A    
C3    H49   S    
C1    O13   A    
C60   C71   A    
Cr6   O3    S    
C85   C86   A    
C75   H9    S    
C29   C34   S    
C24   C34   T    
C106  O20   S    
C7    H58   S    
C72   H6    S    
C11   H69   S    
C42   C45   S    
C51   H5    S    
Cr2   O14   S    
C60   H3    S    
C75   C76   A    
C65   H8    S    
C21   H12   S    
Cr1   O17   S    
C93   H19   S    
C30   C32   S    
C101  O7    A    
C91   H18   S    
C15   H79   S    
C8    H60   S    
C26   C33   S    
C114  H44   S    
C83   C84   A    
Cr3   O23   S    
Cr6   O10   S    
C105  O10   A    
Cr3   O15   S    
C92   C94   A    
C50   C51   S    
C41   C47   S    
C7    H59   S    
C50   O21   S    
C25   C26   S    
C76   C77   S    
C19   C79   S    
C35   C44   S    
Cr3   O29   S    
C98   O33   A    
C81   C87   A    
C59   H46   S    
C4    H50   S    
C102  O9    A    
C55   O12   A    
C90   H88   S    
C15   H76   S    
C28   H45   S    
C40   C41   S    
C73   C80   A    
C12   C14   S    
C84   H17   S    
C26   C30   S    
C94   C95   S    
C6    H57   S    
C22   C26   S    
C43   C81   S    
C56   C62   S    
C54   O24   S    
C3    C4    S    
C42   O20   S    
C49   C79   A    
C43   O18   A    
Cr5   O7    S    
C113  C114  S    
C111  H36   S    
Cr5   O33   S    
C8    H62   S    
C58   C63   S    
C2    C104  S    
C9    H64   S    
C21   C25   S    
C12   O27   S    
C109  H31   S    
C5    H53   S    
C71   H1    S    
C19   O14   A    
C91   C103  A    
C4    C5    S    
C112  O22   S    
C100  O3    A    
Cr4   O6    S    
C43   O19   A    
C106  H24   S    
C16   H81   S    
C57   H47   S    
Cr5   O34   S    
C45   H2    S    
C46   H89   S    
Cr2   O30   S    
C89   H11   S    
C56   C59   S    
Cr1   O1    S    
C80   C101  S    
C18   H86   S    
C11   H70   S    
C64   C65   A    
C36   H67   S    
C74   O27   S    
C28   C30   S    
C35   C40   S    
C111  H37   S    
C24   C31   S    
Cr1   O18   S    
C110  H33   S    
C52   C62   T    
C109  C110  S    
C67   O17   A    
C53   C63   T    
C25   H56   S    
C57   C58   S    
C16   C17   S    
C20   C99   S    
C21   C29   S    
Cr2   O13   S    
Cr6   O9    S    
C15   H77   S    
C22   H90   S    
C27   C103  A    
C10   H66   S    
C5    H52   S    
C109  H30   S    
C37   C100  S    
C113  H40   S    
C19   O15   A    
C17   H82   S    
C73   O25   S    
C57   C59   S    
C10   C11   S    
C102  O8    A    
C113  H41   S    
C108  H29   S    
C45   C46   S    
C30   H34   S    
C23   C98   S    
C31   O1    A    
C88   C89   A    
Cr1   O4    S    
C65   C66   A    
C106  C107  S    
C31   O16   A    
C89   C97   A    
C1    O4    A    
C87   O28   S    
C41   C45   S    
C14   C15   S    
C13   C27   S    
C18   H84   S    
C35   C36   S    
C101  O6    A    
C108  H28   S    
C60   C104  A    
C111  H35   S    
C38   H71   S    
C100  O31   A    
C44   C48   S    
C35   H78   S    
C39   C48   T    
Cr4   O11   S    
C54   C57   S    
