data_mof_unit_47192.cif
_audit_creation_date              2012-12-10T16:49:30-0500
_audit_creation_method            fapswitch 2.2
_symmetry_space_group_name_H-M    P1
_symmetry_Int_Tables_number       1
_space_group_crystal_system       triclinic
_cell_length_a                    19.245274
_cell_length_b                    8.768981
_cell_length_c                    7.501305
_cell_angle_alpha                 102.986723
_cell_angle_beta                  94.831891
_cell_angle_gamma                 94.296369
_cell_volume                      1223.41277694

loop_
_atom_site_label
_atom_site_type_symbol
_atom_type_description
_atom_site_fract_x
_atom_site_fract_y
_atom_site_fract_z
_atom_type_partial_charge
Br1   Br    Br    0.115642 0.172879 0.347109 -0.380540
Br2   Br    Br    0.884358 0.827121 0.652891 -0.380540
Br3   Br    Br    0.287780 0.170365 0.352067 -0.480098
Br4   Br    Br    0.712219 0.829635 0.647933 -0.480098
Br5   Br    Br    0.408405 0.308712 0.903458 -0.346878
Br6   Br    Br    0.591595 0.691288 0.096542 -0.346878
C1    C     C_R   0.495856 0.200347 0.454336 0.865272
C2    C     C_R   0.809784 0.350466 0.418959 0.109952
C3    C     C_R   0.146661 0.507251 0.512046 -0.090245
C4    C     C_R   0.853339 0.492749 0.487954 -0.090245
C5    C     C_R   0.175700 0.366008 0.443344 0.237766
C6    C     C_R   0.824300 0.633992 0.556655 0.237766
C7    C     C_R   0.248275 0.365496 0.440953 0.205529
C8    C     C_R   0.751725 0.634504 0.559047 0.205528
C9    C     C_R   0.292142 0.506138 0.505911 -0.142624
C10   C     C_R   0.707858 0.493862 0.494089 -0.142624
C11   C     C_R   0.929593 0.495497 0.493146 0.455791
C12   C     C_R   0.504144 0.799653 0.545663 0.865272
C13   C     C_R   0.070407 0.504503 0.506854 0.455791
C14   C     C_3   0.310280 0.802374 0.646417 -0.749370
C15   C     C_3   0.689720 0.197626 0.353584 -0.749369
C16   C     C_3   0.159574 0.801798 0.661367 -0.667265
C17   C     C_3   0.840426 0.198202 0.338633 -0.667264
C18   C     C_3   0.435403 0.943516 0.268307 -0.726503
C19   C     C_3   0.564597 0.056483 0.731693 -0.726503
C20   C     C_2   0.485265 0.033189 0.433708 -0.021514
C21   C     C_2   0.514735 0.966811 0.566291 -0.021514
C22   C     C_R   0.367859 0.501230 0.501537 0.860139
C23   C     C_R   0.632141 0.498770 0.498463 0.860139
C24   C     C_R   0.263637 0.649228 0.576677 0.097494
C25   C     C_R   0.736363 0.350772 0.423323 0.097494
C26   C     C_R   0.190216 0.649534 0.581041 0.109952
Cu1   Cu    Cu3+1 0.507710 0.517380 0.684380 1.076358
Cu2   Cu    Cu3+1 0.492290 0.482620 0.315620 1.076358
H1    H     H_    0.306559 0.848235 0.795412 0.253704
H2    H     H_    0.830238 0.111904 0.423533 0.265396
H3    H     H_    0.816209 0.148563 0.195719 0.245828
H4    H     H_    0.897667 0.212383 0.331008 0.244784
H5    H     H_    0.408271 0.023259 0.196318 0.266104
H6    H     H_    0.464548 0.870815 0.164753 0.265068
H7    H     H_    0.393843 0.869468 0.312369 0.235112
H8    H     H_    0.591729 0.976741 0.803682 0.266104
H9    H     H_    0.606157 0.130532 0.687631 0.235112
H10   H     H_    0.535452 0.129185 0.835246 0.265068
H11   H     H_    0.293869 0.890579 0.570099 0.264524
H12   H     H_    0.366176 0.791025 0.628909 0.199248
H13   H     H_    0.693441 0.151764 0.204589 0.253704
H14   H     H_    0.633824 0.208975 0.371091 0.199248
H15   H     H_    0.706131 0.109421 0.429902 0.264524
H16   H     H_    0.169762 0.888096 0.576468 0.265396
H17   H     H_    0.102333 0.787617 0.668992 0.244784
H18   H     H_    0.183791 0.851437 0.804281 0.245828
N1    N     N_R   0.034026 0.571546 0.386915 -0.180063
N2    N     N_R   0.965974 0.428454 0.613085 -0.180064
N3    N     N_R   0.964615 0.567287 0.380331 -0.164346
N4    N     N_R   0.035385 0.432713 0.619669 -0.164346
N5    N     N_2   0.480680 0.456420 0.038530 0.049436
N6    N     N_2   0.519320 0.543580 0.961470 0.049436
O1    O     O_R   0.505010 0.286130 0.619770 -0.575680
O2    O     O_R   0.494990 0.713870 0.380230 -0.575680
O3    O     O_R   0.491990 0.256780 0.308370 -0.574344
O4    O     O_R   0.508010 0.743220 0.691630 -0.574344
O5    O     O_R   0.406650 0.514660 0.655750 -0.551014
O6    O     O_R   0.593350 0.485340 0.344250 -0.551014
O7    O     O_R   0.393640 0.485310 0.344340 -0.547021
O8    O     O_R   0.606360 0.514690 0.655660 -0.547021

loop_
_geom_bond_atom_site_label_1
_geom_bond_atom_site_label_2
_ccdc_geom_bond_type
C19   H8    S    
C13   N4    A    
Cu2   N5    S    
C24   C26   A    
Cu1   N6    S    
C8    C10   A    
C19   C21   S    
C17   H4    S    
C5    C7    A    
C11   N3    A    
N1    N3    A    
C14   H11   S    
Br3   C7    S    
Br5   N5    S    
C16   H16   S    
C15   H14   S    
Br2   C6    S    
C13   N1    A    
C15   H15   S    
Cu1   Cu2   S    
N5    N6    D    
C23   O6    A    
Cu1   O1    S    
C14   C24   S    
C10   C25   A    
Cu2   O2    S    
C18   H7    S    
C15   C25   S    
C19   H9    S    
C20   C21   D    
C1    C20   S    
C16   C26   S    
C3    C5    A    
Cu2   O7    S    
C12   O2    A    
C18   H6    S    
C6    C8    A    
Cu1   O8    S    
C22   O7    A    
C4    C6    A    
C7    C9    A    
Br4   C8    S    
N2    N4    A    
Cu1   O5    S    
C16   H17   S    
C4    C11   S    
C9    C22   S    
C23   O8    A    
C22   O5    A    
C14   H12   S    
C2    C17   S    
C19   H10   S    
C9    C24   A    
C16   H18   S    
C17   H2    S    
Cu2   O3    S    
C1    O1    A    
C11   N2    A    
Br6   N6    S    
C1    O3    A    
C14   H1    S    
C3    C26   A    
C10   C23   S    
C17   H3    S    
C2    C25   A    
C18   H5    S    
Cu2   O6    S    
C2    C4    A    
C12   O4    A    
C12   C21   S    
C3    C13   S    
C18   C20   S    
Cu1   O4    S    
C15   H13   S    
Br1   C5    S    
