data_mof_unit_47569.cif
_audit_creation_date              2012-12-11T15:50:29-0500
_audit_creation_method            fapswitch 2.2
_symmetry_space_group_name_H-M    P1
_symmetry_Int_Tables_number       1
_space_group_crystal_system       triclinic
_cell_length_a                    18.945649
_cell_length_b                    10.942868
_cell_length_c                    18.774963
_cell_angle_alpha                 90.186288
_cell_angle_beta                  91.003176
_cell_angle_gamma                 89.816144
_cell_volume                      3891.78386085

loop_
_atom_site_label
_atom_site_type_symbol
_atom_type_description
_atom_site_fract_x
_atom_site_fract_y
_atom_site_fract_z
_atom_type_partial_charge
C1    C     C_R   0.273531 0.040199 0.854634 0.573352
C2    C     C_R   0.726452 0.040016 0.145315 0.576304
C3    C     C_R   0.773531 0.540199 0.854634 0.573353
C4    C     C_R   0.226452 0.540016 0.145315 0.576305
C5    C     C_3   0.529824 0.728257 0.971852 -0.147416
C6    C     C_3   0.470539 0.728228 0.027661 -0.147848
C7    C     C_3   0.029824 0.228257 0.971852 -0.147416
C8    C     C_3   0.970539 0.228228 0.027661 -0.147848
C9    C     C_R   0.241194 0.576104 0.072557 0.052607
C10   C     C_R   0.758695 0.576616 0.927407 0.052761
C11   C     C_R   0.741194 0.076104 0.072557 0.052607
C12   C     C_R   0.258695 0.076616 0.927407 0.052761
C13   C     C_R   0.305005 0.550669 0.039238 0.025876
C14   C     C_R   0.695110 0.550564 0.960748 0.027129
C15   C     C_R   0.805005 0.050669 0.039238 0.025877
C16   C     C_R   0.195110 0.050564 0.960748 0.027130
C17   C     C_R   0.310661 0.560781 0.965701 0.102818
C18   C     C_R   0.689558 0.560397 0.034320 0.103686
C19   C     C_R   0.810661 0.060781 0.965701 0.102819
C20   C     C_R   0.189558 0.060397 0.034320 0.103685
C21   C     C_R   0.188100 0.618939 0.956816 -0.141687
C22   C     C_R   0.811845 0.619093 0.043146 -0.139892
C23   C     C_R   0.688100 0.118939 0.956816 -0.141687
C24   C     C_R   0.311845 0.119093 0.043146 -0.139892
C25   C     C_R   0.183658 0.616148 0.030149 -0.106788
C26   C     C_R   0.816095 0.616881 0.969824 -0.106032
C27   C     C_R   0.683658 0.116148 0.030149 -0.106788
C28   C     C_R   0.316095 0.116881 0.969824 -0.106032
C29   C     C_3   0.348813 0.437633 0.041965 -0.280351
C30   C     C_3   0.651988 0.437175 0.957637 -0.278556
C31   C     C_3   0.848814 0.937633 0.041965 -0.280352
C32   C     C_3   0.151988 0.937174 0.957637 -0.278555
C33   C     C_3   0.355539 0.448545 0.961935 -0.286500
C34   C     C_3   0.645332 0.447899 0.037710 -0.288609
C35   C     C_3   0.855539 0.948545 0.961935 -0.286500
C36   C     C_3   0.145332 0.947899 0.037710 -0.288609
C37   C     C_R   0.251473 0.590382 0.923277 0.046016
C38   C     C_R   0.748702 0.590078 0.076690 0.047243
C39   C     C_R   0.751473 0.090382 0.923277 0.046016
C40   C     C_R   0.248702 0.090078 0.076690 0.047242
C41   C     C_R   0.489279 0.827494 0.418750 -0.004920
C42   C     C_R   0.450944 0.824957 0.563187 0.003226
C43   C     C_R   0.989281 0.327493 0.418750 -0.004931
C44   C     C_R   0.950949 0.324956 0.563188 0.003218
C45   C     C_R   0.470656 0.821836 0.855381 0.587560
C46   C     C_R   0.529402 0.821782 0.144599 0.578365
C47   C     C_R   0.970656 0.321836 0.855381 0.587560
C48   C     C_R   0.029402 0.321782 0.144599 0.578364
C49   C     C_R   0.478931 0.717544 0.455114 0.026988
C50   C     C_R   0.461039 0.716481 0.525663 0.014930
C51   C     C_R   0.978926 0.217543 0.455111 0.026995
C52   C     C_R   0.961034 0.216479 0.525661 0.014940
C53   C     C_R   0.450791 0.935639 0.524849 -0.102309
C54   C     C_R   0.469940 0.936911 0.452646 -0.148096
C55   C     C_R   0.950804 0.435639 0.524852 -0.102308
C56   C     C_R   0.969952 0.436910 0.452650 -0.148111
C57   C     C_3   0.528214 0.611333 0.464623 -0.267231
C58   C     C_3   0.509252 0.611208 0.542276 -0.269073
C59   C     C_3   0.028202 0.111323 0.464618 -0.267232
C60   C     C_3   0.009243 0.111198 0.542271 -0.269076
C61   C     C_R   0.249255 0.602581 0.419774 0.014609
C62   C     C_R   0.758376 0.567846 0.570768 -0.000287
C63   C     C_R   0.749254 0.102571 0.419777 0.014618
C64   C     C_R   0.258366 0.067864 0.570774 -0.000298
C65   C     C_R   0.197771 0.666199 0.457910 -0.032708
C66   C     C_R   0.812697 0.623199 0.534877 -0.017006
C67   C     C_R   0.697771 0.166192 0.457913 -0.032701
C68   C     C_R   0.312679 0.123243 0.534887 -0.016995
C69   C     C_R   0.201093 0.666682 0.530222 0.023864
C70   C     C_R   0.815735 0.624153 0.462595 0.054181
C71   C     C_R   0.701091 0.166667 0.530224 0.023868
C72   C     C_R   0.315723 0.124195 0.462606 0.054211
C73   C     C_R   0.314741 0.569714 0.529618 -0.175318
C74   C     C_R   0.707321 0.507095 0.456751 -0.172049
C75   C     C_R   0.814735 0.069690 0.529623 -0.175329
C76   C     C_R   0.207323 0.007101 0.456755 -0.172060
C77   C     C_R   0.311635 0.566181 0.455236 -0.166583
C78   C     C_R   0.707788 0.500989 0.531070 -0.164336
C79   C     C_R   0.811631 0.066158 0.455240 -0.166587
C80   C     C_R   0.207787 0.000996 0.531073 -0.164341
C81   C     C_3   0.117967 0.659898 0.458164 -0.212865
C82   C     C_3   0.844854 0.745131 0.545852 -0.219333
C83   C     C_3   0.617966 0.159896 0.458165 -0.212867
C84   C     C_3   0.344801 0.245197 0.545859 -0.219354
C85   C     C_3   0.122834 0.658325 0.538850 0.167989
C86   C     C_3   0.851599 0.748083 0.465720 0.152303
C87   C     C_3   0.622831 0.158315 0.538850 0.167984
C88   C     C_3   0.351562 0.248142 0.465730 0.152319
C89   C     C_R   0.260784 0.635556 0.851391 0.568636
C90   C     C_R   0.739288 0.635448 0.148636 0.565314
C91   C     C_R   0.760784 0.135556 0.851391 0.568634
C92   C     C_R   0.239288 0.135448 0.148636 0.565316
C93   C     C_R   0.256688 0.613714 0.567612 0.010194
C94   C     C_R   0.757652 0.579591 0.422791 -0.005724
C95   C     C_R   0.756684 0.113699 0.567616 0.010199
C96   C     C_R   0.257650 0.079608 0.422798 -0.005727
C97   C     C_R   0.271970 0.043161 0.644796 0.535564
C98   C     C_R   0.729010 0.048612 0.352761 0.541976
C99   C     C_R   0.771972 0.543157 0.644794 0.535563
C100  C     C_R   0.229010 0.548614 0.352761 0.541966
C101  C     C_R   0.437902 0.819173 0.639590 0.562640
C102  C     C_R   0.528851 0.823280 0.352530 0.533277
C103  C     C_R   0.937905 0.319173 0.639589 0.562636
C104  C     C_R   0.028851 0.323280 0.352531 0.533273
C105  C     C_R   0.261183 0.640183 0.642174 0.545332
C106  C     C_R   0.741266 0.635027 0.355210 0.532988
C107  C     C_R   0.761182 0.140179 0.642176 0.545332
C108  C     C_R   0.241265 0.135031 0.355212 0.532987
C109  C     C_3   0.470419 0.930703 0.028507 -0.154732
C110  C     C_3   0.529423 0.930733 0.971978 -0.153474
C111  C     C_3   0.970419 0.430703 0.028507 -0.154732
C112  C     C_3   0.029423 0.430733 0.971978 -0.153474
C113  C     C_3   0.431754 0.829690 0.986111 0.380757
C114  C     C_3   0.568344 0.829460 0.013893 0.383273
C115  C     C_3   0.931754 0.329690 0.986111 0.380757
C116  C     C_3   0.068344 0.329460 0.013893 0.383273
C117  C     C_3   0.490438 0.829342 0.930731 0.006150
C118  C     C_3   0.509654 0.829042 0.069260 0.008049
C119  C     C_3   0.990438 0.329342 0.930731 0.006150
C120  C     C_3   0.009654 0.329042 0.069260 0.008048
Cr1   Cr    Cr6+3 0.229640 0.835880 0.747370 1.022673
Cr2   Cr    Cr6+3 0.770360 0.835880 0.252630 0.990727
Cr3   Cr    Cr6+3 0.729640 0.335880 0.747370 1.022674
Cr4   Cr    Cr6+3 0.270360 0.335880 0.252630 0.990739
Cr5   Cr    Cr6+3 0.387390 0.989720 0.750850 1.037211
Cr6   Cr    Cr6+3 0.612610 0.989720 0.249150 1.009699
Cr7   Cr    Cr6+3 0.887390 0.489720 0.750850 1.037205
Cr8   Cr    Cr6+3 0.112610 0.489720 0.249150 1.009683
Cr9   Cr    Cr6+3 0.385770 0.677220 0.749340 1.020907
Cr10  Cr    Cr6+3 0.614230 0.677220 0.250660 1.018918
Cr11  Cr    Cr6+3 0.885770 0.177220 0.749340 1.020909
Cr12  Cr    Cr6+3 0.114230 0.177220 0.250660 1.018925
H1    H     H_    0.441675 0.021375 0.551885 0.184381
H2    H     H_    0.474980 0.023096 0.425438 0.165526
H3    H     H_    0.941697 0.521376 0.551891 0.184380
H4    H     H_    0.975004 0.523092 0.425448 0.165563
H5    H     H_    0.084025 0.137020 0.456016 0.154752
H6    H     H_    0.980984 0.027166 0.558138 0.142038
H7    H     H_    0.584036 0.637042 0.456023 0.154746
H8    H     H_    0.480997 0.527173 0.558143 0.142051
H9    H     H_    0.509694 0.528605 0.435354 0.145284
H10   H     H_    0.554358 0.636798 0.577951 0.145336
H11   H     H_    0.009676 0.028600 0.435348 0.145305
H12   H     H_    0.054351 0.136779 0.577945 0.145337
H13   H     H_    0.360818 0.534522 0.557300 0.139870
H14   H     H_    0.664347 0.465167 0.426848 0.127023
H15   H     H_    0.860810 0.034494 0.557305 0.139851
H16   H     H_    0.164356 0.965161 0.426849 0.127029
H17   H     H_    0.354584 0.524677 0.426508 0.129099
H18   H     H_    0.668084 0.446931 0.557096 0.131499
H19   H     H_    0.854579 0.024648 0.426513 0.129113
H20   H     H_    0.168089 0.946926 0.557096 0.131504
H21   H     H_    0.095550 0.575091 0.434902 0.178902
H22   H     H_    0.896065 0.740302 0.575604 0.175892
H23   H     H_    0.595546 0.075094 0.434901 0.178911
H24   H     H_    0.396004 0.240416 0.575621 0.175903
H25   H     H_    0.093647 0.745260 0.437155 0.103627
H26   H     H_    0.806393 0.812830 0.566618 0.079836
H27   H     H_    0.593650 0.245263 0.437159 0.103591
H28   H     H_    0.306318 0.312864 0.566611 0.079810
H29   H     H_    0.100684 0.742702 0.562981 0.136205
H30   H     H_    0.820395 0.823880 0.441759 0.140088
H31   H     H_    0.600681 0.242690 0.562984 0.136213
H32   H     H_    0.320347 0.323915 0.441758 0.140096
H33   H     H_    0.447014 0.012090 0.053993 0.108083
H34   H     H_    0.552709 0.012176 0.946991 0.110727
H35   H     H_    0.947014 0.512090 0.053993 0.108081
H36   H     H_    0.052709 0.512176 0.946991 0.110727
H37   H     H_    0.554531 0.647467 0.946867 0.124168
H38   H     H_    0.446035 0.647411 0.052225 0.123387
H39   H     H_    0.054531 0.147467 0.946867 0.124168
H40   H     H_    0.946036 0.147411 0.052225 0.123387
H41   H     H_    0.142229 0.649147 0.926419 0.115033
H42   H     H_    0.857634 0.649425 0.073561 0.111509
H43   H     H_    0.642229 0.149147 0.926419 0.115034
H44   H     H_    0.357634 0.149425 0.073561 0.111510
H45   H     H_    0.132846 0.637564 0.052732 0.137513
H46   H     H_    0.866735 0.638701 0.947238 0.137419
H47   H     H_    0.632846 0.137564 0.052732 0.137514
H48   H     H_    0.366735 0.138701 0.947238 0.137419
H49   H     H_    0.817433 0.857868 0.058422 0.193805
H50   H     H_    0.183834 0.857637 0.940847 0.194247
H51   H     H_    0.317433 0.357868 0.058422 0.193805
H52   H     H_    0.683834 0.357637 0.940847 0.194247
H53   H     H_    0.399451 0.450404 0.071700 0.117269
H54   H     H_    0.601214 0.449558 0.928052 0.119860
H55   H     H_    0.899451 0.950404 0.071700 0.117269
H56   H     H_    0.101214 0.949558 0.928052 0.119860
H57   H     H_    0.410158 0.469674 0.945205 0.139350
H58   H     H_    0.590627 0.468678 0.054625 0.138225
H59   H     H_    0.910158 0.969674 0.945205 0.139350
H60   H     H_    0.090626 0.968678 0.054625 0.138225
H61   H     H_    0.329433 0.373214 0.931716 0.140849
H62   H     H_    0.671922 0.372696 0.067571 0.140295
H63   H     H_    0.829433 0.873214 0.931716 0.140849
H64   H     H_    0.171922 0.872696 0.067571 0.140295
O1    O     O_R   0.214300 0.709080 0.827500 -0.529281
O2    O     O_R   0.785700 0.709080 0.172500 -0.537994
O3    O     O_R   0.714300 0.209080 0.827500 -0.529282
O4    O     O_R   0.285700 0.209080 0.172500 -0.537989
O5    O     O_R   0.445900 0.919370 0.676500 -0.489898
O6    O     O_R   0.554100 0.919370 0.323500 -0.522321
O7    O     O_R   0.945900 0.419370 0.676500 -0.489908
O8    O     O_R   0.054100 0.419370 0.323500 -0.522335
O9    O     O_R   0.456660 0.717710 0.669820 -0.526739
O10   O     O_R   0.543340 0.717710 0.330180 -0.523518
O11   O     O_R   0.956660 0.217710 0.669820 -0.526735
O12   O     O_R   0.043340 0.217710 0.330180 -0.523512
O13   O     O_R   0.320590 0.625770 0.672930 -0.533997
O14   O     O_R   0.679410 0.625770 0.327070 -0.511359
O15   O     O_R   0.820590 0.125770 0.672930 -0.533992
O16   O     O_R   0.179410 0.125770 0.327070 -0.511361
O17   O     O_3   0.334270 0.834280 0.749190 -0.265978
O18   O     O_3   0.665730 0.834280 0.250810 -0.232989
O19   O     O_3   0.834270 0.334280 0.749190 -0.265972
O20   O     O_3   0.165730 0.334280 0.250810 -0.232989
O21   O     O_R   0.236190 0.958390 0.823150 -0.496567
O22   O     O_R   0.763810 0.958390 0.176850 -0.497385
O23   O     O_R   0.736190 0.458390 0.823150 -0.496566
O24   O     O_R   0.263810 0.458390 0.176850 -0.497384
O25   O     O_R   0.332090 0.075280 0.831290 -0.526826
O26   O     O_R   0.667910 0.075280 0.168710 -0.527529
O27   O     O_R   0.832090 0.575280 0.831290 -0.526825
O28   O     O_R   0.167910 0.575280 0.168710 -0.527529
O29   O     O_R   0.446280 0.918040 0.826620 -0.484504
O30   O     O_R   0.553720 0.918040 0.173380 -0.491536
O31   O     O_R   0.946280 0.418040 0.826620 -0.484504
O32   O     O_R   0.053720 0.418040 0.173380 -0.491539
O33   O     O_R   0.457080 0.716270 0.831760 -0.512689
O34   O     O_R   0.542920 0.716270 0.168240 -0.516130
O35   O     O_R   0.957080 0.216270 0.831760 -0.512690
O36   O     O_R   0.042920 0.216270 0.168240 -0.516128
O37   O     O_R   0.320980 0.624440 0.823040 -0.486386
O38   O     O_R   0.679020 0.624440 0.176960 -0.485681
O39   O     O_R   0.820980 0.124440 0.823040 -0.486387
O40   O     O_R   0.179020 0.124440 0.176960 -0.485680
O41   O     O_R   0.213880 0.710510 0.665560 -0.506301
O42   O     O_R   0.786120 0.710510 0.334440 -0.550426
O43   O     O_R   0.713880 0.210510 0.665560 -0.506309
O44   O     O_R   0.286120 0.210510 0.334440 -0.550402
O45   O     O_R   0.235800 0.959720 0.673040 -0.515158
O46   O     O_R   0.764200 0.959720 0.326960 -0.525070
O47   O     O_R   0.735800 0.459720 0.673040 -0.515154
O48   O     O_R   0.264200 0.459720 0.326960 -0.525077
O49   O     O_R   0.331670 0.076720 0.669350 -0.532297
O50   O     O_R   0.668330 0.076720 0.330650 -0.532321
O51   O     O_R   0.831670 0.576720 0.669350 -0.532302
O52   O     O_R   0.168330 0.576720 0.330650 -0.532321
F1    F     F_    0.360286 0.830437 0.969841 -0.644029
F2    F     F_    0.639806 0.829947 0.030180 -0.642025
F3    F     F_    0.860286 0.330437 0.969841 -0.644029
F4    F     F_    0.139806 0.329947 0.030180 -0.642025
O53   O     O_3   0.094750 0.550983 0.571055 -0.549987
C121  C     C_3   0.132072 0.440903 0.557633 -0.091138
H65   H     H_    0.174878 0.428211 0.597965 0.120980
H66   H     H_    0.153242 0.433944 0.503025 0.102621
H67   H     H_    0.095644 0.363095 0.564107 0.142325
O54   O     O_3   0.923910 0.743136 0.447935 -0.594163
C122  C     C_3   0.932643 0.766015 0.374844 -0.113495
H68   H     H_    0.904129 0.849646 0.356714 0.126349
H69   H     H_    0.916682 0.684972 0.342777 0.149748
H70   H     H_    0.989435 0.781495 0.365233 0.106210
O55   O     O_3   0.594744 0.050970 0.571050 -0.549985
C123  C     C_3   0.632068 0.940894 0.557629 -0.091139
H71   H     H_    0.674870 0.928201 0.597965 0.120987
H72   H     H_    0.653244 0.933941 0.503023 0.102631
H73   H     H_    0.595639 0.863086 0.564097 0.142328
O56   O     O_3   0.423875 0.243225 0.447960 -0.594134
C124  C     C_3   0.432642 0.266228 0.374891 -0.113441
H74   H     H_    0.404155 0.349914 0.356810 0.126252
H75   H     H_    0.416671 0.185246 0.342767 0.149800
H76   H     H_    0.489450 0.281688 0.365299 0.106165

loop_
_geom_bond_atom_site_label_1
_geom_bond_atom_site_label_2
_ccdc_geom_bond_type
C87   H31   S    
C55   C56   A    
Cr4   O24   S    
C67   C83   S    
C110  H34   S    
C7    H39   S    
C5    C114  S    
Cr6   O50   S    
C85   H29   S    
C14   C18   A    
C83   C87   S    
C111  C112  S    
Cr12  O16   S    
C73   C93   A    
C122  H70   S    
Cr11  O11   S    
Cr8   O28   S    
C15   C31   S    
Cr3   O47   S    
C84   H28   S    
C75   C95   A    
C7    C8    S    
Cr2   O46   S    
C63   C79   A    
C53   C54   A    
Cr6   O6    S    
C21   H41   S    
Cr1   O45   S    
Cr5   O25   S    
C46   C118  S    
C78   H18   S    
C85   O53   S    
C17   C33   S    
C12   C28   A    
Cr10  O10   S    
C104  O8    A    
C32   H50   S    
C16   C20   A    
C70   C94   A    
C103  O11   A    
C98   O50   A    
C63   C98   S    
Cr3   O19   S    
C42   C53   A    
C97   O49   A    
O53   C121  S    
Cr4   O44   S    
C71   C95   A    
C55   H3    S    
C67   C71   A    
C83   H23   S    
C59   H5    S    
Cr11  O35   S    
C54   H2    S    
Cr9   O33   S    
C2    O26   A    
C49   C57   S    
C41   C102  S    
C90   O38   A    
Cr10  O38   S    
C1    O25   A    
Cr8   O8    S    
C89   O37   A    
C19   C35   S    
C9    C13   A    
C43   C104  S    
C109  H33   S    
C121  H66   S    
C83   H27   S    
C52   C60   S    
C8    C115  S    
C93   C105  S    
C43   C51   A    
C64   C80   A    
C11   C15   A    
C41   C49   A    
C99   O47   A    
C86   O54   S    
C12   C16   A    
C29   C33   S    
C61   C77   A    
C123  H71   S    
C4    O24   A    
Cr5   O17   S    
C76   C80   A    
Cr12  O20   S    
C91   O39   A    
C23   C27   A    
Cr4   O48   S    
Cr6   O18   S    
C110  C114  S    
C74   C78   A    
C100  O48   A    
Cr7   O27   S    
C91   O3    A    
C81   C85   S    
C10   C26   A    
C102  O6    A    
C47   C119  S    
C96   C108  S    
C59   H11   S    
C59   C60   S    
C5    H37   S    
Cr4   O20   S    
C124  H74   S    
C95   C107  S    
Cr7   O31   S    
C29   H51   S    
C46   O34   A    
Cr7   O7    S    
Cr6   O30   S    
C1    C12   S    
C45   O33   A    
C14   C30   S    
Cr5   O29   S    
C2    C11   S    
Cr12  O36   S    
C110  C117  S    
C39   C91   S    
Cr2   O42   S    
C108  O16   A    
C44   C103  S    
C62   C78   A    
C109  C118  S    
Cr3   O43   S    
C26   H46   S    
C111  C115  S    
Cr11  O15   S    
C63   C67   A    
C60   H6    S    
C81   H25   S    
C30   C34   S    
C87   O55   S    
C9    C25   A    
C51   C52   A    
C68   C84   S    
C108  O44   A    
C34   H58   S    
C53   H1    S    
C72   C96   A    
C48   C120  S    
C22   H42   S    
C77   H17   S    
C57   H9    S    
C102  O10   A    
C62   C66   A    
C88   O56   S    
C20   C36   S    
C45   O29   A    
C116  F4    S    
C121  H67   S    
Cr11  O39   S    
C6    C118  S    
C4    O28   A    
Cr11  O19   S    
Cr3   O23   S    
C92   O40   A    
C40   C92   S    
C116  C120  S    
Cr9   O37   S    
C68   C72   A    
Cr1   O17   S    
C7    C116  S    
C113  F1    S    
C15   C19   A    
C36   H64   S    
C6    C113  S    
C121  H65   S    
C100  O52   A    
Cr9   O13   S    
C7    C119  S    
C76   C96   A    
C66   C82   S    
C47   O31   A    
Cr9   O9    S    
C38   C90   S    
C58   H10   S    
C65   C81   S    
C61   C65   A    
C20   C40   A    
C11   C27   A    
C88   H32   S    
Cr8   O32   S    
Cr7   O51   S    
Cr5   O5    S    
Cr6   O26   S    
C46   O30   A    
C50   C58   S    
C21   C37   A    
Cr10  O34   S    
C17   C37   A    
Cr2   O2    S    
C33   H57   S    
C35   H59   S    
C109  C113  S    
C28   H48   S    
C114  F2    S    
Cr1   O1    S    
C114  C118  S    
Cr8   O52   S    
C19   C39   A    
Cr8   O20   S    
C70   C86   S    
C86   H30   S    
Cr7   O19   S    
C47   O35   A    
C123  H72   S    
C64   C97   S    
C42   C50   A    
C56   H4    S    
C115  C119  S    
C124  H75   S    
C71   C87   S    
Cr5   O49   S    
C113  C117  S    
C8    H40   S    
Cr10  O14   S    
C61   C100  S    
C51   C59   S    
C13   C29   S    
C105  O13   A    
C99   O51   A    
C48   O36   A    
C24   H44   S    
C42   C101  S    
C64   C68   A    
C112  C116  S    
C115  F3    S    
C69   C85   S    
C81   H21   S    
C8    C120  S    
C79   H19   S    
C6    H38   S    
C58   H8    S    
C80   H20   S    
C48   O32   A    
C21   C25   A    
C94   C106  S    
C3    O27   A    
Cr2   O22   S    
C36   H60   S    
C30   H52   S    
C74   H14   S    
Cr1   O41   S    
C24   C28   A    
C27   H47   S    
C122  H69   S    
C106  O14   A    
C5    C117  S    
C44   C52   A    
Cr3   O3    S    
C112  C119  S    
C101  O9    A    
C32   C36   S    
Cr12  O12   S    
C90   O2    A    
C35   H63   S    
C16   C32   S    
Cr1   O21   S    
C89   O1    A    
Cr4   O4    S    
C69   C93   A    
C37   C89   S    
C72   C88   S    
C75   H15   S    
O55   C123  S    
O54   C122  S    
C18   C38   A    
C82   H26   S    
C3    C10   S    
C101  O5    A    
C109  C110  S    
C60   H12   S    
C107  O15   A    
C82   C86   S    
C62   C99   S    
C84   H24   S    
C44   C55   A    
C34   H62   S    
C57   C58   S    
C5    C6    S    
C84   C88   S    
C107  O43   A    
C18   C34   S    
C123  H73   S    
C65   C69   A    
C32   H56   S    
C24   C40   A    
Cr12  O40   S    
C29   H53   S    
Cr10  O18   S    
C31   C35   S    
C104  O12   A    
C41   C54   A    
Cr9   O17   S    
C103  O7    A    
C45   C117  S    
C98   O46   A    
C57   H7    S    
C22   C26   A    
C111  H35   S    
C33   H61   S    
C13   C17   A    
C82   H22   S    
Cr2   O18   S    
C43   C56   A    
C30   H54   S    
C23   H43   S    
C66   C70   A    
C76   H16   S    
C73   C77   A    
C3    O23   A    
C49   C50   A    
C106  O42   A    
C124  H76   S    
C73   H13   S    
C74   C94   A    
C2    O22   A    
C105  O41   A    
C111  C120  S    
C1    O21   A    
C97   O45   A    
C31   H55   S    
C4    C9    S    
C92   O4    A    
C25   H45   S    
C75   C79   A    
C23   C39   A    
C31   H49   S    
C122  H68   S    
C10   C14   A    
O56   C124  S    
C22   C38   A    
C112  H36   S    
