data_mof_unit_59704.cif
_audit_creation_date              2012-12-10T17:59:48-0500
_audit_creation_method            fapswitch 2.2
_symmetry_space_group_name_H-M    P1
_symmetry_Int_Tables_number       1
_space_group_crystal_system       triclinic
_cell_length_a                    10.942884
_cell_length_b                    9.599873
_cell_length_c                    15.90794
_cell_angle_alpha                 89.978986
_cell_angle_beta                  93.955139
_cell_angle_gamma                 90.000544
_cell_volume                      1667.15366777

loop_
_atom_site_label
_atom_site_type_symbol
_atom_type_description
_atom_site_fract_x
_atom_site_fract_y
_atom_site_fract_z
_atom_type_partial_charge
C1    C     C_R   0.262684 0.499997 0.504563 0.924549
C2    C     C_3   0.651486 0.496830 0.956095 0.378517
C3    C     C_3   0.648041 0.482127 0.057889 0.291658
C4    C     C_1   0.507191 0.499555 0.824388 -0.014394
C5    C     C_1   0.502538 0.500071 0.176069 -0.038785
C6    C     C_1   0.500872 0.500088 0.251304 -0.137126
C7    C     C_R   0.063004 0.372546 0.505861 0.327713
C8    C     C_R   0.063001 0.627446 0.505830 0.327412
C9    C     C_R   0.936208 0.372671 0.490773 0.295742
C10   C     C_R   0.936206 0.627326 0.490733 0.295631
C11   C     C_R   0.870918 0.500000 0.489572 -0.353242
C12   C     C_R   0.128446 0.499996 0.507965 -0.377254
C13   C     C_R   0.424992 0.074025 0.443533 0.433008
C14   C     C_R   0.424995 0.926035 0.443532 0.434165
C15   C     C_R   0.499595 0.500026 0.340509 0.860081
C16   C     C_R   0.576414 0.925474 0.557014 0.233656
C17   C     C_R   0.576404 0.074466 0.557021 0.234100
C18   C     C_R   0.737059 0.500002 0.494638 0.856518
C19   C     C_R   0.500701 0.499968 0.659527 0.775637
C20   C     C_3   0.447263 0.647619 0.047861 0.308017
C21   C     C_3   0.420668 0.370192 0.044976 0.304118
C22   C     C_3   0.437226 0.366503 0.946501 -0.070094
C23   C     C_3   0.437910 0.631602 0.948071 -0.068804
C24   C     C_1   0.503629 0.499831 0.748928 -0.173955
C25   C     C_3   0.504874 0.500236 0.083742 0.106843
C26   C     C_3   0.512260 0.498915 0.917145 0.094154
Cu1   Cu    Cu3+1 0.500020 0.640660 0.500000 1.050503
Cu2   Cu    Cu3+1 0.500020 0.359340 0.500000 1.049921
H1    H     H_    0.340969 0.605506 0.929748 0.150264
H2    H     H_    0.345257 0.381941 0.913060 0.167561
N1    N     N_R   0.500030 0.852070 0.500020 -0.232584
N2    N     N_R   0.500030 0.147930 0.500020 -0.231976
O1    O     O_R   0.319660 0.618740 0.500000 -0.504781
O2    O     O_R   0.319660 0.381260 0.500000 -0.504053
O3    O     O_R   0.500020 0.618840 0.379440 -0.536881
O4    O     O_R   0.500020 0.381160 0.379440 -0.540209
O5    O     O_R   0.680370 0.618830 0.500010 -0.557397
O6    O     O_R   0.680370 0.381170 0.500010 -0.557206
O7    O     O_R   0.500010 0.618730 0.620560 -0.592601
O8    O     O_R   0.500010 0.381270 0.620560 -0.591986
C27   C     C_3   0.662447 0.853144 0.622617 -0.679015
H3    H     H_    0.670642 0.741143 0.618647 0.260720
H4    H     H_    0.758023 0.887950 0.617276 0.239564
H5    H     H_    0.634219 0.876787 0.686784 0.178265
C28   C     C_3   0.662375 0.146736 0.622655 -0.679109
H6    H     H_    0.670576 0.258739 0.618662 0.260630
H7    H     H_    0.634074 0.123045 0.686808 0.177052
H8    H     H_    0.757963 0.111938 0.617375 0.239684
C29   C     C_3   0.316885 0.682636 0.081305 -0.774972
H9    H     H_    0.296138 0.620193 0.136771 0.244840
H10   H     H_    0.305639 0.789900 0.105660 0.241474
H11   H     H_    0.240219 0.678347 0.032230 0.198193
C30   C     C_3   0.279647 0.384859 0.055504 -0.853821
H12   H     H_    0.233346 0.462858 0.014094 0.204916
H13   H     H_    0.229130 0.289324 0.034027 0.232845
H14   H     H_    0.259688 0.399703 0.122382 0.257864
C31   C     C_3   0.444161 0.226627 0.092480 -0.729233
H15   H     H_    0.375806 0.146605 0.070437 0.221371
H16   H     H_    0.528596 0.169683 0.085428 0.202544
H17   H     H_    0.435070 0.238549 0.161183 0.252878
C32   C     C_3   0.522144 0.779960 0.078388 -0.748483
H18   H     H_    0.468231 0.877948 0.072350 0.214451
H19   H     H_    0.555212 0.771304 0.145739 0.245875
H20   H     H_    0.595192 0.810795 0.039820 0.200164
C33   C     C_3   0.466311 0.221222 0.910059 -0.854850
H21   H     H_    0.383051 0.154666 0.909205 0.235357
H22   H     H_    0.492419 0.228539 0.844057 0.247984
H23   H     H_    0.537603 0.162971 0.947621 0.230647
C34   C     C_3   0.446849 0.769321 0.897547 -0.835119
H24   H     H_    0.412107 0.754040 0.830933 0.243829
H25   H     H_    0.387402 0.849773 0.923947 0.240115
H26   H     H_    0.539692 0.812791 0.896759 0.238562
C35   C     C_3   0.740531 0.583908 0.107586 -0.784581
H27   H     H_    0.734058 0.574679 0.176732 0.244057
H28   H     H_    0.836801 0.558976 0.094982 0.227062
H29   H     H_    0.736670 0.694325 0.092416 0.221293
C36   C     C_3   0.703456 0.339040 0.089760 -0.797547
H30   H     H_    0.682421 0.251861 0.047194 0.215445
H31   H     H_    0.805286 0.337192 0.093550 0.232233
H32   H     H_    0.677000 0.313579 0.154117 0.247021
C37   C     C_3   0.723694 0.628116 0.927962 -0.827335
H33   H     H_    0.712499 0.643436 0.858617 0.228942
H34   H     H_    0.700648 0.726313 0.955783 0.210956
H35   H     H_    0.823646 0.617010 0.944572 0.229608
C38   C     C_3   0.727971 0.379805 0.914135 -0.823955
H36   H     H_    0.822664 0.375201 0.944194 0.228219
H37   H     H_    0.692012 0.274120 0.915547 0.223295
H38   H     H_    0.736907 0.400776 0.846055 0.227792
Cl1   Cl    Cl    0.133600 0.209191 0.530084 -0.414527
Cl2   Cl    Cl    0.133586 0.790788 0.530023 -0.415703
Cl3   Cl    Cl    0.865104 0.210227 0.464896 -0.453933
Cl4   Cl    Cl    0.865099 0.789773 0.464791 -0.454236
Cl5   Cl    Cl    0.325995 0.161878 0.369129 -0.470870
Cl6   Cl    Cl    0.326033 0.838253 0.369114 -0.464899

loop_
_geom_bond_atom_site_label_1
_geom_bond_atom_site_label_2
_ccdc_geom_bond_type
C11   C18   S    
C32   H20   S    
C35   H28   S    
C27   H3    S    
C23   C34   S    
C13   N2    A    
C14   N1    A    
C9    Cl3   S    
C37   H33   S    
C1    O1    A    
C38   H36   S    
Cu1   O1    S    
C16   N1    A    
C23   H1    S    
C18   O5    A    
C17   C28   S    
C5    C6    T    
C4    C24   T    
C30   H14   S    
C33   H22   S    
C20   C25   S    
Cu2   O8    S    
C7    Cl1   S    
C2    C38   S    
C34   H25   S    
C35   H27   S    
C23   C26   S    
C20   C32   S    
C32   H19   S    
C6    C15   S    
Cu1   O7    S    
C16   C17   A    
C29   H10   S    
C36   H30   S    
C29   H11   S    
C28   H7    S    
Cu2   O2    S    
C21   C22   S    
C27   H4    S    
C32   H18   S    
C1    C12   S    
Cu2   N2    S    
C15   O3    A    
C37   H34   S    
C1    O2    A    
C36   H31   S    
C7    C12   A    
C38   H37   S    
Cu1   N1    S    
C3    C25   S    
C10   C11   A    
C31   H17   S    
C28   H8    S    
Cu1   O3    S    
C30   H12   S    
C13   Cl5   S    
C34   H26   S    
C22   C33   S    
C21   C31   S    
C20   C29   S    
C20   C23   S    
Cu2   O6    S    
C8    C12   A    
C33   H23   S    
C2    C26   S    
C9    C11   A    
C19   O7    A    
C5    C25   S    
C33   H21   S    
C27   H5    S    
C8    Cl2   S    
C30   H13   S    
C3    C36   S    
C15   O4    A    
C37   H35   S    
C38   H38   S    
C36   H32   S    
C7    C9    A    
C21   C25   S    
C22   H2    S    
C4    C26   S    
C2    C3    S    
C18   O6    A    
C21   C30   S    
C31   H15   S    
Cu1   O5    S    
C35   H29   S    
C19   C24   S    
C34   H24   S    
C3    C35   S    
C31   H16   S    
C19   O8    A    
C10   Cl4   S    
C28   H6    S    
Cu2   O4    S    
C8    C10   A    
C29   H9    S    
C22   C26   S    
Cu1   Cu2   S    
C17   N2    A    
C2    C37   S    
C13   C14   A    
C16   C27   S    
C14   Cl6   S    
