data_mof_unit_50542.cif
_audit_creation_date              2012-12-10T17:58:17-0500
_audit_creation_method            fapswitch 2.2
_symmetry_space_group_name_H-M    P1
_symmetry_Int_Tables_number       1
_space_group_crystal_system       triclinic
_cell_length_a                    9.523112
_cell_length_b                    10.78734
_cell_length_c                    15.485111
_cell_angle_alpha                 89.659366
_cell_angle_beta                  74.536275
_cell_angle_gamma                 89.840293
_cell_volume                      1533.15563911

loop_
_atom_site_label
_atom_site_type_symbol
_atom_type_description
_atom_site_fract_x
_atom_site_fract_y
_atom_site_fract_z
_atom_type_partial_charge
C1    C     C_R   0.001210 0.262293 0.497846 0.831074
C2    C     C_R   0.998773 0.737697 0.502205 0.830244
C3    C     C_R   0.575715 0.576018 0.089089 -0.203899
C4    C     C_R   0.414443 0.481019 0.905105 -0.201589
C5    C     C_R   0.720907 0.593010 0.043532 -0.229127
C6    C     C_R   0.268776 0.466362 0.950295 -0.232585
C7    C     C_R   0.882687 0.066511 0.553065 -0.224535
C8    C     C_R   0.117313 0.933459 0.447091 -0.224449
C9    C     C_R   0.879997 0.938099 0.556723 0.164166
C10   C     C_R   0.120043 0.061860 0.443446 0.164015
C11   C     C_R   0.998015 0.871459 0.502811 -0.102857
C12   C     C_R   0.001974 0.128516 0.497321 -0.103088
C13   C     C_R   0.548770 0.428116 0.559381 0.003131
C14   C     C_R   0.451226 0.571900 0.440626 0.003698
C15   C     C_R   0.399982 0.428209 0.559387 0.000282
C16   C     C_R   0.600018 0.571799 0.440616 0.001421
C17   C     C_R   0.918307 0.501730 0.672094 0.804783
C18   C     C_R   0.081695 0.499637 0.327830 0.807255
C19   C     C_R   0.872789 0.514754 0.769772 -0.042207
C20   C     C_R   0.126617 0.497311 0.229550 -0.044008
C21   C     C_R   0.917644 0.583540 0.908125 -0.208823
C22   C     C_R   0.075098 0.460774 0.087323 -0.204955
C23   C     C_R   0.968751 0.558393 0.817029 -0.188360
C24   C     C_R   0.027108 0.470697 0.180113 -0.186158
C25   C     C_R   0.726691 0.493807 0.814626 -0.219233
C26   C     C_R   0.273214 0.517741 0.185203 -0.225786
C27   C     C_R   0.670887 0.523177 0.905659 0.097685
C28   C     C_R   0.323928 0.511714 0.091373 0.094102
C29   C     C_R   0.770001 0.566283 0.952711 0.163244
C30   C     C_R   0.222420 0.479883 0.042769 0.164869
C31   C     C_R   0.520077 0.511056 0.950967 0.070449
C32   C     C_R   0.472909 0.532553 0.044972 0.069074
Cu1   Cu    Cu3+1 0.140660 0.500020 0.500000 0.971951
Cu2   Cu    Cu3+1 0.859340 0.499980 0.500000 0.972801
H1    H     H_    0.346488 0.534677 0.225959 0.148737
H2    H     H_    0.659002 0.454015 0.776459 0.140427
H3    H     H_    0.913255 0.454186 0.213232 0.160479
H4    H     H_    0.082070 0.575996 0.783263 0.160029
H5    H     H_    0.993074 0.618783 0.943459 0.145964
H6    H     H_    0.997267 0.436322 0.050451 0.146623
H7    H     H_    0.547333 0.601613 0.158681 0.138101
H8    H     H_    0.439458 0.470903 0.833520 0.142588
H9    H     H_    0.584262 0.370277 0.606865 0.114851
H10   H     H_    0.415733 0.629748 0.393146 0.113858
H11   H     H_    0.323434 0.370591 0.606887 0.121818
H12   H     H_    0.676568 0.629414 0.393114 0.120633
N1    N     N_R   0.352080 0.500030 0.499980 -0.157713
N2    N     N_R   0.647920 0.499970 0.500020 -0.157612
O1    O     O_R   0.118740 0.319660 0.500000 -0.555902
O2    O     O_R   0.881260 0.680340 0.500000 -0.556338
O3    O     O_R   0.881170 0.319630 0.500010 -0.584743
O4    O     O_R   0.118830 0.680370 0.499990 -0.585414
O5    O     O_R   0.055570 0.500030 0.629830 -0.592013
O6    O     O_R   0.944430 0.499970 0.370170 -0.591338
O7    O     O_R   0.818000 0.500000 0.629840 -0.577862
O8    O     O_R   0.182000 0.500000 0.370160 -0.579212
H13   H     H_    0.795575 0.627193 0.079925 0.148788
H14   H     H_    0.192004 0.442747 0.912420 0.148492
H15   H     H_    0.792886 0.118239 0.595384 0.165695
H16   H     H_    0.207134 0.881734 0.404756 0.165687
I1    I     I_    0.699986 0.853622 0.650115 -0.358432
I2    I     I_    0.300328 0.146235 0.349991 -0.358777

loop_
_geom_bond_atom_site_label_1
_geom_bond_atom_site_label_2
_ccdc_geom_bond_type
C13   N2    A    
C19   C23   A    
C21   C29   A    
C14   N1    A    
C2    O4    A    
C15   N1    A    
C27   C29   A    
C23   H4    S    
C1    O3    A    
C17   O7    A    
C26   C28   A    
C31   C32   A    
C21   H5    S    
C5    H13   S    
C13   H9    S    
C22   H6    S    
C16   N2    A    
Cu1   O8    S    
C28   C30   A    
Cu1   Cu2   S    
Cu2   O7    S    
C8    H16   S    
Cu1   O4    S    
C18   O8    A    
C9    C11   A    
Cu2   O3    S    
C10   I2    S    
C1    C12   S    
C20   C26   A    
C8    C11   A    
C9    I1    S    
C2    C11   S    
C10   C12   A    
C22   C24   A    
C7    H15   S    
C17   C19   S    
Cu2   O6    S    
C18   O6    A    
C18   C20   S    
C13   C15   A    
C21   C23   A    
Cu1   O5    S    
C3    C32   A    
Cu1   N1    S    
C4    H8    S    
C14   C16   A    
C7    C12   A    
Cu2   O2    S    
C4    C31   A    
Cu2   N2    S    
C15   H11   S    
C19   C25   A    
Cu1   O1    S    
C5    C29   A    
C17   O5    A    
C26   H1    S    
C28   C32   A    
C14   H10   S    
C4    C6    A    
C16   H12   S    
C24   H3    S    
C7    C9    A    
C6    H14   S    
C3    H7    S    
C22   C30   A    
C6    C30   A    
C25   H2    S    
C27   C31   A    
C2    O2    A    
C8    C10   A    
C20   C24   A    
C3    C5    A    
C25   C27   A    
C1    O1    A    
