data_mof_unit_47146.cif
_audit_creation_date              2012-12-10T17:51:30-0500
_audit_creation_method            fapswitch 2.2
_symmetry_space_group_name_H-M    P1
_symmetry_Int_Tables_number       1
_space_group_crystal_system       triclinic
_cell_length_a                    9.909425
_cell_length_b                    10.644093
_cell_length_c                    16.862041
_cell_angle_alpha                 91.125601
_cell_angle_beta                  85.989804
_cell_angle_gamma                 89.566058
_cell_volume                      1773.78650393

loop_
_atom_site_label
_atom_site_type_symbol
_atom_type_description
_atom_site_fract_x
_atom_site_fract_y
_atom_site_fract_z
_atom_type_partial_charge
Br1   Br    Br    0.609354 0.149151 0.653845 -0.521549
Br2   Br    Br    0.225596 0.597644 0.276066 -0.561862
C1    C     C_R   0.499702 0.739382 0.498813 0.855474
C2    C     C_R   0.523965 0.544283 0.263895 -0.112217
C3    C     C_R   0.411990 0.867878 0.361454 -0.126037
C4    C     C_R   0.482152 0.502532 0.652864 0.886190
C5    C     C_R   0.370565 0.932490 0.296098 -0.105606
C6    C     C_R   0.372626 0.063087 0.296232 -0.140639
C7    C     C_R   0.415896 0.129370 0.361757 -0.165428
C8    C     C_R   0.456705 0.065077 0.429013 0.050507
C9    C     C_R   0.454901 0.933556 0.428656 0.089678
C10   C     C_R   0.499620 0.871651 0.495174 -0.133287
C11   C     C_R   0.547865 0.935848 0.559750 -0.239879
C12   C     C_R   0.348783 0.555739 0.778591 -0.202031
C13   C     C_R   0.548833 0.064565 0.561003 0.261152
C14   C     C_R   0.502145 0.128300 0.496331 -0.177055
C15   C     C_R   0.846425 0.664068 0.603977 -0.152166
C16   C     C_R   0.500542 0.260677 0.500008 0.934337
C17   C     C_R   0.909981 0.744922 0.655025 -0.181858
C18   C     C_R   0.049641 0.745212 0.654762 -0.190187
C19   C     C_R   0.126523 0.664609 0.603471 -0.154390
C20   C     C_R   0.065639 0.581126 0.550994 0.172676
C21   C     C_R   0.921013 0.580942 0.551119 0.173347
C22   C     C_R   0.934944 0.422474 0.451193 -0.084085
C23   C     C_R   0.425163 0.648080 0.155156 -0.203936
C24   C     C_R   0.078058 0.422361 0.451302 -0.042047
C25   C     C_R   0.517109 0.506549 0.347134 0.848371
C26   C     C_R   0.473354 0.524311 0.738338 -0.023529
C27   C     C_R   0.592110 0.526406 0.778848 -0.182315
C28   C     C_R   0.586913 0.561874 0.858368 -0.144739
C29   C     C_R   0.462720 0.596481 0.898133 0.198326
C30   C     C_R   0.343688 0.591474 0.858244 -0.166445
C31   C     C_R   0.409289 0.595300 0.229420 0.233136
C32   C     C_R   0.650700 0.545533 0.220841 -0.217639
C33   C     C_R   0.662857 0.591997 0.144177 -0.156118
C34   C     C_R   0.549123 0.640135 0.110397 0.151250
C35   C     C_2   0.451113 0.621708 0.983492 -0.220105
C36   C     C_2   0.555011 0.659574 0.024654 -0.214551
H1    H     H_    0.689361 0.501655 0.749046 0.173542
H2    H     H_    0.098934 0.808204 0.694598 0.160199
H3    H     H_    0.233011 0.670434 0.606927 0.199721
H4    H     H_    0.137144 0.358944 0.411478 0.157538
H5    H     H_    0.740272 0.508832 0.245950 0.181742
H6    H     H_    0.651143 0.684841 0.994639 0.148545
H7    H     H_    0.246739 0.615052 0.888881 0.132143
H8    H     H_    0.337722 0.690158 0.130702 0.160023
H9    H     H_    0.356091 0.594117 0.013904 0.158474
H10   H     H_    0.679580 0.558523 0.888560 0.130206
H11   H     H_    0.886449 0.359164 0.411285 0.147510
H12   H     H_    0.759533 0.585323 0.110062 0.143017
H13   H     H_    0.255862 0.555131 0.748396 0.161077
H14   H     H_    0.582468 0.885438 0.609945 0.160492
H15   H     H_    0.411493 0.766678 0.358730 0.166297
H16   H     H_    0.337684 0.881256 0.244981 0.161963
H17   H     H_    0.341551 0.113194 0.245217 0.148310
H18   H     H_    0.418372 0.230692 0.358635 0.141883
H19   H     H_    0.739035 0.669642 0.607952 0.195956
H20   H     H_    0.850276 0.807740 0.695035 0.166500
N1    N     N_R   0.857140 0.501200 0.500750 -0.121520
N2    N     N_R   0.142740 0.501280 0.500770 -0.117185
O1    O     O_R   0.385310 0.683220 0.500000 -0.629152
O2    O     O_R   0.614640 0.683250 0.500010 -0.628924
O3    O     O_R   0.371780 0.500010 0.615800 -0.641654
O4    O     O_R   0.601110 0.500030 0.615800 -0.628630
O5    O     O_R   0.385360 0.316750 0.499990 -0.617781
O6    O     O_R   0.614690 0.316780 0.500000 -0.586186
O7    O     O_R   0.398890 0.499970 0.384200 -0.577677
O8    O     O_R   0.628220 0.499990 0.384200 -0.619640
Zn1   Zn    Zn3+2 0.346870 0.499980 0.499990 0.970220
Zn2   Zn    Zn3+2 0.653130 0.500020 0.500010 0.968248

loop_
_geom_bond_atom_site_label_1
_geom_bond_atom_site_label_2
_ccdc_geom_bond_type
C4    O3    A    
C4    O4    A    
C9    C10   A    
C36   H6    S    
C35   C36   D    
Br1   C13   S    
O4    Zn2   S    
C1    O1    A    
C16   O6    A    
C11   H14   S    
C7    C8    A    
O6    Zn2   S    
C17   C18   A    
O1    Zn1   S    
C27   H1    S    
C33   H12   S    
C34   C36   S    
C1    C10   S    
C5    C6    A    
C7    H18   S    
C8    C14   A    
C19   C20   A    
C18   C19   A    
C16   O5    A    
C21   N1    A    
C15   H19   S    
C24   H4    S    
C15   C21   A    
N2    Zn1   S    
C22   N1    A    
O5    Zn1   S    
Br2   C31   S    
C28   H10   S    
C26   C27   A    
C15   C17   A    
C6    H17   S    
C3    C9    A    
C2    C32   A    
C11   C13   A    
C17   H20   S    
C20   N2    A    
C28   C29   A    
C18   H2    S    
C29   C30   A    
C19   H3    S    
C12   C30   A    
C35   H9    S    
C8    C9    A    
C23   C34   A    
C27   C28   A    
C13   C14   A    
O3    Zn1   S    
C2    C25   S    
C25   O7    A    
C10   C11   A    
O2    Zn2   S    
C12   H13   S    
C14   C16   S    
C32   C33   A    
C30   H7    S    
C1    O2    A    
C3    H15   S    
C22   H11   S    
C3    C5    A    
O8    Zn2   S    
C20   C21   A    
C25   O8    A    
N1    Zn2   S    
C5    H16   S    
C12   C26   A    
C2    C31   A    
C24   N2    A    
C23   H8    S    
C29   C35   S    
C4    C26   S    
C32   H5    S    
C22   C24   A    
C23   C31   A    
C6    C7    A    
O7    Zn1   S    
C33   C34   A    
