data_mof_unit_25203.cif
_audit_creation_date              2012-12-10T17:32:20-0500
_audit_creation_method            fapswitch 2.2
_symmetry_space_group_name_H-M    P1
_symmetry_Int_Tables_number       1
_space_group_crystal_system       triclinic
_cell_length_a                    12.52825
_cell_length_b                    13.485012
_cell_length_c                    15.031807
_cell_angle_alpha                 70.124495
_cell_angle_beta                  103.44255
_cell_angle_gamma                 118.78671
_cell_volume                      2085.81719441

loop_
_atom_site_label
_atom_site_type_symbol
_atom_type_description
_atom_site_fract_x
_atom_site_fract_y
_atom_site_fract_z
_atom_type_partial_charge
C1    C     C_R   0.855674 0.289190 0.500764 0.976590
C2    C     C_R   0.985750 0.410736 0.841326 0.436891
C3    C     C_R   0.020993 0.515973 0.767639 -0.333803
C4    C     C_R   0.010836 0.511423 0.669404 1.005030
C5    C     C_R   0.065685 0.624248 0.789844 0.394192
C6    C     C_R   0.276422 0.042340 0.359550 0.521072
C7    C     C_R   0.230389 0.838796 0.443390 -0.074070
C8    C     C_R   0.807120 0.080450 0.557954 -0.365327
C9    C     C_R   0.720320 0.965301 0.587674 0.381139
C10   C     C_R   0.597126 0.936094 0.558005 0.367257
C11   C     C_R   0.563004 0.016753 0.481135 -0.075792
C12   C     C_R   0.083147 0.618129 0.076291 0.031159
C13   C     C_R   0.652400 0.134388 0.451252 0.041200
C14   C     C_R   0.441533 0.985850 0.437893 -0.062061
C15   C     C_R   0.403843 0.073385 0.380513 0.086513
C16   C     C_R   0.145359 0.714425 0.476907 0.840668
C17   C     C_R   0.493722 0.189664 0.350624 0.391466
C18   C     C_R   0.618740 0.216410 0.377926 0.325875
C19   C     C_R   0.354808 0.869144 0.454293 -0.166679
C20   C     C_R   0.190863 0.925518 0.395918 -0.296821
C21   C     C_R   0.772509 0.167073 0.498168 -0.089487
C22   C     C_R   0.352003 0.342301 0.670463 0.380299
C23   C     C_R   0.852728 0.309326 0.071753 0.234630
C24   C     C_R   0.761107 0.650671 0.368475 0.424430
C25   C     C_R   0.655670 0.667234 0.327741 0.251472
C26   C     C_R   0.545470 0.590486 0.368323 0.479266
C27   C     C_R   0.543678 0.516073 0.461915 -0.220266
C28   C     C_R   0.998346 0.501913 0.328539 0.765328
C29   C     C_R   0.645263 0.485953 0.496721 -0.002105
C30   C     C_R   0.443308 0.468573 0.520379 -0.061056
C31   C     C_R   0.437187 0.380397 0.604263 -0.211976
C32   C     C_R   0.494780 0.314184 0.608735 0.371887
C33   C     C_R   0.613468 0.370996 0.574657 0.284113
C34   C     C_R   0.874738 0.307414 0.984471 0.392473
C35   C     C_R   0.347703 0.503656 0.500523 0.569540
C36   C     C_R   0.249871 0.362422 0.638126 0.014481
C37   C     C_R   0.075102 0.616865 0.168928 0.444974
C38   C     C_R   0.997877 0.511339 0.229378 -0.186263
C39   C     C_R   0.926047 0.410712 0.197823 -0.165059
C40   C     C_R   0.926908 0.411387 0.104741 -0.000758
C41   C     C_R   0.007108 0.515826 0.044121 -0.071160
C42   C     C_R   0.955358 0.411064 0.925224 -0.044466
C43   C     C_R   0.013440 0.516984 0.951767 -0.154842
C44   C     C_R   0.083396 0.622513 0.887031 -0.030411
C45   C     C_R   0.169661 0.719662 0.921800 0.352793
C46   C     C_R   0.171101 0.716564 0.017264 0.345513
Cu1   Cu    Cu3+1 0.098270 0.475420 0.521130 1.024614
Cu2   Cu    Cu3+1 0.901730 0.524580 0.478870 1.089756
H1    H     H_    0.384759 0.800842 0.479145 0.245997
H2    H     H_    0.947032 0.936596 0.634602 0.357147
H3    H     H_    0.674543 0.357094 0.271100 0.366586
H4    H     H_    0.363242 0.017164 0.579306 0.397299
H5    H     H_    0.272660 0.103473 0.887827 0.397693
H6    H     H_    0.284356 0.608693 0.411775 0.367404
H7    H     H_    0.850794 0.740464 0.255539 0.325302
H8    H     H_    0.375142 0.501711 0.331193 0.330487
H9    H     H_    0.736025 0.821771 0.242780 0.328341
H10   H     H_    0.647392 0.098449 0.701355 0.405138
H11   H     H_    0.826985 0.085711 0.207049 0.337558
H12   H     H_    0.899834 0.104943 0.590245 0.210508
H13   H     H_    0.812712 0.140526 0.007568 0.361820
H14   H     H_    0.996695 0.170079 0.785622 0.384550
H15   H     H_    0.998030 0.813172 0.565525 0.362544
H16   H     H_    0.283362 0.884170 0.880949 0.376011
H17   H     H_    0.339179 0.834000 0.028451 0.364374
H18   H     H_    0.175005 0.322067 0.681911 0.201407
H19   H     H_    0.873507 0.330669 0.248414 0.233532
H20   H     H_    0.093924 0.901825 0.384069 0.177794
H21   H     H_    0.118625 0.710407 0.259163 0.305816
H22   H     H_    0.517252 0.351002 0.311524 0.315027
H23   H     H_    0.146361 0.089967 0.300136 0.323365
H24   H     H_    0.451791 0.854843 0.624404 0.361986
N1    N     N_R   0.246280 0.438190 0.553160 -0.284661
N2    N     N_R   0.754320 0.561190 0.447410 -0.196719
O1    O     O_R   0.972510 0.318130 0.526570 -0.591891
O2    O     O_3   0.458706 0.276214 0.295514 -0.632342
O3    O     O_3   0.236981 0.126787 0.307394 -0.631891
O4    O     O_3   0.513586 0.835282 0.613313 -0.651858
O5    O     O_2   0.709166 0.830130 0.765714 -0.156649
O6    O     O_2   0.717955 0.753586 0.642957 -0.222731
O7    O     O_3   0.916947 0.919450 0.696046 -0.451642
O8    O     O_3   0.709338 0.319860 0.331269 -0.738611
O9    O     O_2   0.427362 0.094734 0.732071 -0.143252
O10   O     O_2   0.264572 0.132498 0.623817 -0.262821
O11   O     O_3   0.411726 0.103064 0.555657 -0.545011
O12   O     O_R   0.806530 0.359650 0.490890 -0.513657
O13   O     O_2   0.491024 0.268569 0.819299 -0.183474
O14   O     O_2   0.365201 0.342630 0.850390 -0.185816
O15   O     O_3   0.256033 0.136903 0.819346 -0.459933
O16   O     O_3   0.364376 0.609473 0.435815 -0.683859
O17   O     O_3   0.868834 0.713883 0.324842 -0.711519
O18   O     O_3   0.440460 0.582426 0.309879 -0.598444
O19   O     O_3   0.654918 0.752944 0.245200 -0.624442
O20   O     O_2   0.820678 0.315518 0.661543 -0.287062
O21   O     O_2   0.668964 0.271055 0.755978 -0.186909
O22   O     O_3   0.623157 0.147466 0.642531 -0.502836
O23   O     O_R   0.082980 0.479210 0.647590 -0.534042
O24   O     O_2   0.658661 0.234905 0.165886 -0.230657
O25   O     O_2   0.639111 0.107648 0.075405 -0.186289
O26   O     O_3   0.781149 0.112024 0.231889 -0.526713
O27   O     O_3   0.813812 0.207512 0.952785 -0.584360
O28   O     O_2   0.168265 0.377739 0.819406 -0.254619
O29   O     O_2   0.045730 0.235137 0.950012 -0.246054
O30   O     O_3   0.954307 0.218269 0.779430 -0.463953
O31   O     O_2   0.104145 0.852369 0.735770 -0.177559
O32   O     O_2   0.207596 0.796601 0.655303 -0.323082
O33   O     O_3   0.974669 0.736351 0.613836 -0.499765
O34   O     O_R   0.917000 0.520730 0.611900 -0.494229
O35   O     O_3   0.260521 0.810155 0.865611 -0.615769
O36   O     O_3   0.261280 0.805852 0.055263 -0.610565
O37   O     O_R   0.193470 0.640350 0.509110 -0.603023
O38   O     O_R   0.027490 0.681870 0.473430 -0.522419
O39   O     O_R   0.083000 0.479270 0.388100 -0.614718
O40   O     O_R   0.917020 0.520790 0.352410 -0.525892
O41   O     O_3   0.143661 0.718893 0.198258 -0.629362
S1    S     S_3+6 0.764186 0.862414 0.675254 0.111411
S2    S     S_3+6 0.396934 0.157922 0.633463 0.110955
S3    S     S_3+6 0.370438 0.273466 0.792977 0.124680
S4    S     S_3+6 0.689500 0.283013 0.657642 0.087467
S5    S     S_3+6 0.727504 0.188548 0.135054 0.052384
S6    S     S_3+6 0.040625 0.308088 0.849461 0.090066
S7    S     S_3+6 0.092000 0.757291 0.698041 0.064233

loop_
_geom_bond_atom_site_label_1
_geom_bond_atom_site_label_2
_ccdc_geom_bond_type
C1    C21   S    
C27   C29   A    
O22   S4    S    
C34   C42   A    
C32   S2    S    
C10   O4    S    
C45   C46   A    
C25   O19   S    
C4    O34   A    
C26   C27   A    
C37   C38   A    
C13   C18   A    
H4    O11   S    
H6    O16   S    
C30   C31   A    
C11   C14   A    
C45   O35   S    
C26   O18   S    
C23   C40   A    
C29   C33   A    
C15   C17   A    
C12   C37   A    
H10   O22   S    
H7    O17   S    
C6    C15   A    
H21   O41   S    
O6    S1    D    
O10   S2    D    
C17   O2    S    
H24   O4    S    
O26   S5    S    
O28   S6    D    
C9    C10   A    
O25   S5    D    
H9    O19   S    
C4    O23   A    
C27   C30   A    
H11   O26   S    
C41   C43   A    
C8    C21   A    
H14   O30   S    
C38   C39   A    
C34   O27   S    
C22   C31   A    
C1    O1    A    
Cu2   N2    S    
C24   C25   A    
Cu1   N1    S    
O13   S3    D    
C12   C46   A    
C28   O39   A    
C23   S5    S    
C8    C9    A    
C6    O3    S    
O30   S6    S    
O21   S4    D    
C25   C26   A    
C5    S7    S    
H13   O27   S    
C43   C44   A    
C12   C41   A    
O20   S4    D    
C19   H1    S    
Cu1   Cu2   S    
C28   C38   S    
C23   C34   A    
O32   S7    D    
C17   C18   A    
C13   C21   A    
O11   S2    S    
H3    O8    S    
C28   O40   A    
C37   O41   S    
C30   C35   A    
C7    C16   S    
Cu2   O38   S    
C5    C44   A    
C33   S4    S    
C7    C19   A    
C46   O36   S    
H22   O2    S    
Cu2   O12   S    
C42   C43   A    
H15   O33   S    
C3    C4    S    
O29   S6    D    
C24   O17   S    
H23   O3    S    
C6    C20   A    
C44   C45   A    
C16   O38   A    
Cu2   O40   S    
C2    S6    S    
C1    O12   A    
Cu1   O39   S    
C22   S3    S    
C35   N1    A    
C9    S1    S    
C39   H19   S    
C14   C19   A    
C20   H20   S    
C31   C32   A    
C3    C5    A    
O24   S5    D    
C29   N2    A    
C22   C36   A    
Cu1   O23   S    
C32   C33   A    
O9    S2    D    
C2    C3    A    
Cu1   O1    S    
C8    H12   S    
H5    O15   S    
C11   C13   A    
C24   N2    A    
H16   O35   S    
Cu2   O34   S    
C2    C42   A    
Cu1   O37   S    
O7    S1    S    
C18   O8    S    
O31   S7    D    
C36   H18   S    
H17   O36   S    
C10   C11   A    
C39   C40   A    
C35   O16   S    
H8    O18   S    
O15   S3    S    
C16   O37   A    
C7    C20   A    
C14   C15   A    
C40   C41   A    
O33   S7    S    
O5    S1    D    
O14   S3    D    
C36   N1    A    
H2    O7    S    
