data_mof_unit_23998.cif
_audit_creation_date              2012-12-10T20:46:48-0500
_audit_creation_method            fapswitch 2.2
_symmetry_space_group_name_H-M    P1
_symmetry_Int_Tables_number       1
_space_group_crystal_system       triclinic
_cell_length_a                    12.81957
_cell_length_b                    8.927977
_cell_length_c                    8.114311
_cell_angle_alpha                 89.950885
_cell_angle_beta                  97.505571
_cell_angle_gamma                 89.990242
_cell_volume                      920.748452293

loop_
_atom_site_label
_atom_site_type_symbol
_atom_type_description
_atom_site_fract_x
_atom_site_fract_y
_atom_site_fract_z
_atom_type_partial_charge
Br1   Br    Br    0.788359 0.266545 0.290347 -0.392939
Br2   Br    Br    0.181674 0.772266 0.595987 -0.374426
Br3   Br    Br    0.010139 0.108344 0.311736 -0.323044
Br4   Br    Br    0.041796 0.692300 0.886360 -0.351361
C1    C     C_R   0.499894 0.218023 0.500018 0.934637
C2    C     C_R   0.868256 0.572393 0.681810 -0.251629
C3    C     C_R   0.128702 0.572469 0.541298 0.265846
C4    C     C_R   0.869135 0.391768 0.456365 0.257005
C5    C     C_R   0.028495 0.525269 0.568156 -0.060378
C6    C     C_R   0.979310 0.405501 0.468983 -0.055439
C7    C     C_1   0.499857 0.065209 0.500022 -0.128871
C8    C     C_1   0.499874 0.934795 0.499907 -0.127808
C9    C     C_R   0.499955 0.781975 0.499947 0.950901
C10   C     C_R   0.297835 0.500853 0.467266 0.940277
C11   C     C_R   0.702387 0.492859 0.532851 0.936928
C12   C     C_R   0.815033 0.484181 0.556990 -0.172967
C13   C     C_R   0.186770 0.482021 0.448118 -0.152751
C14   C     C_R   0.042765 0.310894 0.382473 0.364339
C15   C     C_R   0.975015 0.593055 0.689694 0.354554
C16   C     C_R   0.145734 0.351564 0.372668 -0.259974
H1    H     H_    0.825859 0.631321 0.769181 0.204378
H2    H     H_    0.196307 0.276498 0.313987 0.191607
N1    N     N_1   0.500020 0.500000 0.073640 -0.000052
N2    N     N_1   0.499980 0.500000 0.926360 -0.003608
O1    O     O_R   0.499990 0.285340 0.636850 -0.614826
O2    O     O_R   0.500010 0.714660 0.363150 -0.611860
O3    O     O_R   0.500010 0.285340 0.363150 -0.605676
O4    O     O_R   0.499990 0.714660 0.636850 -0.607751
O5    O     O_R   0.346350 0.500000 0.614250 -0.598400
O6    O     O_R   0.653650 0.500000 0.385750 -0.582690
O7    O     O_R   0.346360 0.500000 0.340500 -0.612197
O8    O     O_R   0.653640 0.500000 0.659500 -0.624584
Zn1   Zn    Zn3+2 0.499990 0.500000 0.682780 1.051746
Zn2   Zn    Zn3+2 0.500010 0.500000 0.317220 1.061009

loop_
_geom_bond_atom_site_label_1
_geom_bond_atom_site_label_2
_ccdc_geom_bond_type
N1    N2    T    
C9    O4    A    
Br1   C4    S    
C5    C6    A    
Br2   C3    S    
C10   O7    A    
C7    C8    T    
N1    Zn2   S    
O8    Zn1   S    
O7    Zn2   S    
C11   O8    A    
C4    C12   A    
C2    C15   A    
C2    H1    S    
C10   C13   S    
C6    C14   A    
C1    O1    A    
C16   H2    S    
O4    Zn1   S    
C1    C7    S    
C14   C16   A    
O3    Zn2   S    
C9    O2    A    
O6    Zn2   S    
C10   O5    A    
C2    C12   A    
C11   C12   S    
O5    Zn1   S    
C13   C16   A    
C8    C9    S    
Br3   C14   S    
C4    C6    A    
C5    C15   A    
C11   O6    A    
C3    C5    A    
C1    O3    A    
Br4   C15   S    
O2    Zn2   S    
N2    Zn1   S    
O1    Zn1   S    
C3    C13   A    
