data_mof_unit_10129.cif
_audit_creation_date              2012-10-26T19:22:33-0400
_audit_creation_method            fapswitch 2.2
_symmetry_space_group_name_H-M    P1
_symmetry_Int_Tables_number       1
_space_group_crystal_system       triclinic
_cell_length_a                    11.779555
_cell_length_b                    12.963665
_cell_length_c                    13.883424
_cell_angle_alpha                 86.637742
_cell_angle_beta                  91.256912
_cell_angle_gamma                 99.58017
_cell_volume                      2086.75955966

loop_
_atom_site_label
_atom_site_type_symbol
_atom_type_description
_atom_site_fract_x
_atom_site_fract_y
_atom_site_fract_z
_atom_type_partial_charge
C1    C     C_R   0.479230 0.299240 0.507028 0.580842
C2    C     C_R   0.851854 0.471178 0.551629 0.261320
C3    C     C_R   0.025716 0.518610 0.455338 -0.064875
C4    C     C_R   0.974344 0.481489 0.544725 -0.063983
C5    C     C_R   0.518272 0.500565 0.681628 0.581039
C6    C     C_R   0.481712 0.499439 0.318379 0.583979
C7    C     C_1   0.473942 0.508620 0.215941 0.103007
C8    C     C_1   0.525909 0.491340 0.784084 0.102151
C9    C     C_2   0.479827 0.535135 0.026529 0.175038
C10   C     C_2   0.519199 0.464619 0.973474 0.225651
C11   C     C_1   0.525495 0.480031 0.870417 0.098889
C12   C     C_R   0.520770 0.700760 0.492984 0.579886
C13   C     C_1   0.474023 0.519851 0.129609 0.072943
C14   C     C_R   0.532160 0.814920 0.482814 -0.042129
C15   C     C_R   0.467841 0.185080 0.517210 -0.041897
C16   C     C_R   0.367479 0.011968 0.569153 0.258572
C17   C     C_R   0.632518 0.988030 0.430868 0.259715
C18   C     C_R   0.383320 0.121809 0.575668 0.243724
C19   C     C_R   0.616670 0.878190 0.424349 0.241204
C20   C     C_R   0.545277 0.139677 0.466310 -0.105329
C21   C     C_R   0.454731 0.860322 0.533722 -0.103819
C22   C     C_R   0.545569 0.032272 0.474840 -0.037013
C23   C     C_R   0.454435 0.967727 0.525190 -0.037166
C24   C     C_R   0.047582 0.452907 0.621727 0.183589
C25   C     C_R   0.952484 0.547122 0.378329 0.207263
C26   C     C_R   0.161310 0.442375 0.602078 0.092096
C27   C     C_R   0.838676 0.557458 0.397855 0.107299
C28   C     C_R   0.148189 0.528926 0.448425 0.267196
Cu1   Cu    Cu3+1 0.615220 0.507680 0.492970 1.113038
Cu2   Cu    Cu3+1 0.384780 0.492320 0.507030 1.104535
H1    H     H_    0.394724 0.810151 0.580884 0.214771
H2    H     H_    0.864078 0.213415 0.442001 0.380186
H3    H     H_    0.176687 0.457655 0.826839 0.362094
H4    H     H_    0.883622 0.489378 0.128233 0.410726
H5    H     H_    0.605288 0.189846 0.419152 0.214484
H6    H     H_    0.785939 0.584585 0.340297 0.217505
H7    H     H_    0.214056 0.414919 0.659413 0.188436
H8    H     H_    0.623312 0.214641 0.973707 0.405452
H9    H     H_    0.319866 0.678618 0.081827 0.371441
H10   H     H_    0.770992 0.872116 0.198047 0.397113
H11   H     H_    0.229082 0.127943 0.802007 0.393392
H12   H     H_    0.135960 0.786550 0.558025 0.380773
I1    I     I_    0.766469 0.344828 0.644314 -0.005087
I2    I     I_    0.233637 0.655240 0.355704 -0.040223
N1    N     N_R   0.788370 0.519230 0.482390 -0.283200
N2    N     N_R   0.211630 0.480770 0.517610 -0.272633
O1    O     O_R   0.581500 0.354430 0.495010 -0.502988
O2    O     O_2   0.454838 0.282725 0.073970 -0.238617
O3    O     O_3   0.603986 0.278671 0.939254 -0.450385
O4    O     O_2   0.544333 0.717690 0.927235 -0.196581
O5    O     O_2   0.348040 0.627674 0.899428 -0.234440
O6    O     O_3   0.393432 0.721279 0.059921 -0.415912
O7    O     O_2   0.796610 0.789122 0.378412 -0.243234
O8    O     O_2   0.612828 0.727809 0.297326 -0.297269
O9    O     O_3   0.725091 0.907796 0.240405 -0.401828
O10   O     O_2   0.387028 0.272245 0.702633 -0.304955
O11   O     O_2   0.203287 0.210772 0.621553 -0.245649
O12   O     O_R   0.418500 0.645570 0.504990 -0.501329
O13   O     O_3   0.274899 0.092226 0.759611 -0.400977
O14   O     O_2   0.252074 0.879780 0.703545 -0.190164
O15   O     O_2   0.138590 0.992776 0.608464 -0.141966
O16   O     O_3   0.197989 0.837272 0.526210 -0.512862
O17   O     O_2   0.861393 0.007196 0.391539 -0.141821
O18   O     O_2   0.747921 0.120218 0.296474 -0.202847
O19   O     O_3   0.802031 0.162707 0.473810 -0.513759
O20   O     O_2   0.923840 0.522817 0.758943 -0.194653
O21   O     O_2   0.981336 0.350141 0.790469 -0.218660
O22   O     O_3   0.136629 0.515858 0.803302 -0.438794
O23   O     O_R   0.386890 0.341450 0.506880 -0.446206
O24   O     O_2   0.018046 0.650612 0.210235 -0.210217
O25   O     O_2   0.076207 0.477487 0.241011 -0.239275
O26   O     O_3   0.862912 0.485443 0.197276 -0.469845
O27   O     O_R   0.613110 0.658550 0.493120 -0.448906
O28   O     O_R   0.611060 0.507430 0.631070 -0.481072
O29   O     O_R   0.388940 0.492570 0.368930 -0.486148
O30   O     O_R   0.416450 0.494450 0.642940 -0.500076
O31   O     O_R   0.583550 0.505550 0.357060 -0.489577
O32   O     O_2   0.652275 0.372864 0.099135 -0.230503
S1    S     S_3+6 0.557964 0.347199 0.025485 0.067794
S2    S     S_3+6 0.440839 0.652532 0.974519 0.079168
S3    S     S_3+6 0.689408 0.821806 0.334629 0.102041
S4    S     S_3+6 0.310526 0.178189 0.665358 0.093859
S5    S     S_3+6 0.235392 0.930865 0.605380 0.111818
S6    S     S_3+6 0.764606 0.069123 0.394635 0.108138
S7    S     S_3+6 0.017242 0.458915 0.745855 0.082018
S8    S     S_3+6 0.982905 0.541512 0.254228 0.064686

loop_
_geom_bond_atom_site_label_1
_geom_bond_atom_site_label_2
_ccdc_geom_bond_type
C15   C18   A    
O16   S5    S    
O13   S4    S    
O20   S7    D    
C6    O29   A    
H8    O3    S    
C21   H1    S    
C28   N2    A    
Cu1   O1    S    
O2    S1    D    
C3    C28   A    
C24   C26   A    
C4    C24   A    
O14   S5    D    
Cu1   O27   S    
O7    S3    D    
C5    O28   A    
C9    C13   S    
O5    S2    D    
O18   S6    D    
C17   C19   A    
C20   H5    S    
C1    C15   S    
O9    S3    S    
C9    C10   D    
H12   O16   S    
C12   O12   A    
C27   N1    A    
H9    O6    S    
C12   O27   A    
O22   S7    S    
C2    N1    A    
C15   C20   A    
O21   S7    D    
C3    C25   A    
H11   O13   S    
O15   S5    D    
O32   S1    D    
C1    O1    A    
C6    O31   A    
Cu1   O28   S    
C28   I2    S    
C16   S5    S    
C1    O23   A    
O3    S1    S    
Cu1   N1    S    
C9    S2    S    
C2    C4    A    
Cu1   Cu2   S    
O25   S8    D    
Cu2   O30   S    
C2    I1    S    
H10   O9    S    
C12   C14   S    
C16   C23   A    
C21   C23   A    
C3    C4    A    
O24   S8    D    
H4    O26   S    
Cu2   O23   S    
C14   C21   A    
C24   S7    S    
C22   C23   A    
C14   C19   A    
Cu2   N2    S    
C20   C22   A    
O19   S6    S    
O4    S2    D    
C5    C8    S    
O26   S8    S    
C10   S1    S    
C26   H7    S    
O10   S4    D    
C6    C7    S    
C27   H6    S    
C25   C27   A    
C17   C22   A    
O17   S6    D    
C17   S6    S    
C5    O30   A    
O6    S2    S    
Cu2   O29   S    
C8    C11   T    
Cu2   O12   S    
C25   S8    S    
C18   S4    S    
C10   C11   S    
C26   N2    A    
C7    C13   T    
Cu1   O31   S    
C16   C18   A    
O11   S4    D    
C19   S3    S    
O8    S3    D    
H3    O22   S    
H2    O19   S    
