data_mof_unit_63126.cif
_audit_creation_date              2012-12-10T16:55:15-0500
_audit_creation_method            fapswitch 2.2
_symmetry_space_group_name_H-M    P1
_symmetry_Int_Tables_number       1
_space_group_crystal_system       triclinic
_cell_length_a                    29.373252
_cell_length_b                    30.741612
_cell_length_c                    21.317041
_cell_angle_alpha                 90.157195
_cell_angle_beta                  133.668636
_cell_angle_gamma                 89.723164
_cell_volume                      13923.4222952

loop_
_atom_site_label
_atom_site_type_symbol
_atom_type_description
_atom_site_fract_x
_atom_site_fract_y
_atom_site_fract_z
_atom_type_partial_charge
C1    C     C_R   0.307660 0.190742 0.118461 0.808423
C2    C     C_R   0.692846 0.809293 0.881343 0.808458
C3    C     C_R   0.693478 0.190658 0.881648 0.806557
C4    C     C_R   0.307122 0.809304 0.118709 0.808428
C5    C     C_R   0.807660 0.690742 0.118461 0.808423
C6    C     C_R   0.192846 0.309293 0.881343 0.808458
C7    C     C_R   0.193478 0.690658 0.881648 0.806557
C8    C     C_R   0.807122 0.309304 0.118709 0.808428
C9    C     C_R   0.377635 0.130422 0.322187 0.006846
C10   C     C_R   0.614570 0.867286 0.671292 0.011601
C11   C     C_R   0.659966 0.085495 0.763764 0.048308
C12   C     C_R   0.388921 0.867209 0.330325 0.048045
C13   C     C_R   0.877635 0.630422 0.322187 0.006846
C14   C     C_R   0.114570 0.367286 0.671292 0.011602
C15   C     C_R   0.159965 0.585495 0.763764 0.048308
C16   C     C_R   0.888921 0.367209 0.330325 0.048046
C17   C     C_R   0.340744 0.160754 0.253436 0.095750
C18   C     C_R   0.652406 0.836838 0.739726 0.097542
C19   C     C_R   0.694878 0.119357 0.825330 0.093994
C20   C     C_R   0.350996 0.836438 0.262730 0.096240
C21   C     C_R   0.840744 0.660754 0.253436 0.095750
C22   C     C_R   0.152406 0.336838 0.739726 0.097541
C23   C     C_R   0.194878 0.619357 0.825330 0.093995
C24   C     C_R   0.850996 0.336438 0.262730 0.096240
C25   C     C_R   0.338579 0.157798 0.185330 -0.138581
C26   C     C_R   0.661840 0.842327 0.814006 -0.147771
C27   C     C_R   0.662816 0.157216 0.815412 -0.192821
C28   C     C_R   0.338354 0.842369 0.186042 -0.199503
C29   C     C_R   0.838579 0.657798 0.185330 -0.138582
C30   C     C_R   0.161840 0.342327 0.814006 -0.147771
C31   C     C_R   0.162816 0.657216 0.815412 -0.192821
C32   C     C_R   0.838354 0.342369 0.186042 -0.199503
C33   C     C_R   0.369240 0.124224 0.182683 -0.289790
C34   C     C_R   0.638145 0.878881 0.822623 -0.296889
C35   C     C_R   0.598670 0.162474 0.743367 -0.177396
C36   C     C_R   0.358495 0.879766 0.174304 -0.180571
C37   C     C_R   0.869240 0.624224 0.182683 -0.289789
C38   C     C_R   0.138145 0.378881 0.822623 -0.296889
C39   C     C_R   0.098670 0.662474 0.743367 -0.177395
C40   C     C_R   0.858495 0.379766 0.174304 -0.180571
C41   C     C_R   0.403897 0.093117 0.248328 0.404308
C42   C     C_R   0.603565 0.910282 0.757501 0.397268
C43   C     C_R   0.564134 0.130137 0.681844 0.377544
C44   C     C_R   0.391154 0.911938 0.236838 0.393686
C45   C     C_R   0.903897 0.593117 0.248328 0.404307
C46   C     C_R   0.103565 0.410282 0.757501 0.397268
C47   C     C_R   0.064134 0.630137 0.681844 0.377544
C48   C     C_R   0.891154 0.411938 0.236838 0.393685
C49   C     C_R   0.408019 0.096067 0.317996 -0.157737
C50   C     C_R   0.591763 0.904398 0.682025 -0.159415
C51   C     C_R   0.594736 0.091733 0.690341 -0.203100
C52   C     C_R   0.407523 0.905456 0.316062 -0.217870
C53   C     C_R   0.908019 0.596067 0.317996 -0.157737
C54   C     C_R   0.091763 0.404398 0.682025 -0.159415
C55   C     C_R   0.094736 0.591733 0.690341 -0.203100
C56   C     C_R   0.907523 0.405456 0.316062 -0.217870
C57   C     C_R   0.940734 0.439312 0.381509 0.793675
C58   C     C_R   0.059866 0.560127 0.620023 0.844760
C59   C     C_R   0.058819 0.438709 0.617336 0.858125
C60   C     C_R   0.941397 0.561704 0.383209 0.871569
C61   C     C_R   0.440734 0.939312 0.381509 0.793675
C62   C     C_R   0.559866 0.060127 0.620023 0.844760
C63   C     C_R   0.558819 0.938709 0.617336 0.858125
C64   C     C_R   0.441398 0.061704 0.383209 0.871570
C65   C     C_R   0.334519 0.249927 0.999883 0.786964
C66   C     C_R   0.665486 0.750068 0.000126 0.787366
C67   C     C_R   0.665369 0.250005 0.999916 0.791368
C68   C     C_R   0.334635 0.749990 0.000091 0.790190
C69   C     C_R   0.834519 0.749927 0.999883 0.786964
C70   C     C_R   0.165486 0.250068 0.000126 0.787366
C71   C     C_R   0.165369 0.750005 0.999916 0.791369
C72   C     C_R   0.834635 0.249990 0.000091 0.790190
C73   C     C_1   0.385702 0.249941 0.999677 -0.187222
C74   C     C_1   0.614324 0.750035 0.000372 -0.188304
C75   C     C_1   0.613963 0.250116 0.999678 -0.186141
C76   C     C_1   0.386054 0.749860 0.000355 -0.185668
C77   C     C_1   0.885702 0.749941 0.999677 -0.187222
C78   C     C_1   0.114324 0.250035 0.000372 -0.188304
C79   C     C_1   0.113963 0.750116 0.999678 -0.186141
C80   C     C_1   0.886054 0.249860 0.000355 -0.185668
C81   C     C_1   0.428141 0.249984 0.999584 0.002868
C82   C     C_1   0.571897 0.749979 0.000489 0.002707
C83   C     C_1   0.571435 0.250128 0.999596 0.004012
C84   C     C_1   0.428596 0.749833 0.000465 0.004221
C85   C     C_1   0.928141 0.749984 0.999584 0.002868
C86   C     C_1   0.071897 0.249979 0.000489 0.002707
C87   C     C_1   0.071435 0.750128 0.999596 0.004012
C88   C     C_1   0.928596 0.249833 0.000465 0.004221
C89   C     C_1   0.478523 0.250046 0.999547 0.005920
C90   C     C_1   0.521522 0.749909 0.000538 0.005689
C91   C     C_1   0.521013 0.250093 0.999553 0.006301
C92   C     C_1   0.479029 0.749861 0.000528 0.006292
C93   C     C_1   0.978523 0.750046 0.999547 0.005920
C94   C     C_1   0.021521 0.249909 0.000538 0.005689
C95   C     C_1   0.021013 0.750093 0.999553 0.006301
C96   C     C_1   0.979029 0.249861 0.000528 0.006292
C97   C     C_R   0.306386 0.192877 0.254129 -0.145804
C98   C     C_R   0.680437 0.802248 0.732301 -0.147187
C99   C     C_R   0.760907 0.114665 0.893969 -0.143121
C100  C     C_R   0.326143 0.801123 0.273525 -0.142385
C101  C     C_R   0.806386 0.692877 0.254128 -0.145804
C102  C     C_R   0.180437 0.302248 0.732301 -0.147188
C103  C     C_R   0.260907 0.614665 0.893969 -0.143120
C104  C     C_R   0.826143 0.301123 0.273525 -0.142385
C105  C     C_R   0.311743 0.196597 0.324130 -0.147210
C106  C     C_R   0.667093 0.796077 0.656192 -0.138634
C107  C     C_R   0.790844 0.076067 0.905026 -0.139548
C108  C     C_R   0.343242 0.794350 0.352133 -0.141284
C109  C     C_R   0.811743 0.696597 0.324129 -0.147211
C110  C     C_R   0.167093 0.296077 0.656192 -0.138634
C111  C     C_R   0.290844 0.576067 0.905026 -0.139548
C112  C     C_R   0.843242 0.294350 0.352132 -0.141285
C113  C     C_R   0.351120 0.168556 0.394378 -0.103138
C114  C     C_R   0.626070 0.824169 0.586435 -0.119891
C115  C     C_R   0.755909 0.041583 0.848186 -0.136013
C116  C     C_R   0.384817 0.822597 0.421080 -0.126949
C117  C     C_R   0.851120 0.668556 0.394378 -0.103137
C118  C     C_R   0.126070 0.324169 0.586435 -0.119891
C119  C     C_R   0.255909 0.541583 0.848186 -0.136014
C120  C     C_R   0.884816 0.322597 0.421079 -0.126949
C121  C     C_R   0.383771 0.135825 0.393708 -0.118525
C122  C     C_R   0.600031 0.859522 0.593578 -0.154655
C123  C     C_R   0.691167 0.046055 0.778172 -0.123134
C124  C     C_R   0.407408 0.858779 0.410611 -0.145044
C125  C     C_R   0.883771 0.635824 0.393708 -0.118525
C126  C     C_R   0.100031 0.359522 0.593578 -0.154656
C127  C     C_R   0.191167 0.546055 0.778172 -0.123135
C128  C     C_R   0.907407 0.358779 0.410611 -0.145044
Cu1   Cu    Cu3+1 0.280720 0.280980 0.061500 0.961814
Cu2   Cu    Cu3+1 0.719280 0.719020 0.938500 0.960282
Cu3   Cu    Cu3+1 0.719280 0.280980 0.938500 0.971604
Cu4   Cu    Cu3+1 0.280720 0.719020 0.061500 0.952977
Cu5   Cu    Cu3+1 0.780720 0.780980 0.061500 0.961814
Cu6   Cu    Cu3+1 0.219280 0.219020 0.938500 0.960282
Cu7   Cu    Cu3+1 0.219280 0.780980 0.938500 0.971604
Cu8   Cu    Cu3+1 0.780720 0.219020 0.061500 0.952977
Cu9   Cu    Cu3+1 0.042420 0.500000 0.499930 0.993757
Cu10  Cu    Cu3+1 0.957580 0.500000 0.500070 0.974592
Cu11  Cu    Cu3+1 0.542420 0.000000 0.499930 0.993756
Cu12  Cu    Cu3+1 0.457580 0.000000 0.500070 0.974592
H1    H     H_    0.366851 0.122655 0.129632 0.150485
H2    H     H_    0.645936 0.882674 0.880018 0.155573
H3    H     H_    0.574321 0.191532 0.736215 0.180322
H4    H     H_    0.348282 0.884318 0.115186 0.184371
H5    H     H_    0.866851 0.622655 0.129632 0.150485
H6    H     H_    0.145936 0.382674 0.880018 0.155573
H7    H     H_    0.074321 0.691532 0.736215 0.180323
H8    H     H_    0.848282 0.384317 0.115186 0.184371
O1    O     O_R   0.321010 0.231060 0.142100 -0.580012
O2    O     O_R   0.678990 0.768940 0.857900 -0.583857
O3    O     O_R   0.678990 0.231060 0.857900 -0.576721
O4    O     O_R   0.321010 0.768940 0.142100 -0.582600
O5    O     O_R   0.821010 0.731060 0.142100 -0.580012
O6    O     O_R   0.178990 0.268940 0.857900 -0.583857
O7    O     O_R   0.178990 0.731060 0.857900 -0.576721
O8    O     O_R   0.821010 0.268940 0.142100 -0.582600
O9    O     O_R   0.269040 0.178650 0.038140 -0.573765
O10   O     O_R   0.730960 0.821350 0.961860 -0.575746
O11   O     O_R   0.730960 0.178650 0.961860 -0.579948
O12   O     O_R   0.269040 0.821350 0.038140 -0.576411
O13   O     O_R   0.769040 0.678650 0.038140 -0.573765
O14   O     O_R   0.230960 0.321350 0.961860 -0.575746
O15   O     O_R   0.230960 0.678650 0.961860 -0.579948
O16   O     O_R   0.769040 0.321350 0.038140 -0.576411
O17   O     O_R   0.337910 0.276140 0.051940 -0.557925
O18   O     O_R   0.662090 0.723860 0.948060 -0.557365
O19   O     O_R   0.662090 0.276140 0.948060 -0.560372
O20   O     O_R   0.337910 0.723860 0.051940 -0.570967
O21   O     O_R   0.837910 0.776140 0.051940 -0.557925
O22   O     O_R   0.162090 0.223860 0.948060 -0.557365
O23   O     O_R   0.162090 0.776140 0.948060 -0.560372
O24   O     O_R   0.837910 0.223860 0.051940 -0.570967
O25   O     O_R   0.285940 0.223740 0.947980 -0.573039
O26   O     O_R   0.714060 0.776260 0.052020 -0.571743
O27   O     O_R   0.714060 0.223740 0.052020 -0.569241
O28   O     O_R   0.285940 0.776260 0.947980 -0.558940
O29   O     O_R   0.785940 0.723740 0.947980 -0.573039
O30   O     O_R   0.214060 0.276260 0.052020 -0.571743
O31   O     O_R   0.214060 0.723740 0.052020 -0.569241
O32   O     O_R   0.785940 0.276260 0.947980 -0.558940
O33   O     O_R   0.990910 0.454660 0.410130 -0.576240
O34   O     O_R   0.009090 0.545340 0.589870 -0.596274
O35   O     O_R   0.009090 0.454660 0.589870 -0.547225
O36   O     O_R   0.990910 0.545340 0.410130 -0.531443
O37   O     O_R   0.490910 0.954660 0.410130 -0.576240
O38   O     O_R   0.509090 0.045340 0.589870 -0.596274
O39   O     O_R   0.509090 0.954660 0.589870 -0.547225
O40   O     O_R   0.490910 0.045340 0.410130 -0.531444
O41   O     O_R   0.919170 0.454670 0.410130 -0.587870
O42   O     O_R   0.080830 0.545330 0.589870 -0.593391
O43   O     O_R   0.080830 0.454670 0.589870 -0.613292
O44   O     O_R   0.919170 0.545330 0.410130 -0.614604
O45   O     O_R   0.419170 0.954670 0.410130 -0.587870
O46   O     O_R   0.580830 0.045330 0.589870 -0.593392
O47   O     O_R   0.580830 0.954670 0.589870 -0.613292
O48   O     O_R   0.419170 0.045330 0.410130 -0.614604
H9    H     H_    0.274590 0.215078 0.200515 0.139915
H10   H     H_    0.713630 0.780069 0.785232 0.144554
H11   H     H_    0.790262 0.140791 0.938880 0.144773
H12   H     H_    0.292479 0.778840 0.221418 0.148138
H13   H     H_    0.774590 0.715078 0.200515 0.139915
H14   H     H_    0.213630 0.280069 0.785232 0.144554
H15   H     H_    0.290262 0.640791 0.938880 0.144773
H16   H     H_    0.792478 0.278840 0.221418 0.148138
H17   H     H_    0.285560 0.221519 0.324092 0.139993
H18   H     H_    0.688433 0.769237 0.651191 0.137340
H19   H     H_    0.841324 0.072818 0.958263 0.139001
H20   H     H_    0.324371 0.766931 0.359675 0.139314
H21   H     H_    0.785560 0.721519 0.324091 0.139993
H22   H     H_    0.188433 0.269237 0.651191 0.137339
H23   H     H_    0.341324 0.572818 0.958263 0.139001
H24   H     H_    0.824370 0.266932 0.359674 0.139314
H25   H     H_    0.356125 0.171971 0.449451 0.151790
H26   H     H_    0.614896 0.818838 0.526844 0.138400
H27   H     H_    0.779125 0.011338 0.857938 0.139443
H28   H     H_    0.398939 0.816817 0.482580 0.140301
H29   H     H_    0.856125 0.671971 0.449451 0.151790
H30   H     H_    0.114896 0.318838 0.526844 0.138400
H31   H     H_    0.279125 0.511338 0.857938 0.139444
H32   H     H_    0.898938 0.316817 0.482579 0.140301
H33   H     H_    0.414189 0.115369 0.450246 0.168932
H34   H     H_    0.568092 0.880266 0.537367 0.138257
H35   H     H_    0.666056 0.018082 0.736601 0.153431
H36   H     H_    0.439665 0.879731 0.466225 0.133505
H37   H     H_    0.914189 0.615369 0.450246 0.168932
H38   H     H_    0.068092 0.380266 0.537367 0.138257
H39   H     H_    0.166056 0.518082 0.736601 0.153431
H40   H     H_    0.939665 0.379731 0.466224 0.133506
O49   O     O_3   0.433367 0.059214 0.245124 -0.716244
H41   H     H_    0.425297 0.061802 0.191781 0.332730
O50   O     O_3   0.581563 0.947281 0.766583 -0.724183
H42   H     H_    0.594399 0.946502 0.823511 0.323374
O51   O     O_3   0.500947 0.138073 0.612992 -0.754230
H43   H     H_    0.477817 0.111687 0.603565 0.328438
O52   O     O_3   0.405421 0.949088 0.216999 -0.703357
H44   H     H_    0.413782 0.973387 0.254169 0.355875
O53   O     O_3   0.933367 0.559214 0.245124 -0.716243
H45   H     H_    0.925297 0.561802 0.191781 0.332730
O54   O     O_3   0.081563 0.447281 0.766583 -0.724183
H46   H     H_    0.094399 0.446502 0.823511 0.323374
O55   O     O_3   0.000947 0.638073 0.612992 -0.754230
H47   H     H_    0.977818 0.611687 0.603565 0.328438
O56   O     O_3   0.905422 0.449088 0.216999 -0.703357
H48   H     H_    0.913781 0.473387 0.254169 0.355875

loop_
_geom_bond_atom_site_label_1
_geom_bond_atom_site_label_2
_ccdc_geom_bond_type
C2    O2    A    
C119  H31   S    
C3    C27   S    
C88   C96   S    
C82   C90   S    
C60   O36   A    
Cu6   O25   S    
Cu12  O38   S    
C70   C78   S    
C121  H33   S    
Cu3   O32   S    
C69   C77   S    
C114  H26   S    
C59   O43   A    
O54   H46   S    
C34   C42   A    
C17   C97   A    
C113  H25   S    
C108  C116  A    
C108  H20   S    
C75   C83   T    
C110  C118  A    
C71   C79   S    
C68   O28   A    
C109  C117  A    
Cu9   O36   S    
C126  H38   S    
C112  C120  A    
Cu1   O1    S    
C11   C19   A    
C36   H4    S    
C116  H28   S    
C106  C114  A    
Cu5   O5    S    
C72   O24   A    
C111  C119  A    
C7    C31   S    
C69   O29   A    
Cu5   O10   S    
C52   C61   S    
C120  C128  A    
Cu8   O8    S    
C109  H21   S    
Cu9   O33   S    
C21   C101  A    
C101  C109  A    
O56   H48   S    
C66   C74   S    
C65   O17   A    
C65   C73   S    
C56   C57   S    
C30   C38   A    
C103  C111  A    
O55   H47   S    
C71   O31   A    
C112  H24   S    
Cu5   O21   S    
C93   C95   T    
C38   H6    S    
C86   C94   S    
C12   C52   A    
Cu9   O43   S    
Cu8   O11   S    
C85   C93   S    
C26   C34   A    
C23   C103  A    
Cu2   O2    S    
Cu8   O24   S    
C67   O27   A    
Cu1   Cu6   S    
C87   C95   S    
C118  H30   S    
C9    C121  A    
O52   H44   S    
C117  H29   S    
C98   C106  A    
C4    O12   A    
Cu7   O23   S    
C89   C91   T    
C35   C43   A    
O51   H43   S    
C107  H19   S    
C46   C54   A    
Cu11  O46   S    
C120  H32   S    
Cu9   Cu10  S    
C62   O38   A    
C97   C105  A    
C42   O50   S    
C78   C86   T    
C7    O7    A    
C15   C23   A    
Cu8   O27   S    
Cu3   O19   S    
C16   C24   A    
C49   C64   S    
C15   C127  A    
C79   C87   T    
C3    O11   A    
C50   C63   S    
C76   C84   T    
C110  H22   S    
C51   C62   S    
C122  H34   S    
C16   C56   A    
C74   C82   T    
C48   O56   S    
C125  H37   S    
C57   O33   A    
C4    C28   S    
C53   C60   S    
Cu11  O47   S    
C111  H23   S    
C54   C59   S    
C4    O4    A    
C11   C123  A    
C100  C108  A    
C115  C123  A    
C98   H10   S    
C13   C21   A    
C8    C32   S    
C6    O14   A    
C9    C49   A    
Cu3   Cu8   S    
C43   O51   S    
Cu7   O7    S    
C47   O55   S    
C66   O18   A    
C70   O30   A    
C20   C28   A    
C33   H1    S    
C39   C47   A    
C21   C29   A    
C45   C53   A    
C99   C107  A    
C104  C112  A    
C24   C104  A    
C15   C55   A    
C59   O35   A    
C24   C32   A    
C13   C53   A    
C57   O41   A    
O49   H41   S    
Cu2   O29   S    
C97   H9    S    
C27   C35   A    
Cu2   O18   S    
C90   C92   T    
C12   C124  A    
C128  H40   S    
Cu5   O26   S    
C29   C37   A    
C18   C26   A    
C12   C20   A    
C45   O53   S    
C61   O37   A    
C104  H16   S    
Cu10  O34   S    
C115  H27   S    
C2    C26   S    
C69   O21   A    
C46   O54   S    
C94   C96   T    
Cu10  O35   S    
C16   C128  A    
C107  C115  A    
C6    O6    A    
C73   C81   T    
C127  H39   S    
C68   O20   A    
Cu2   O13   S    
C9    C17   A    
C6    C30   S    
C42   C50   A    
C63   O39   A    
C8    O16   A    
Cu4   O4    S    
C71   O23   A    
C60   O44   A    
C102  C110  A    
Cu10  O41   S    
C67   C75   S    
C62   O46   A    
C37   C45   A    
Cu11  O40   S    
C10   C50   A    
C5    C29   S    
C61   O45   A    
C19   C27   A    
C47   C55   A    
Cu12  O45   S    
C105  C113  A    
C48   C56   A    
C40   C48   A    
C34   H2    S    
C40   H8    S    
C19   C99   A    
Cu7   O12   S    
C22   C30   A    
C65   O25   A    
Cu12  O39   S    
C36   C44   A    
Cu10  O44   S    
C58   O42   A    
Cu4   O20   S    
C41   O49   S    
C17   C25   A    
C10   C122  A    
C64   O48   A    
C22   C102  A    
C44   C52   A    
C106  H18   S    
Cu11  Cu12  S    
Cu12  O48   S    
C105  H17   S    
C118  C126  A    
C68   C76   S    
C41   C49   A    
C84   C92   S    
Cu1   O30   S    
C3    O3    A    
C123  H35   S    
C14   C126  A    
Cu1   O17   S    
C58   O34   A    
C14   C54   A    
C33   C41   A    
Cu7   O28   S    
C14   C22   A    
C39   H7    S    
C70   O22   A    
Cu4   O15   S    
C81   C89   S    
C20   C100  A    
C80   C88   T    
C101  H13   S    
C44   O52   S    
C67   O19   A    
Cu11  O37   S    
C43   C51   A    
Cu6   O6    S    
C7    O15   A    
Cu3   O16   S    
C10   C18   A    
Cu4   Cu7   S    
C5    O5    A    
O53   H45   S    
C83   C91   S    
C1    O9    A    
C31   C39   A    
Cu3   O3    S    
C63   O47   A    
C32   C40   A    
C11   C51   A    
C102  H14   S    
C8    O8    A    
C103  H15   S    
C64   O40   A    
C38   C46   A    
C25   C33   A    
C100  H12   S    
Cu4   O31   S    
C77   C85   T    
Cu9   O42   S    
C114  C122  A    
Cu6   O9    S    
C113  C121  A    
C2    O10   A    
C28   C36   A    
C72   C80   S    
Cu6   O22   S    
C55   C58   S    
C99   H11   S    
O50   H42   S    
Cu2   Cu5   S    
C124  H36   S    
C72   O32   A    
C66   O26   A    
C1    O1    A    
C5    O13   A    
C18   C98   A    
C37   H5    S    
C116  C124  A    
Cu1   O14   S    
C117  C125  A    
C13   C125  A    
C1    C25   S    
C35   H3    S    
C23   C31   A    
C119  C127  A    
