data_mof_unit_41856.cif
_audit_creation_date              2012-12-10T17:22:02-0500
_audit_creation_method            fapswitch 2.2
_symmetry_space_group_name_H-M    P1
_symmetry_Int_Tables_number       1
_space_group_crystal_system       triclinic
_cell_length_a                    10.165284
_cell_length_b                    10.824884
_cell_length_c                    15.744489
_cell_angle_alpha                 90.364338
_cell_angle_beta                  81.45413
_cell_angle_gamma                 95.122462
_cell_volume                      1706.37241167

loop_
_atom_site_label
_atom_site_type_symbol
_atom_type_description
_atom_site_fract_x
_atom_site_fract_y
_atom_site_fract_z
_atom_type_partial_charge
C1    C     C_R   0.555892 0.731158 0.501046 0.889718
C2    C     C_2   0.525943 0.942590 0.490438 0.434841
C3    C     C_2   0.416367 0.133491 0.512114 0.234937
C4    C     C_R   0.500191 0.499650 0.661568 0.852465
C5    C     C_2   0.517519 0.067044 0.526456 0.338817
C6    C     C_2   0.923938 0.494690 0.516079 -0.046786
C7    C     C_2   0.071721 0.483689 0.497146 0.767164
C8    C     C_R   0.444518 0.267200 0.508512 0.867664
C9    C     C_R   0.499643 0.499815 0.338449 0.901527
C10   C     C_3   0.405602 0.601173 0.957720 0.781028
C11   C     C_3   0.639405 0.527242 0.937681 -0.649293
C12   C     C_3   0.410172 0.605079 0.058528 0.852730
C13   C     C_3   0.642858 0.521489 0.035616 1.009429
C14   C     C_1   0.498640 0.499660 0.249730 -0.105631
C15   C     C_3   0.494507 0.497300 0.918027 -0.120367
C16   C     C_3   0.169845 0.550552 0.092887 -0.246294
C17   C     C_3   0.743611 0.123189 0.527833 -0.162197
C18   C     C_3   0.213131 0.027244 0.545489 -0.164846
C19   C     C_3   0.735764 0.812795 0.618805 -0.249753
C20   C     C_3   0.367127 0.805989 0.926133 -0.087175
C21   C     C_3   0.858563 0.325922 0.351744 -0.051929
C22   C     C_3   0.845893 0.636169 0.049121 -0.161791
C23   C     C_3   0.495904 0.500364 0.082958 -0.153883
C24   C     C_3   0.253805 0.216982 0.948170 -0.255273
C25   C     C_3   0.556880 0.177575 0.955040 -0.286735
C26   C     C_3   0.436607 0.371546 0.055941 -0.744873
C27   C     C_3   0.439511 0.364358 0.955127 0.968709
C28   C     C_1   0.497447 0.499777 0.174586 0.227297
C29   C     C_1   0.498605 0.498030 0.825755 0.233271
C30   C     C_1   0.500351 0.498789 0.750344 -0.123631
C31   C     C_2   0.585887 0.857317 0.527427 0.188587
F1    F     F_    0.479901 0.717036 0.074435 -0.599834
F2    F     F_    0.279431 0.573665 0.934698 -0.695765
F3    F     F_    0.470717 0.914643 0.417902 -0.634512
F4    F     F_    0.117986 0.396655 0.440525 -0.649089
F5    F     F_    0.109632 0.634508 0.591386 -0.632659
F6    F     F_    0.711090 0.420770 0.053808 -0.713969
H1    H     H_    0.490373 0.299994 0.082531 0.239852
H2    H     H_    0.802483 0.055497 0.554314 0.185947
H3    H     H_    0.794949 0.216116 0.536331 0.176608
H4    H     H_    0.180704 0.097757 0.594150 0.129119
H5    H     H_    0.253544 0.949591 0.576436 0.173333
H6    H     H_    0.123325 0.988334 0.518772 0.194255
H7    H     H_    0.813349 0.813805 0.560793 0.162795
H8    H     H_    0.698174 0.716599 0.639062 0.176289
H9    H     H_    0.784587 0.855430 0.671711 0.197310
H10   H     H_    0.308655 0.808809 0.991608 0.175830
H11   H     H_    0.298749 0.788192 0.877657 0.184271
H12   H     H_    0.882754 0.535742 0.576121 0.115928
H13   H     H_    0.421147 0.898939 0.912258 0.147507
H14   H     H_    0.887669 0.325568 0.280995 0.151782
H15   H     H_    0.748990 0.303203 0.365411 0.160723
H16   H     H_    0.911193 0.253566 0.379103 0.142842
H17   H     H_    0.884420 0.607744 0.982682 0.159231
H18   H     H_    0.879953 0.576130 0.096951 0.188409
H19   H     H_    0.889079 0.732286 0.058089 0.169578
H20   H     H_    0.254709 0.184657 0.014816 0.137634
H21   H     H_    0.305526 0.155064 0.900241 0.190924
H22   H     H_    0.147728 0.210779 0.938117 0.192588
H23   H     H_    0.706768 0.460800 0.904250 0.243038
H24   H     H_    0.592052 0.106362 0.908184 0.203878
H25   H     H_    0.470375 0.132426 0.998446 0.145383
H26   H     H_    0.640975 0.205969 0.990553 0.230559
H27   H     H_    0.679785 0.620676 0.911787 0.231757
H28   H     H_    0.333571 0.352567 0.090094 0.205497
H29   H     H_    0.181552 0.462440 0.058174 0.212075
H30   H     H_    0.125316 0.618139 0.055537 0.196188
H31   H     H_    0.097448 0.528302 0.151870 0.193610
H32   H     H_    0.746729 0.107172 0.457605 0.092649
N1    N     N_2   0.842720 0.448890 0.465540 0.053146
N2    N     N_2   0.157250 0.551040 0.534500 0.083869
O1    O     O_R   0.431050 0.692470 0.506940 -0.553363
O2    O     O_3   0.613055 0.118555 0.574993 -0.586536
O3    O     O_3   0.306600 0.081180 0.477837 -0.554531
O4    O     O_3   0.629186 0.882374 0.606400 -0.608903
O5    O     O_3   0.461639 0.716815 0.919256 -0.608649
O6    O     O_3   0.899081 0.443018 0.382601 -0.488870
O7    O     O_3   0.705369 0.634255 0.063777 -0.567955
O8    O     O_3   0.307104 0.341439 0.935097 -0.583539
O9    O     O_3   0.525014 0.279440 0.908776 -0.616561
O10   O     O_R   0.651130 0.659650 0.484820 -0.635788
O11   O     O_R   0.389910 0.516410 0.633920 -0.575662
O12   O     O_R   0.609990 0.483590 0.611800 -0.642667
O13   O     O_R   0.348870 0.340350 0.515180 -0.575290
O14   O     O_R   0.568950 0.307530 0.493060 -0.633522
O15   O     O_R   0.390010 0.516410 0.388200 -0.552463
O16   O     O_R   0.610090 0.483590 0.366080 -0.602356
O17   O     O_3   0.288546 0.605947 0.117822 -0.593289
Zn1   Zn    Zn3+2 0.353060 0.521920 0.514770 1.132020
Zn2   Zn    Zn3+2 0.646940 0.478080 0.485230 0.991616

loop_
_geom_bond_atom_site_label_1
_geom_bond_atom_site_label_2
_ccdc_geom_bond_type
C17   H32   S    
C25   O9    S    
C19   H9    S    
C22   H17   S    
C12   C23   S    
C20   O5    S    
C26   C27   S    
O11   Zn1   S    
C27   O8    S    
C10   C15   S    
C18   H5    S    
C7    N2    D    
C1    O10   A    
C1    C31   S    
C13   C23   S    
C8    O14   A    
C25   H26   S    
C23   C26   S    
C3    O3    S    
C17   H2    S    
C20   H13   S    
C10   O5    S    
C24   H20   S    
C16   H31   S    
C13   F6    S    
F5    N2    S    
C2    F3    S    
C18   O3    S    
C12   F1    S    
N1    O6    S    
C17   O2    S    
N1    Zn2   S    
C11   C15   S    
C15   C29   S    
C15   C27   S    
C3    C8    S    
C1    O1    A    
C12   O17   S    
C22   O7    S    
C11   H27   S    
C18   H4    S    
C26   H1    S    
C22   H19   S    
C2    C31   D    
C17   H3    S    
C9    C14   S    
C29   C30   T    
C9    O15   A    
C24   O8    S    
C31   O4    S    
N2    Zn1   S    
C16   H30   S    
C25   H24   S    
C23   C28   S    
C22   H18   S    
C10   C12   S    
O10   Zn2   S    
C27   O9    S    
C2    C5    S    
C16   H29   S    
O13   Zn1   S    
C11   H23   S    
C21   H14   S    
C19   H7    S    
C6    N1    D    
O12   Zn2   S    
C13   O7    S    
C20   H11   S    
C8    O13   A    
C26   H28   S    
C7    F4    S    
C3    C5    D    
O15   Zn1   S    
O14   Zn2   S    
C19   H8    S    
C6    C7    S    
C19   O4    S    
C18   H6    S    
C9    O16   A    
C21   H16   S    
O1    Zn1   S    
C11   C13   S    
C4    O12   A    
C24   H22   S    
C10   F2    S    
C25   H25   S    
C6    H12   S    
C5    O2    S    
C20   H10   S    
C4    O11   A    
C24   H21   S    
O16   Zn2   S    
C21   O6    S    
C16   O17   S    
C14   C28   T    
C21   H15   S    
C4    C30   S    
