data_mof_unit_57493.cif
_audit_creation_date              2012-12-10T18:58:11-0500
_audit_creation_method            fapswitch 2.2
_symmetry_space_group_name_H-M    P1
_symmetry_Int_Tables_number       1
_space_group_crystal_system       triclinic
_cell_length_a                    11.065489
_cell_length_b                    10.834002
_cell_length_c                    9.549986
_cell_angle_alpha                 90.436407
_cell_angle_beta                  102.05015
_cell_angle_gamma                 91.105411
_cell_volume                      1119.37099231

loop_
_atom_site_label
_atom_site_type_symbol
_atom_type_description
_atom_site_fract_x
_atom_site_fract_y
_atom_site_fract_z
_atom_type_partial_charge
C1    C     C_R   0.499965 0.262366 0.499576 0.807828
C2    C     C_R   0.508850 0.129448 0.501511 -0.098409
C3    C     C_R   0.538063 0.064352 0.385573 -0.213294
C4    C     C_R   0.540248 0.935556 0.387173 -0.201684
C5    C     C_R   0.515121 0.870980 0.505665 -0.113526
C6    C     C_R   0.504927 0.937520 0.628502 0.051812
C7    C     C_3   0.412070 0.926573 0.722198 -0.244024
C8    C     C_3   0.403140 0.067263 0.716217 -0.233161
C9    C     C_R   0.608048 0.512603 0.099705 0.300668
C10   C     C_R   0.394717 0.475451 0.048487 -0.080318
C11   C     C_R   0.394680 0.475664 0.900027 -0.086872
C12   C     C_R   0.263182 0.497833 0.442452 0.865202
C13   C     C_R   0.608251 0.511214 0.952555 0.268228
C14   C     C_3   0.700528 0.615049 0.968219 -0.489324
C15   C     C_3   0.698241 0.618760 0.126784 -0.483477
C16   C     C_R   0.502997 0.737674 0.501273 0.797411
C17   C     C_R   0.736778 0.496234 0.557137 0.859352
C18   C     C_2   0.129352 0.485574 0.410394 -0.338414
C19   C     C_2   0.067780 0.478298 0.516730 -0.187551
C20   C     C_2   0.871447 0.494708 0.586659 -0.419818
C21   C     C_2   0.934186 0.456732 0.488235 0.015950
C22   C     C_R   0.497154 0.064255 0.623474 0.064667
Cu1   Cu    Cu3+1 0.499990 0.499980 0.640670 0.948130
Cu2   Cu    Cu3+1 0.500010 0.500020 0.359330 0.955797
H1    H     H_    0.441826 0.115292 0.820011 0.154207
H2    H     H_    0.308920 0.456603 0.081968 0.142825
H3    H     H_    0.308899 0.457072 0.824668 0.137363
H4    H     H_    0.790479 0.584674 0.947001 0.191511
H5    H     H_    0.663618 0.698557 0.909034 0.230923
H6    H     H_    0.788004 0.594005 0.195647 0.201466
H7    H     H_    0.657463 0.703743 0.161291 0.223810
H8    H     H_    0.116074 0.490609 0.627559 0.166740
H9    H     H_    0.920735 0.533272 0.688574 0.138957
H10   H     H_    0.081501 0.478219 0.298974 0.149267
H11   H     H_    0.554223 0.112067 0.291706 0.177154
H12   H     H_    0.556613 0.886890 0.293674 0.183661
H13   H     H_    0.327264 0.873236 0.670711 0.150103
N1    N     N_R   0.500780 0.500930 0.148120 -0.188027
N2    N     N_R   0.500790 0.500890 0.852210 -0.186041
O1    O     O_R   0.500000 0.319640 0.618810 -0.578950
O2    O     O_R   0.500010 0.319680 0.381230 -0.584319
O3    O     O_R   0.320680 0.500000 0.575130 -0.587494
O4    O     O_R   0.320690 0.500040 0.337550 -0.593158
O5    O     O_R   0.499990 0.680320 0.618770 -0.578538
O6    O     O_R   0.500000 0.680360 0.381190 -0.577930
O7    O     O_R   0.679310 0.499960 0.662450 -0.585740
O8    O     O_R   0.679320 0.500000 0.424870 -0.570675
C23   C     C_1   0.875348 0.389184 0.358788 0.270701
N3    N     N_1   0.829268 0.334663 0.256188 -0.329363
C24   C     C_1   0.465143 0.883839 0.867182 0.284451
N4    N     N_1   0.505360 0.851514 0.982304 -0.332840
C25   C     C_R   0.274357 0.108010 0.646615 0.162643
C26   C     C_R   0.207310 0.177092 0.728387 -0.142283
C27   C     C_R   0.082258 0.199884 0.676026 -0.145771
C28   C     C_R   0.023245 0.154856 0.541192 -0.081682
C29   C     C_R   0.089954 0.090387 0.456447 -0.141249
C30   C     C_R   0.214825 0.066589 0.508652 -0.162901
H14   H     H_    0.250513 0.209403 0.835024 0.110138
H15   H     H_    0.030552 0.250832 0.740962 0.130333
H16   H     H_    0.925590 0.169394 0.502700 0.136022
H17   H     H_    0.044139 0.056251 0.351605 0.138893
H18   H     H_    0.263501 0.012108 0.443574 0.140619

loop_
_geom_bond_atom_site_label_1
_geom_bond_atom_site_label_2
_ccdc_geom_bond_type
C10   N1    A    
C2    C22   A    
C23   N3    T    
C8    C22   S    
C28   C29   A    
C4    H12   S    
C15   H7    S    
C6    C7    S    
C8    H1    S    
C11   H3    S    
C16   O5    A    
Cu2   N1    S    
C14   C15   S    
C3    H11   S    
C26   H14   S    
C21   C23   S    
C28   H16   S    
C10   H2    S    
C24   N4    T    
C7    H13   S    
C7    C8    S    
Cu1   O7    S    
C13   C14   S    
C25   C26   A    
C11   N2    A    
Cu2   O2    S    
C18   H10   S    
C4    C5    A    
Cu1   O3    S    
Cu1   N2    S    
C19   H8    S    
C1    O2    A    
C9    N1    A    
C19   C21   S    
C2    C3    A    
C12   O4    A    
C27   H15   S    
C9    C15   S    
C5    C6    A    
C13   N2    A    
C10   C11   A    
Cu2   O6    S    
C16   O6    A    
C12   O3    A    
Cu1   O1    S    
C6    C22   A    
C30   H18   S    
C17   C20   S    
C17   O7    A    
C3    C4    A    
C15   H6    S    
C20   H9    S    
C1    C2    S    
C25   C30   A    
C12   C18   S    
C27   C28   A    
C29   C30   A    
Cu2   O4    S    
C8    C25   S    
C29   H17   S    
C18   C19   D    
C5    C16   S    
C9    C13   A    
Cu1   Cu2   S    
C1    O1    A    
C14   H4    S    
C20   C21   D    
C26   C27   A    
Cu2   O8    S    
Cu1   O5    S    
C17   O8    A    
C7    C24   S    
C14   H5    S    
