data_mof_unit_10804.cif
_audit_creation_date              2012-10-26T20:13:52-0400
_audit_creation_method            fapswitch 2.2
_symmetry_space_group_name_H-M    P1
_symmetry_Int_Tables_number       1
_space_group_crystal_system       triclinic
_cell_length_a                    8.71965
_cell_length_b                    10.838524
_cell_length_c                    9.585879
_cell_angle_alpha                 89.412491
_cell_angle_beta                  97.22999
_cell_angle_gamma                 91.61777
_cell_volume                      898.361622132

loop_
_atom_site_label
_atom_site_type_symbol
_atom_type_description
_atom_site_fract_x
_atom_site_fract_y
_atom_site_fract_z
_atom_type_partial_charge
C1    C     C_R   0.503548 0.262481 0.501012 0.541478
C2    C     C_R   0.626317 0.543290 0.940320 0.207123
C3    C     C_3   0.701220 0.668627 0.940759 0.127432
C4    C     C_R   0.204148 0.500367 0.464217 0.544323
C5    C     C_3   0.697179 0.670496 0.099427 -0.246642
C6    C     C_R   0.500871 0.737589 0.499485 0.540252
C7    C     C_R   0.795731 0.502929 0.535493 0.552960
C8    C     C_2   0.038433 0.498553 0.444178 -0.167908
C9    C     C_2   0.961116 0.510164 0.554233 -0.165573
C10   C     C_R   0.519644 0.062059 0.628479 0.037526
C11   C     C_R   0.519498 0.129623 0.503410 0.000572
C12   C     C_R   0.536413 0.937955 0.378049 -0.166393
C13   C     C_R   0.539056 0.066623 0.379428 -0.166266
C14   C     C_3   0.256408 0.363028 0.838361 -0.356133
C15   C     C_3   0.917909 0.783477 0.894706 0.002368
C16   C     C_3   0.909885 0.821867 0.739843 -0.255370
C17   C     C_3   0.947068 0.959392 0.724207 -0.489672
C18   C     C_3   0.497521 0.112505 0.880402 -0.410753
C19   C     C_R   0.513089 0.871085 0.500218 -0.004058
C20   C     C_R   0.512515 0.934896 0.625627 -0.001638
C21   C     C_3   0.400629 0.926184 0.731437 -0.245232
C22   C     C_3   0.413672 0.066263 0.739634 -0.130590
C23   C     C_R   0.625436 0.544160 0.087019 0.120636
C24   C     C_R   0.385724 0.442116 0.064163 0.008289
C25   C     C_R   0.385912 0.438876 0.916229 0.079936
Cu1   Cu    Cu3+1 0.499990 0.499980 0.640670 0.941360
Cu2   Cu    Cu3+1 0.500010 0.500020 0.359330 0.929169
H1    H     H_    0.979720 0.485516 0.338158 0.132883
H2    H     H_    0.303181 0.112421 0.704256 0.128383
H3    H     H_    0.293021 0.396728 0.112014 0.130941
H4    H     H_    0.281999 0.328989 0.736909 0.192778
H5    H     H_    0.233486 0.278592 0.899959 0.070511
H6    H     H_    0.149356 0.416369 0.826565 0.132805
H7    H     H_    0.041464 0.782051 0.940374 0.148671
H8    H     H_    0.863071 0.853729 0.955680 0.108990
H9    H     H_    0.993381 0.767817 0.688528 0.156044
H10   H     H_    0.792365 0.801269 0.685173 0.186179
H11   H     H_    0.857979 0.014852 0.765962 0.155922
H12   H     H_    0.627187 0.736568 0.879063 0.112451
H13   H     H_    0.947951 0.982870 0.611260 0.150766
H14   H     H_    0.062189 0.983558 0.782192 0.139106
H15   H     H_    0.604439 0.060408 0.912613 0.128658
H16   H     H_    0.530748 0.211461 0.871810 0.173419
H17   H     H_    0.419859 0.101181 0.963211 0.120478
H18   H     H_    0.813344 0.671082 0.162430 0.144779
H19   H     H_    0.617004 0.739566 0.131243 0.094926
H20   H     H_    0.019329 0.526759 0.659173 0.140847
H21   H     H_    0.548890 0.115985 0.281982 0.135237
H22   H     H_    0.545221 0.891709 0.280146 0.124352
H23   H     H_    0.284599 0.891453 0.684355 0.125554
H24   H     H_    0.446859 0.878020 0.829695 0.125217
N1    N     N_R   0.500980 0.500930 0.148050 -0.253175
N2    N     N_R   0.500990 0.500890 0.852140 -0.251844
O1    O     O_R   0.500000 0.319640 0.618810 -0.518545
O2    O     O_R   0.500020 0.319680 0.381230 -0.507648
O3    O     O_R   0.274830 0.499980 0.591380 -0.513154
O4    O     O_R   0.274850 0.500020 0.353800 -0.501761
O5    O     O_R   0.499980 0.680320 0.618770 -0.508232
O6    O     O_R   0.500000 0.680360 0.381190 -0.503833
O7    O     O_R   0.725150 0.499980 0.646200 -0.464657
O8    O     O_R   0.725170 0.500020 0.408620 -0.502107
O9    O     O_3   0.853586 0.662828 0.905710 -0.562136

loop_
_geom_bond_atom_site_label_1
_geom_bond_atom_site_label_2
_ccdc_geom_bond_type
C4    O4    A    
C24   N1    A    
C13   H21   S    
C1    O1    A    
C9    H20   S    
C22   H2    S    
C18   H17   S    
C11   C13   A    
C5    H19   S    
C6    O5    A    
C15   H7    S    
C19   C20   A    
C5    C23   S    
C17   H13   S    
C14   H4    S    
C4    C8    S    
C21   C22   S    
C20   C21   S    
C14   H6    S    
C2    C3    S    
C1    O2    A    
C3    H12   S    
Cu2   O6    S    
C18   H16   S    
C4    O3    A    
C6    C19   S    
Cu1   O5    S    
C23   N1    A    
C5    H18   S    
Cu1   O1    S    
C12   C19   A    
C15   H8    S    
C21   H23   S    
C15   O9    S    
C25   N2    A    
C12   H22   S    
C17   H14   S    
C17   H11   S    
C18   H15   S    
C14   C25   S    
Cu1   Cu2   S    
Cu2   N1    S    
C8    H1    S    
C24   H3    S    
C10   C11   A    
Cu2   O2    S    
Cu1   O3    S    
C15   C16   S    
Cu1   N2    S    
C7    O7    A    
C21   H24   S    
C24   C25   A    
C8    C9    D    
Cu2   O4    S    
C3    O9    S    
C14   H5    S    
C2    C23   A    
C7    C9    S    
C7    O8    A    
Cu2   O8    S    
C12   C13   A    
C18   C22   S    
Cu1   O7    S    
C6    O6    A    
C10   C22   S    
C16   H9    S    
C16   H10   S    
C10   C20   A    
C16   C17   S    
C3    C5    S    
C2    N2    A    
C1    C11   S    
