data_mof_unit_27328.cif
_audit_creation_date              2012-12-10T17:24:19-0500
_audit_creation_method            fapswitch 2.2
_symmetry_space_group_name_H-M    P1
_symmetry_Int_Tables_number       1
_space_group_crystal_system       triclinic
_cell_length_a                    31.603046
_cell_length_b                    18.257621
_cell_length_c                    25.702143
_cell_angle_alpha                 89.908617
_cell_angle_beta                  144.51013
_cell_angle_gamma                 90.038575
_cell_volume                      8609.70024197

loop_
_atom_site_label
_atom_site_type_symbol
_atom_type_description
_atom_site_fract_x
_atom_site_fract_y
_atom_site_fract_z
_atom_type_partial_charge
C1    C     C_R   0.860453 0.859880 0.110217 0.480907
C2    C     C_R   0.114841 0.341989 0.276411 0.293240
C3    C     C_R   0.756088 0.201375 0.049095 0.010996
C4    C     C_R   0.245347 0.309690 0.030306 0.013628
C5    C     C_R   0.738450 0.706555 0.943356 0.012281
C6    C     C_R   0.744714 0.299443 0.952189 0.012872
C7    C     C_R   0.255226 0.700422 0.047821 0.009112
C8    C     C_R   0.196067 0.195863 0.946024 0.012888
C9    C     C_R   0.804304 0.803845 0.054135 0.009433
C10   C     C_R   0.804235 0.196095 0.054476 0.009945
C11   C     C_R   0.195936 0.804090 0.945975 0.010933
C12   C     C_R   0.695807 0.696139 0.945910 0.008889
C13   C     C_R   0.181612 0.731366 0.294020 0.331083
C14   C     C_R   0.304394 0.303779 0.054404 0.013800
C15   C     C_R   0.304129 0.695998 0.054348 0.009295
C16   C     C_R   0.695980 0.304127 0.945907 0.011469
C17   C     C_R   0.011229 0.134113 0.065597 -0.091068
C18   C     C_R   0.991014 0.864858 0.936418 -0.102955
C19   C     C_R   0.513068 0.633776 0.067643 -0.090062
C20   C     C_R   0.485112 0.365189 0.930877 -0.102776
C21   C     C_R   0.019497 0.199953 0.047058 -0.123244
C22   C     C_R   0.984813 0.798824 0.957070 -0.128010
C23   C     C_R   0.520433 0.699615 0.048116 -0.117534
C24   C     C_R   0.843029 0.303671 0.718404 0.366198
C25   C     C_R   0.473047 0.299914 0.945585 -0.127767
C26   C     C_R   0.022678 0.200013 0.996231 -0.079288
C27   C     C_R   0.982010 0.798662 0.008297 -0.092434
C28   C     C_R   0.522399 0.699631 0.996066 -0.078461
C29   C     C_R   0.468548 0.300148 0.995075 -0.096618
C30   C     C_R   0.016578 0.134462 0.962775 -0.071250
C31   C     C_R   0.985560 0.864484 0.039162 -0.085418
C32   C     C_R   0.516700 0.634074 0.963043 -0.069836
C33   C     C_R   0.477314 0.365435 0.031192 -0.087680
C34   C     C_R   0.007869 0.067000 0.980699 0.005865
C35   C     C_R   0.392249 0.148881 0.721990 0.357750
C36   C     C_R   0.992976 0.932087 0.019983 -0.002641
C37   C     C_R   0.508404 0.566654 0.981391 0.008617
C38   C     C_R   0.489288 0.432388 0.016521 -0.000059
C39   C     C_R   0.006198 0.066748 0.033534 0.014550
C40   C     C_R   0.994733 0.932334 0.967216 0.005950
C41   C     C_R   0.507186 0.566456 0.034695 0.015466
C42   C     C_R   0.491666 0.432445 0.964393 0.007869
C43   C     C_R   0.000940 0.999889 0.947212 0.021372
C44   C     C_R   0.999250 0.999297 0.052857 0.018698
C45   C     C_R   0.500703 0.499632 0.947118 0.022424
C46   C     C_R   0.595429 0.859120 0.287745 0.313535
C47   C     C_R   0.498938 0.499206 0.052690 0.019643
C48   C     C_R   0.999811 0.999093 0.108893 0.481790
C49   C     C_R   0.000209 0.000298 0.891088 0.482665
C50   C     C_R   0.499773 0.499006 0.108907 0.483578
C51   C     C_R   0.500184 0.500034 0.891113 0.479986
C52   C     C_R   0.000005 0.999898 0.391761 0.490980
C53   C     C_R   0.999885 0.000105 0.608131 0.504810
C54   C     C_R   0.500011 0.499905 0.391766 0.493146
C55   C     C_R   0.499932 0.500107 0.608177 0.505537
C56   C     C_3   0.000451 0.930432 0.483590 -0.107314
C57   C     C_R   0.668275 0.210486 0.286229 0.347274
C58   C     C_3   0.999198 0.069598 0.516067 -0.093591
C59   C     C_3   0.940265 0.964979 0.457629 -0.120482
C60   C     C_3   0.059373 0.035059 0.542025 -0.135554
C61   C     C_3   0.500708 0.430468 0.483837 -0.106084
C62   C     C_3   0.499077 0.569619 0.515954 -0.092508
C63   C     C_3   0.440442 0.464838 0.457818 -0.120170
C64   C     C_3   0.559332 0.535261 0.541963 -0.135545
C65   C     C_3   0.059948 0.965899 0.577498 -0.130999
C66   C     C_3   0.939696 0.034134 0.422150 -0.115246
C67   C     C_3   0.560137 0.466096 0.577654 -0.129688
C68   C     C_R   0.334631 0.791686 0.715509 0.363013
C69   C     C_3   0.439652 0.533998 0.422128 -0.112686
C70   C     C_3   0.999784 0.000379 0.550706 0.066308
C71   C     C_3   0.999887 0.999646 0.448971 0.055930
C72   C     C_3   0.499883 0.500392 0.550804 0.065348
C73   C     C_3   0.499920 0.499682 0.449001 0.057709
C74   C     C_R   0.274641 0.111509 0.572772 -0.156261
C75   C     C_R   0.718411 0.893228 0.432954 -0.152810
C76   C     C_R   0.771654 0.158508 0.433786 -0.153135
C77   C     C_R   0.222815 0.832627 0.564338 -0.171581
C78   C     C_R   0.782116 0.605974 0.568135 -0.160449
C79   C     C_R   0.886916 0.714522 0.687210 0.078521
C80   C     C_R   0.237579 0.374537 0.423514 -0.134590
C81   C     C_R   0.281385 0.672904 0.438483 -0.122292
C82   C     C_R   0.729229 0.341760 0.566805 -0.166331
C83   C     C_R   0.340691 0.094049 0.662834 0.272064
C84   C     C_R   0.648737 0.913021 0.346093 0.271676
C85   C     C_R   0.727289 0.162595 0.345646 0.265548
C86   C     C_R   0.269760 0.831116 0.654352 0.276072
C87   C     C_R   0.850765 0.586821 0.656068 0.267198
C88   C     C_R   0.176509 0.385694 0.331242 0.272865
C89   C     C_R   0.242747 0.685366 0.354119 0.263860
C90   C     C_R   0.118416 0.280034 0.312456 0.077818
C91   C     C_R   0.778940 0.344438 0.657913 0.283213
C92   C     C_3   0.012949 0.412052 0.167607 -0.106789
C93   C     C_3   0.020200 0.608872 0.822200 -0.095316
C94   C     C_3   0.935300 0.372746 0.843015 -0.084859
C95   C     C_3   0.170541 0.805924 0.213021 -0.107801
C96   C     C_3   0.481658 0.903432 0.188752 -0.103423
C97   C     C_3   0.509769 0.111150 0.835230 -0.095537
C98   C     C_3   0.425002 0.857493 0.843992 -0.093167
C99   C     C_3   0.651492 0.267345 0.192162 -0.088507
C100  C     C_3   0.351590 0.972449 0.653695 -0.143377
C101  C     C_R   0.158394 0.761920 0.317953 0.094345
C102  C     C_3   0.644796 0.034467 0.364648 -0.135126
C103  C     C_3   0.721004 0.050617 0.301348 -0.085626
C104  C     C_3   0.217085 0.931875 0.643438 -0.134379
C105  C     C_3   0.859959 0.467115 0.639538 -0.139589
C106  C     C_3   0.200240 0.409032 0.270442 -0.115818
C107  C     C_3   0.218976 0.607854 0.261860 -0.090426
C108  C     C_3   0.729165 0.449537 0.646210 -0.135508
C109  C     C_R   0.139831 0.139855 0.889791 0.482608
C110  C     C_R   0.855038 0.256166 0.688345 0.077337
C111  C     C_R   0.380187 0.219915 0.690652 0.074801
C112  C     C_R   0.611054 0.786043 0.317015 0.076837
C113  C     C_R   0.651169 0.251612 0.313573 0.075351
C114  C     C_R   0.350006 0.749145 0.686741 0.079640
C115  C     C_R   0.820358 0.732862 0.593635 -0.035465
C116  C     C_R   0.184270 0.263132 0.406235 -0.007092
C117  C     C_R   0.204736 0.758732 0.409507 -0.034631
C118  C     C_R   0.801629 0.249408 0.594002 -0.038322
C119  C     C_R   0.316805 0.235680 0.595907 -0.035632
C120  C     C_R   0.139811 0.860191 0.889784 0.477894
C121  C     C_R   0.679562 0.767276 0.409227 -0.006455
C122  C     C_R   0.700707 0.253343 0.406799 -0.041673
C123  C     C_R   0.298848 0.745624 0.593018 -0.034331
C124  C     C_R   0.262126 0.181187 0.537589 -0.074162
C125  C     C_R   0.734384 0.821456 0.466862 -0.067510
C126  C     C_R   0.760045 0.203680 0.466294 -0.076751
C127  C     C_R   0.237821 0.792923 0.533160 -0.069513
C128  C     C_R   0.766110 0.678117 0.535024 -0.075129
C129  C     C_R   0.242458 0.313841 0.462652 -0.070343
C130  C     C_R   0.264752 0.710175 0.468805 -0.069737
C131  C     C_R   0.860110 0.139732 0.110282 0.483042
C132  C     C_R   0.740969 0.297205 0.534130 -0.072008
C133  C     C_R   0.804583 0.803468 0.556967 0.042706
C134  C     C_R   0.195364 0.196595 0.445067 0.051753
C135  C     C_R   0.193272 0.801194 0.443592 0.040645
C136  C     C_R   0.807194 0.199336 0.557280 0.041203
C137  C     C_R   0.305737 0.302270 0.556763 0.044296
C138  C     C_R   0.696029 0.696074 0.444983 0.050554
C139  C     C_R   0.693094 0.300980 0.442719 0.041682
C140  C     C_R   0.307564 0.699879 0.557313 0.042287
C141  C     C_R   0.771406 0.837436 0.111323 -0.091173
C142  C     C_R   0.360363 0.359990 0.110274 0.482143
C143  C     C_R   0.262297 0.129297 0.943356 -0.092647
C144  C     C_R   0.242401 0.850624 0.908428 -0.101535
C145  C     C_R   0.760644 0.152682 0.096544 -0.096937
C146  C     C_R   0.239520 0.369112 0.059610 -0.090670
C147  C     C_R   0.728908 0.662509 0.888918 -0.091911
C148  C     C_R   0.741049 0.349047 0.906123 -0.094881
C149  C     C_R   0.258987 0.650813 0.093982 -0.097776
C150  C     C_R   0.729538 0.826186 0.113830 -0.121425
C151  C     C_R   0.321958 0.123216 0.969785 -0.119769
C152  C     C_R   0.292095 0.846576 0.917255 -0.115917
C153  C     C_R   0.639603 0.640103 0.889798 0.480984
C154  C     C_R   0.712729 0.158634 0.090450 -0.129143
C155  C     C_R   0.181560 0.373573 0.036458 -0.125290
C156  C     C_R   0.771265 0.673411 0.887058 -0.120303
C157  C     C_R   0.790374 0.344514 0.914372 -0.119192
C158  C     C_R   0.210381 0.655952 0.086849 -0.127710
C159  C     C_R   0.128463 0.319367 0.983901 -0.118819
C160  C     C_R   0.824591 0.727261 0.940064 -0.112433
C161  C     C_R   0.844298 0.291002 0.968555 -0.106467
C162  C     C_R   0.156789 0.709803 0.033245 -0.110649
C163  C     C_R   0.676509 0.772086 0.061253 -0.117380
C164  C     C_R   0.639886 0.360266 0.889768 0.478856
C165  C     C_R   0.375770 0.176771 0.023668 -0.112745
C166  C     C_R   0.345671 0.792709 0.970833 -0.092993
C167  C     C_R   0.659010 0.212341 0.036568 -0.121550
C168  C     C_R   0.132570 0.260766 0.953474 -0.090601
C169  C     C_R   0.836243 0.770176 0.995715 -0.086343
C170  C     C_R   0.849079 0.241686 0.014625 -0.093932
C171  C     C_R   0.151404 0.758633 0.986299 -0.094038
C172  C     C_R   0.664433 0.729424 0.005106 -0.088750
C173  C     C_R   0.370124 0.236788 0.051222 -0.092358
C174  C     C_R   0.349846 0.742677 0.015898 -0.095715
C175  C     C_R   0.360111 0.639737 0.110260 0.479524
C176  C     C_R   0.652832 0.260250 0.988373 -0.096728
C177  C     C_R   0.190915 0.255041 0.976054 0.009597
C178  C     C_R   0.793068 0.760972 0.997783 0.010699
C179  C     C_R   0.799399 0.244995 0.007073 0.009355
C180  C     C_R   0.200655 0.754991 0.993170 0.001886
C181  C     C_R   0.707211 0.738903 0.002481 0.010326
C182  C     C_R   0.310309 0.243892 0.025812 0.010620
C183  C     C_R   0.299875 0.745583 0.007892 0.004861
C184  C     C_R   0.701460 0.255880 0.994296 0.006168
C185  C     C_R   0.139389 0.140273 0.389069 0.544565
C186  C     C_R   0.902229 0.641503 0.715926 0.357173
C187  C     C_R   0.860660 0.859618 0.611326 0.489117
C188  C     C_R   0.861311 0.141083 0.612004 0.482335
C189  C     C_R   0.139370 0.859597 0.389396 0.482030
C190  C     C_R   0.639897 0.639830 0.389847 0.545152
C191  C     C_R   0.361085 0.359195 0.611840 0.488234
C192  C     C_R   0.360756 0.640660 0.610808 0.490310
C193  C     C_R   0.638695 0.358945 0.387946 0.482741
C194  C     C_R   0.761734 0.793410 0.056759 0.012410
C195  C     C_R   0.255647 0.189459 0.971110 0.013343
C196  C     C_R   0.245350 0.800186 0.953308 0.010433
H1    H     H_    0.109295 0.937921 0.642157 0.121482
H2    H     H_    0.413183 0.277191 0.092867 0.113464
H3    H     H_    0.749935 0.022963 0.362954 0.123294
H4    H     H_    0.733875 0.019846 0.278198 0.123510
H5    H     H_    0.238864 0.965231 0.632476 0.142491
H6    H     H_    0.224939 0.964150 0.687388 0.141659
H7    H     H_    0.157590 0.922672 0.579414 0.123735
H8    H     H_    0.888400 0.487683 0.632584 0.117332
H9    H     H_    0.801940 0.455087 0.572661 0.128875
H10   H     H_    0.886192 0.414599 0.676791 0.134387
H11   H     H_    0.193950 0.450007 0.232669 0.111021
H12   H     H_    0.258832 0.393479 0.331188 0.107914
H13   H     H_    0.392839 0.702153 0.057295 0.116000
H14   H     H_    0.166598 0.360798 0.225515 0.145117
H15   H     H_    0.183121 0.637666 0.198341 0.162876
H16   H     H_    0.185596 0.577779 0.257727 0.161334
H17   H     H_    0.249514 0.566647 0.269432 0.107441
H18   H     H_    0.748905 0.479316 0.630874 0.141216
H19   H     H_    0.739386 0.485400 0.690459 0.138811
H20   H     H_    0.669403 0.440242 0.584411 0.119753
H21   H     H_    0.908581 0.809379 0.748193 0.236722
H22   H     H_    0.970015 0.788281 0.760519 0.243752
H23   H     H_    0.011947 0.266851 0.224851 0.241933
H24   H     H_    0.609390 0.300319 0.946300 0.125098
H25   H     H_    0.039935 0.217793 0.200693 0.226027
H26   H     H_    0.083296 0.844935 0.239096 0.249938
H27   H     H_    0.058321 0.771234 0.252871 0.234361
H28   H     H_    0.950925 0.232322 0.747468 0.229484
H29   H     H_    0.920536 0.165767 0.760204 0.254704
H30   H     H_    0.404331 0.318517 0.747501 0.242900
H31   H     H_    0.464976 0.289652 0.760549 0.238199
H32   H     H_    0.509735 0.742639 0.222164 0.242728
H33   H     H_    0.547986 0.734302 0.200771 0.229320
H34   H     H_    0.584687 0.341411 0.240589 0.249513
H35   H     H_    0.978064 0.747293 0.025196 0.143332
H36   H     H_    0.552776 0.272709 0.249581 0.230454
H37   H     H_    0.447354 0.731208 0.747342 0.228474
H38   H     H_    0.419194 0.661268 0.760281 0.258034
H39   H     H_    0.029845 0.250963 0.982629 0.134169
H40   H     H_    0.459471 0.249422 0.006784 0.144086
H41   H     H_    0.528243 0.750596 0.981042 0.124674
H42   H     H_    0.008638 0.136388 0.104938 0.106906
H43   H     H_    0.993722 0.862440 0.897139 0.120138
H44   H     H_    0.511280 0.636181 0.107862 0.113483
H45   H     H_    0.890332 0.062086 0.357474 0.122233
H46   H     H_    0.489660 0.362512 0.893586 0.123954
H47   H     H_    0.023642 0.250974 0.072398 0.148382
H48   H     H_    0.982530 0.747666 0.933604 0.145854
H49   H     H_    0.524564 0.750710 0.073362 0.119347
H50   H     H_    0.467680 0.248995 0.919025 0.166217
H51   H     H_    0.019305 0.137183 0.923507 0.119078
H52   H     H_    0.982748 0.861821 0.078307 0.117156
H53   H     H_    0.518748 0.636844 0.923095 0.115144
H54   H     H_    0.474232 0.362905 0.070104 0.122530
H55   H     H_    0.001052 0.873263 0.469552 0.139882
H56   H     H_    0.609625 0.438292 0.642384 0.121474
H57   H     H_    0.998655 0.126777 0.530142 0.139893
H58   H     H_    0.891354 0.936343 0.423909 0.111565
H59   H     H_    0.108234 0.063764 0.575686 0.110173
H60   H     H_    0.501430 0.373299 0.469927 0.138093
H61   H     H_    0.498376 0.626791 0.529886 0.142147
H62   H     H_    0.391628 0.436047 0.424204 0.106695
H63   H     H_    0.608097 0.564139 0.575535 0.104462
H64   H     H_    0.233626 0.069119 0.530814 0.123054
H65   H     H_    0.759831 0.935113 0.472999 0.134433
H66   H     H_    0.816197 0.119970 0.476211 0.153022
H67   H     H_    0.390193 0.561827 0.357395 0.119620
H68   H     H_    0.174108 0.864848 0.519074 0.146887
H69   H     H_    0.741524 0.563249 0.526723 0.128052
H70   H     H_    0.282407 0.412361 0.463314 0.142496
H71   H     H_    0.326131 0.634834 0.480164 0.172581
H72   H     H_    0.680750 0.374460 0.521683 0.142161
H73   H     H_    0.857304 0.735456 0.938353 0.112828
H74   H     H_    0.084023 0.322647 0.966840 0.104559
H75   H     H_    0.118861 0.713437 0.027444 0.129155
H76   H     H_    0.882823 0.287857 0.975289 0.141941
H77   H     H_    0.422186 0.171699 0.044413 0.133551
H78   H     H_    0.089925 0.219957 0.912715 0.116924
H79   H     H_    0.644489 0.763480 0.063877 0.107334
H80   H     H_    0.621392 0.216407 0.031224 0.128444
H81   H     H_    0.384404 0.789848 0.977894 0.141455
H82   H     H_    0.810976 0.881228 0.152321 0.122809
H83   H     H_    0.221846 0.086230 0.901544 0.108618
H84   H     H_    0.202155 0.893940 0.866652 0.115108
H85   H     H_    0.800987 0.109478 0.138578 0.115816
H86   H     H_    0.279696 0.412451 0.100895 0.108140
H87   H     H_    0.689171 0.618873 0.847680 0.122688
H88   H     H_    0.700585 0.392139 0.863940 0.116152
H89   H     H_    0.879629 0.810114 0.037170 0.122186
H90   H     H_    0.299258 0.607526 0.135817 0.114399
H91   H     H_    0.738082 0.859840 0.156486 0.107715
H92   H     H_    0.326491 0.076671 0.948473 0.114623
H93   H     H_    0.289161 0.885597 0.882621 0.126649
H94   H     H_    0.717040 0.121114 0.127285 0.123475
H95   H     H_    0.177997 0.419133 0.059688 0.100256
H96   H     H_    0.762940 0.639599 0.844673 0.109704
H97   H     H_    0.786930 0.382934 0.878886 0.125537
H98   H     H_    0.214127 0.617748 0.122752 0.100475
H99   H     H_    0.043239 0.464712 0.195942 0.166657
H100  H     H_    0.892406 0.201498 0.056583 0.117860
H101  H     H_    0.997992 0.399352 0.193647 0.108883
H102  H     H_    0.961517 0.419218 0.093985 0.138592
H103  H     H_    0.032888 0.658124 0.811004 0.126255
H104  H     H_    0.003989 0.562407 0.780489 0.120749
H105  H     H_    0.070902 0.592463 0.893395 0.146185
H106  H     H_    0.901006 0.422519 0.813496 0.189137
H107  H     H_    0.962517 0.373662 0.831560 0.117722
H108  H     H_    0.978379 0.374927 0.916358 0.114238
H109  H     H_    0.229309 0.798623 0.262327 0.143463
H110  H     H_    0.162424 0.856081 0.228781 0.132761
H111  H     H_    0.108162 0.798911 0.944531 0.124838
H112  H     H_    0.141225 0.814023 0.146372 0.147383
H113  H     H_    0.500896 0.956785 0.223569 0.146460
H114  H     H_    0.473784 0.863603 0.213220 0.102548
H115  H     H_    0.427626 0.912915 0.116474 0.149143
H116  H     H_    0.526421 0.156216 0.825248 0.125413
H117  H     H_    0.493763 0.061919 0.796445 0.120321
H118  H     H_    0.557937 0.095779 0.907136 0.145046
H119  H     H_    0.461335 0.856465 0.845715 0.114783
H120  H     H_    0.459864 0.861329 0.914017 0.127327
H121  H     H_    0.390325 0.907539 0.808687 0.177302
H122  H     H_    0.621179 0.689361 0.963905 0.122987
H123  H     H_    0.709351 0.256541 0.239431 0.144458
H124  H     H_    0.645858 0.322984 0.203699 0.125583
H125  H     H_    0.619627 0.266235 0.123668 0.139929
H126  H     H_    0.382545 0.990423 0.649615 0.114367
H127  H     H_    0.294489 0.958994 0.585918 0.121954
H128  H     H_    0.377533 0.921311 0.693744 0.128855
H129  H     H_    0.619610 0.087208 0.327633 0.152335
H130  H     H_    0.618421 0.017115 0.375305 0.115626
H131  H     H_    0.703741 0.044875 0.429924 0.126474
H132  H     H_    0.660925 0.048123 0.246977 0.191346
N1    N     N_3   0.936897 0.768062 0.757028 -0.624056
N2    N     N_3   0.054547 0.235196 0.252539 -0.593966
N3    N     N_3   0.084686 0.788293 0.245316 -0.614071
N4    N     N_3   0.925256 0.221635 0.757252 -0.628082
N5    N     N_3   0.431761 0.274232 0.758352 -0.629342
N6    N     N_3   0.558206 0.731251 0.250941 -0.605085
N7    N     N_3   0.580482 0.285241 0.242936 -0.623388
N8    N     N_3   0.421619 0.717628 0.756542 -0.627485
O1    O     O_3   0.999990 0.000000 0.249990 -0.441349
O2    O     O_R   0.585440 0.646160 0.804690 -0.546016
O3    O     O_R   0.585440 0.353840 0.804690 -0.548302
O4    O     O_R   0.414560 0.646160 0.195310 -0.546163
O5    O     O_R   0.085440 0.146150 0.366190 -0.514556
O6    O     O_R   0.914560 0.853850 0.633810 -0.545087
O7    O     O_R   0.914560 0.146150 0.633810 -0.552105
O8    O     O_R   0.085440 0.853850 0.366190 -0.551116
O9    O     O_R   0.585440 0.646150 0.366190 -0.527357
O10   O     O_R   0.414560 0.353850 0.633810 -0.550353
O11   O     O_R   0.414560 0.646150 0.633810 -0.559030
O12   O     O_3   0.000010 0.000000 0.750010 -0.441271
O13   O     O_R   0.585440 0.353850 0.366190 -0.552643
O14   O     O_R   0.853820 0.085430 0.073070 -0.537103
O15   O     O_R   0.146180 0.914570 0.926930 -0.540943
O16   O     O_R   0.146180 0.085430 0.926930 -0.538880
O17   O     O_R   0.853820 0.914570 0.073070 -0.542254
O18   O     O_R   0.353820 0.585430 0.073070 -0.536117
O19   O     O_R   0.646180 0.414570 0.926930 -0.537914
O20   O     O_R   0.646180 0.585430 0.926930 -0.540198
O21   O     O_R   0.353820 0.414570 0.073070 -0.537980
O22   O     O_R   0.146150 0.914540 0.365390 -0.555892
O23   O     O_3   0.499990 0.500000 0.249990 -0.440907
O24   O     O_R   0.853850 0.085460 0.634610 -0.547666
O25   O     O_R   0.853850 0.914540 0.634610 -0.551323
O26   O     O_R   0.146150 0.085460 0.365390 -0.542513
O27   O     O_R   0.646150 0.414540 0.365390 -0.556827
O28   O     O_R   0.353850 0.585460 0.634610 -0.532148
O29   O     O_R   0.353850 0.414540 0.634610 -0.538489
O30   O     O_R   0.646150 0.585460 0.365390 -0.536922
O31   O     O_R   0.939240 0.000000 0.071950 -0.541694
O32   O     O_R   0.060760 0.000000 0.928050 -0.548010
O33   O     O_R   0.439240 0.500000 0.071950 -0.539117
O34   O     O_3   0.500010 0.500000 0.750010 -0.442766
O35   O     O_R   0.560760 0.500000 0.928050 -0.549829
O36   O     O_R   0.000020 0.939290 0.367320 -0.554032
O37   O     O_R   0.999980 0.060710 0.632680 -0.544040
O38   O     O_R   0.999980 0.939290 0.632680 -0.538966
O39   O     O_R   0.000020 0.060710 0.367320 -0.541433
O40   O     O_R   0.500020 0.439290 0.367320 -0.549935
O41   O     O_R   0.499980 0.560710 0.632680 -0.545712
O42   O     O_R   0.499980 0.439290 0.632680 -0.540308
O43   O     O_R   0.500020 0.560710 0.367320 -0.542544
O44   O     O_R   0.060680 0.000000 0.193390 -0.551082
O45   O     O_R   0.914560 0.853840 0.195310 -0.542519
O46   O     O_R   0.939320 0.000000 0.806610 -0.540655
O47   O     O_R   0.560680 0.500000 0.193390 -0.546740
O48   O     O_R   0.439320 0.500000 0.806610 -0.541913
O49   O     O_3   0.053029 0.354500 0.184948 -0.586542
O50   O     O_3   0.966255 0.624281 0.805700 -0.527719
O51   O     O_3   0.894449 0.307999 0.809147 -0.526958
O52   O     O_3   0.141611 0.743744 0.209262 -0.565689
O53   O     O_3   0.529586 0.876157 0.198465 -0.554732
O54   O     O_3   0.453640 0.133924 0.812845 -0.528088
O55   O     O_3   0.383349 0.792636 0.805378 -0.518893
O56   O     O_R   0.085440 0.146160 0.804690 -0.541478
O57   O     O_3   0.623647 0.213467 0.198282 -0.536694
O58   O     O_3   0.353751 0.024897 0.696202 -0.567700
O59   O     O_3   0.633714 0.983153 0.313278 -0.572052
O60   O     O_3   0.744641 0.123480 0.318678 -0.570159
O61   O     O_3   0.253946 0.864398 0.686034 -0.537327
O62   O     O_3   0.866131 0.516135 0.687932 -0.572725
O63   O     O_3   0.176895 0.440304 0.294433 -0.572828
O64   O     O_3   0.269864 0.656181 0.335395 -0.572816
O65   O     O_3   0.766235 0.382615 0.691305 -0.542240
O66   O     O_R   0.085440 0.853840 0.804690 -0.548592
O67   O     O_R   0.914560 0.146160 0.195310 -0.537807
O68   O     O_R   0.414560 0.353840 0.195310 -0.542298
Zn1   Zn    Zn3+2 1.000000 0.086750 0.293940 0.935169
Zn2   Zn    Zn3+2 0.086780 0.000000 0.880710 0.917167
Zn3   Zn    Zn3+2 0.413220 0.500000 0.119290 0.931145
Zn4   Zn    Zn3+2 0.586780 0.500000 0.880710 0.917728
Zn5   Zn    Zn3+2 0.086730 0.000000 0.292800 0.909972
Zn6   Zn    Zn3+2 0.913270 0.000000 0.707200 0.908722
Zn7   Zn    Zn3+2 0.586730 0.500000 0.292800 0.914372
Zn8   Zn    Zn3+2 0.413270 0.500000 0.707200 0.926524
Zn9   Zn    Zn3+2 1.000000 0.913250 0.706060 0.916061
Zn10  Zn    Zn3+2 1.000000 0.086750 0.706060 0.917039
Zn11  Zn    Zn3+2 1.000000 0.913250 0.293940 0.908605
Zn12  Zn    Zn3+2 0.500000 0.586750 0.293940 0.925090
Zn13  Zn    Zn3+2 0.500000 0.413250 0.706060 0.916244
Zn14  Zn    Zn3+2 0.500000 0.586750 0.706060 0.916444
Zn15  Zn    Zn3+2 0.500000 0.413250 0.293940 0.908654
Zn16  Zn    Zn3+2 0.913220 0.000000 0.119290 0.927093

loop_
_geom_bond_atom_site_label_1
_geom_bond_atom_site_label_2
_ccdc_geom_bond_type
C21   C26   A    
O1    Zn11  S    
C46   C112  A    
C6    C179  A    
C4    C177  A    
C130  C140  A    
C110  C118  A    
O4    Zn12  S    
C187  O6    A    
C57   O57   S    
C150  C163  A    
C100  O58   S    
C98   H121  S    
O67   Zn1   S    
C122  C139  A    
C164  O19   A    
C59   C66   S    
C106  H12   S    
O23   Zn12  S    
O43   Zn12  S    
C58   C60   S    
C106  H14   S    
C29   C33   A    
C91   O65   S    
C17   C39   A    
O8    Zn11  S    
C61   C63   S    
C18   C40   A    
C10   C131  S    
C62   C64   S    
C137  C191  S    
C40   C43   A    
C113  C122  A    
O35   Zn4   S    
C90   C116  A    
C3    C184  A    
C74   C83   A    
C94   O51   S    
O23   Zn3   S    
C96   H113  S    
C50   O33   A    
C7    C15   A    
C92   O49   S    
O3    Zn13  S    
C126  C136  A    
C161  H76   S    
C175  O18   A    
C94   H106  S    
C22   H48   S    
C14   C182  A    
C120  O15   A    
C25   C29   A    
C166  C174  A    
O10   Zn13  S    
C27   C31   A    
C28   C32   A    
C24   C110  A    
C5    C12   A    
C63   H62   S    
O47   Zn7   S    
H32   N6    S    
C58   C70   S    
C105  H8    S    
C107  H16   S    
C17   C21   A    
C82   C91   A    
O12   Zn9   S    
C42   C45   A    
C19   C23   A    
C64   C67   S    
C28   H41   S    
C12   C181  A    
O45   Zn11  S    
C183  C196  A    
C106  O63   S    
O7    Zn10  S    
C117  C130  A    
C99   H123  S    
C181  C194  A    
C155  H95   S    
H31   N5    S    
C46   C84   A    
O23   Zn7   S    
C1    O45   A    
C60   C65   S    
C22   C27   A    
O12   Zn2   S    
C53   O37   A    
C154  C167  A    
C36   C44   A    
H29   N4    S    
C37   C45   A    
C117  C135  A    
O14   Zn16  S    
C118  C136  A    
O9    Zn12  S    
C176  C184  A    
C76   H66   S    
C88   O63   S    
C127  C135  A    
C191  O29   A    
C20   C42   A    
C16   C184  A    
C105  H9    S    
C74   H64   S    
C153  O20   A    
C33   C38   A    
C56   C59   S    
C92   H101  S    
C80   C88   A    
C109  O56   A    
H38   N8    S    
C57   C85   A    
C60   H59   S    
C4    C14   A    
C33   H54   S    
C108  H19   S    
C96   H115  S    
C6    C16   A    
C116  C134  A    
C100  H127  S    
C1    O17   A    
C31   C36   A    
C93   H103  S    
O38   Zn9   S    
O12   Zn6   S    
C76   C85   A    
C95   H109  S    
C168  C177  A    
C26   C30   A    
C78   C87   A    
C14   C142  S    
C79   C115  A    
O33   Zn3   S    
O34   Zn4   S    
C145  H85   S    
C105  H10   S    
C69   H67   S    
O66   Zn9   S    
C16   C164  S    
C132  C139  A    
C121  C125  A    
C92   H99   S    
O42   Zn13  S    
C49   O32   A    
C80   H70   S    
C10   C179  A    
C185  O5    A    
C139  C193  S    
C75   C84   A    
C65   C70   S    
C56   H55   S    
C8    C195  A    
C111  C119  A    
C67   C72   S    
H36   N7    S    
C128  C138  A    
C192  O11   A    
C188  O24   A    
C172  C181  A    
C63   C69   S    
C64   C73   S    
C89   O64   S    
C149  C158  A    
C77   C127  A    
C168  H78   S    
C21   H47   S    
C25   H50   S    
O17   Zn16  S    
C136  C188  S    
C46   O53   S    
C153  O2    A    
C11   C120  S    
C113  N7    S    
O34   Zn8   S    
C141  C150  A    
H28   N4    S    
C47   C50   S    
C87   O62   S    
C162  H75   S    
H23   N2    S    
C32   C37   A    
C30   C34   A    
C164  O3    A    
C155  C159  A    
C34   C39   A    
C190  O9    A    
C156  C160  A    
O36   Zn11  S    
O34   Zn13  S    
C57   C113  A    
C107  O64   S    
C151  C165  A    
C32   H53   S    
C115  C128  A    
C120  O66   A    
C49   O46   A    
C54   O40   A    
C61   C67   S    
C123  C127  A    
C107  H17   S    
O26   Zn5   S    
O16   Zn2   S    
C193  O13   A    
C185  O26   A    
C41   C47   A    
C129  C137  A    
C102  H131  S    
C96   O53   S    
C145  C154  A    
C192  O28   A    
C97   H118  S    
C31   H52   S    
C114  C123  A    
H37   N8    S    
C80   C129  A    
C18   C22   A    
O68   Zn15  S    
C34   C43   A    
C167  H80   S    
C152  C166  A    
C3    C145  A    
C39   C44   A    
C144  C196  A    
C66   H45   S    
H34   N7    S    
O23   Zn15  S    
C124  C134  A    
C170  C179  A    
C104  H5    S    
C55   O42   A    
O56   Zn10  S    
C112  C121  A    
C144  C152  A    
C17   H42   S    
C109  O16   A    
C97   O54   S    
O1    Zn1   S    
C35   O54   S    
C143  C151  A    
C7    C180  A    
O25   Zn6   S    
C103  H4    S    
C37   C41   A    
O5    Zn1   S    
C5    C178  A    
C118  C132  A    
C133  C187  S    
C142  O68   A    
C97   H116  S    
C81   H71   S    
C82   H72   S    
C182  C195  A    
C13   C101  A    
C108  H18   S    
C96   H114  S    
O39   Zn1   S    
C74   C124  A    
C5    C147  A    
C79   C186  A    
C100  H126  S    
C174  H13   S    
C76   C126  A    
C149  H90   S    
H21   N1    S    
C94   H107  S    
C78   C128  A    
C75   H65   S    
C112  N6    S    
C163  H79   S    
C20   H46   S    
C160  H73   S    
C169  H89   S    
C114  N8    S    
C141  H82   S    
C95   O52   S    
C107  H15   S    
C20   C25   A    
C93   O50   S    
O1    Zn5   S    
C156  H96   S    
O12   Zn10  S    
C102  H129  S    
C157  H97   S    
O40   Zn15  S    
C8    C177  A    
C193  O27   A    
C146  C155  A    
C15   C183  A    
C48   O44   A    
C160  C169  A    
O11   Zn14  S    
C69   C73   S    
C98   H119  S    
C87   C186  A    
C166  H81   S    
C146  H86   S    
C64   H63   S    
C81   C89   A    
C67   H56   S    
O37   Zn10  S    
O44   Zn5   S    
C24   O51   S    
C187  O25   A    
C53   C70   S    
C102  O59   S    
C30   H51   S    
C104  H7    S    
C48   O31   A    
C1    C9    S    
C11   C196  A    
C110  N4    S    
C106  H11   S    
C35   C83   A    
C9    C194  A    
C50   O47   A    
C115  C133  A    
C60   C71   S    
C61   C73   S    
O21   Zn3   S    
C86   O61   S    
C92   H102  S    
C75   C125  A    
C23   H49   S    
C78   H69   S    
C54   C73   S    
C147  H87   S    
C99   H125  S    
C66   C71   S    
C56   C71   S    
C143  C195  A    
C147  C156  A    
O22   Zn5   S    
C108  H20   S    
C51   O48   A    
O46   Zn6   S    
C188  O7    A    
C103  H132  S    
C100  H128  S    
O1    Zn16  S    
O32   Zn2   S    
C82   C132  A    
C157  C161  A    
C95   H112  S    
C2    O49   S    
C142  O21   A    
C172  H122  S    
C99   O57   S    
C90   N2    S    
C174  C183  A    
H30   N5    S    
C131  O67   A    
H26   N3    S    
C189  O8    A    
O2    Zn14  S    
O19   Zn4   S    
C190  O30   A    
H22   N1    S    
C101  C117  A    
C52   C71   S    
C175  O4    A    
C81   C130  A    
C99   H124  S    
H33   N6    S    
O48   Zn8   S    
C59   C70   S    
C63   C72   S    
C62   C69   S    
C2    C90   A    
C176  H24   S    
C45   C51   S    
C53   O38   A    
C11   C180  A    
C8    C109  S    
C9    C178  A    
C19   C41   A    
C26   H39   S    
C44   C48   S    
C77   H68   S    
C68   C86   A    
C111  N5    S    
C152  H93   S    
C12   C153  S    
C151  H92   S    
C189  O22   A    
C119  C124  A    
O20   Zn4   S    
C85   O60   S    
C171  H111  S    
C191  O10   A    
C93   H105  S    
C108  O65   S    
C131  O14   A    
O34   Zn14  S    
O13   Zn15  S    
C165  C173  A    
C56   C65   S    
C159  C168  A    
C58   H57   S    
O29   Zn8   S    
C135  C189  S    
O30   Zn7   S    
C7    C149  A    
C58   C66   S    
C68   O55   S    
C116  C129  A    
C93   H104  S    
C2    C88   A    
C95   H110  S    
C55   C72   S    
C148  C157  A    
C159  H74   S    
C102  H130  S    
C103  O60   S    
C59   H58   S    
C97   H117  S    
C134  C185  S    
C138  C190  S    
C13   O52   S    
C170  H100  S    
O18   Zn3   S    
C119  C137  A    
C52   O39   A    
C36   C40   A    
C158  H98   S    
C104  O61   S    
C43   C49   S    
C123  C140  A    
C154  H94   S    
C83   O58   S    
C79   N1    S    
C104  H6    S    
C121  C138  A    
C122  C126  A    
C54   O43   A    
C55   O41   A    
C29   H40   S    
C163  C172  A    
C6    C148  A    
O28   Zn8   S    
C4    C146  A    
C143  H83   S    
C62   C72   S    
C144  H84   S    
O15   Zn2   S    
C103  H3    S    
H25   N2    S    
C38   C47   A    
C65   H1    S    
C161  C170  A    
C27   H35   S    
C186  O50   S    
C77   C86   A    
C61   H60   S    
C140  C192  S    
C171  C180  A    
C23   C28   A    
C150  H91   S    
H27   N3    S    
C24   C91   A    
C169  C178  A    
C35   C111  A    
C18   H43   S    
C101  N3    S    
C125  C133  A    
C148  H88   S    
C13   C89   A    
C173  H2    S    
O31   Zn16  S    
C84   O59   S    
C94   H108  S    
C173  C182  A    
C62   H61   S    
C15   C175  S    
O24   Zn6   S    
C3    C10   A    
C19   H44   S    
O41   Zn14  S    
C141  C194  A    
C52   O36   A    
O6    Zn9   S    
O27   Zn7   S    
C158  C162  A    
C38   C42   A    
C162  C171  A    
C105  O62   S    
C98   H120  S    
C165  H77   S    
C98   O55   S    
C51   O35   A    
C68   C114  A    
C167  C176  A    
