data_mof_unit_52488.cif
_audit_creation_date              2012-12-10T17:01:39-0500
_audit_creation_method            fapswitch 2.2
_symmetry_space_group_name_H-M    P1
_symmetry_Int_Tables_number       1
_space_group_crystal_system       triclinic
_cell_length_a                    9.867676
_cell_length_b                    11.031491
_cell_length_c                    13.021717
_cell_angle_alpha                 89.788724
_cell_angle_beta                  74.474047
_cell_angle_gamma                 111.804594
_cell_volume                      1259.59305549

loop_
_atom_site_label
_atom_site_type_symbol
_atom_type_description
_atom_site_fract_x
_atom_site_fract_y
_atom_site_fract_z
_atom_type_partial_charge
C1    C     C_R   0.437902 0.252958 0.507650 0.813441
C2    C     C_R   0.691130 0.515932 0.993674 0.461308
C3    C     C_R   0.310580 0.464224 0.897194 -0.025349
C4    C     C_R   0.684555 0.528379 0.101841 0.018870
C5    C     C_R   0.558963 0.448020 0.857116 0.055598
C6    C     C_R   0.405220 0.419304 0.150504 0.106058
C7    C     C_R   0.555217 0.463999 0.964122 -0.106081
C8    C     C_R   0.412890 0.433418 0.041288 -0.068299
C9    C     C_2   0.399601 0.111404 0.511632 0.004321
C10   C     C_2   0.597434 0.888009 0.500316 0.009595
C11   C     C_2   0.502993 0.066458 0.526026 -0.161027
C12   C     C_R   0.561573 0.747041 0.495168 0.831455
C13   C     C_2   0.480912 0.928164 0.523304 -0.159988
C14   C     C_3   0.261281 0.322602 0.229782 -0.724907
C15   C     C_3   0.674238 0.399306 0.787866 -0.655639
C16   C     C_3   0.832922 0.591132 0.129456 -0.788451
C17   C     C_3   0.198551 0.510537 0.866606 -0.731161
C18   C     C_3   0.036496 0.278893 0.064451 0.058851
C19   C     C_3   0.896565 0.231715 0.162193 -0.803357
C20   C     C_3   0.864258 0.693504 0.875555 0.052759
C21   C     C_3   0.022236 0.748734 0.795220 -0.779362
C22   C     C_3   0.761193 0.983257 0.481196 -0.891353
C23   C     C_2   0.083980 0.507590 0.487867 0.093272
C24   C     C_3   0.249347 0.021601 0.495710 -0.868419
C25   C     C_3   0.039512 0.717963 0.326051 0.160609
C26   C     C_3   0.022650 0.840031 0.286224 -0.834998
C27   C     C_3   0.030635 0.258587 0.658106 0.211513
C28   C     C_3   0.886031 0.172686 0.743682 -0.946700
C29   C     C_2   0.915545 0.479587 0.500371 0.058883
C30   C     C_R   0.469809 0.489376 0.703816 0.823845
C31   C     C_R   0.526597 0.497095 0.296718 0.837503
C32   C     C_R   0.540026 0.481231 0.181656 -0.165797
C33   C     C_R   0.445566 0.467277 0.820372 -0.157450
C34   C     C_R   0.285294 0.424063 0.006312 0.458767
Cu1   Cu    Cu3+1 0.647370 0.522180 0.481340 0.971922
Cu2   Cu    Cu3+1 0.352630 0.477820 0.518660 0.937392
H1    H     H_    0.365081 0.856778 0.537441 0.177519
H2    H     H_    0.716879 0.349033 0.838180 0.239427
H3    H     H_    0.832413 0.678186 0.171250 0.222413
H4    H     H_    0.935830 0.625887 0.059169 0.251982
H5    H     H_    0.847077 0.518059 0.179623 0.242828
H6    H     H_    0.120502 0.529671 0.937487 0.256384
H7    H     H_    0.260907 0.605230 0.813850 0.226540
H8    H     H_    0.128053 0.435760 0.825437 0.259821
H9    H     H_    0.082995 0.200282 0.052771 0.123262
H10   H     H_    0.998595 0.291624 0.993669 0.162653
H11   H     H_    0.841037 0.303484 0.172445 0.251601
H12   H     H_    0.609148 0.134865 0.536858 0.158718
H13   H     H_    0.813459 0.135598 0.151410 0.202560
H14   H     H_    0.929230 0.219597 0.235600 0.238305
H15   H     H_    0.863052 0.758118 0.941076 0.137534
H16   H     H_    0.780681 0.696395 0.833693 0.156997
H17   H     H_    0.027584 0.686754 0.728387 0.270014
H18   H     H_    0.048042 0.850310 0.762042 0.192271
H19   H     H_    0.109127 0.751335 0.835417 0.238053
H20   H     H_    0.842267 0.933306 0.464231 0.265827
H21   H     H_    0.794164 0.057424 0.411730 0.233135
H22   H     H_    0.773997 0.033489 0.553746 0.232751
H23   H     H_    0.831434 0.386712 0.544311 0.123436
H24   H     H_    0.183302 0.077178 0.477912 0.229613
H25   H     H_    0.270752 0.965409 0.426847 0.243996
H26   H     H_    0.178238 0.952270 0.569290 0.242171
H27   H     H_    0.000669 0.638131 0.276010 0.137762
H28   H     H_    0.162885 0.742388 0.313842 0.114522
H29   H     H_    0.073118 0.923775 0.329514 0.239569
H30   H     H_    0.082682 0.866792 0.199084 0.195298
H31   H     H_    0.900460 0.821427 0.299516 0.258578
H32   H     H_    0.128506 0.267605 0.688221 0.178593
H33   H     H_    0.035607 0.208545 0.583775 0.141312
H34   H     H_    0.168717 0.576083 0.420630 0.098712
H35   H     H_    0.784200 0.163860 0.718296 0.252360
H36   H     H_    0.886197 0.073068 0.756033 0.215548
H37   H     H_    0.880044 0.216301 0.820694 0.250224
H38   H     H_    0.287815 0.276093 0.293479 0.207429
H39   H     H_    0.183453 0.371996 0.266679 0.252218
H40   H     H_    0.202959 0.238673 0.189909 0.217168
H41   H     H_    0.619873 0.324810 0.738666 0.184074
H42   H     H_    0.772997 0.482088 0.735211 0.272271
N1    N     N_2   0.131210 0.444490 0.546730 -0.024378
N2    N     N_2   0.868790 0.555510 0.453270 -0.013060
O1    O     O_R   0.578710 0.332530 0.490040 -0.616574
O2    O     O_3   0.831505 0.563275 0.915832 -0.580959
O3    O     O_3   0.962832 0.683774 0.436856 -0.481680
O4    O     O_3   0.026528 0.382836 0.640795 -0.518653
O5    O     O_R   0.421290 0.667470 0.509960 -0.605298
O6    O     O_R   0.329810 0.295070 0.521560 -0.616386
O7    O     O_R   0.670190 0.704930 0.478440 -0.526628
O8    O     O_R   0.604230 0.515670 0.637800 -0.573294
O9    O     O_R   0.395770 0.484330 0.362200 -0.598009
O10   O     O_R   0.355330 0.478200 0.669330 -0.575211
O11   O     O_R   0.644670 0.521800 0.330670 -0.576395
O12   O     O_3   0.144737 0.399180 0.080338 -0.586544

loop_
_geom_bond_atom_site_label_1
_geom_bond_atom_site_label_2
_ccdc_geom_bond_type
Cu2   O9    S    
C6    C32   A    
C24   H25   S    
C20   O2    S    
C2    C7    A    
C30   O10   A    
C22   H21   S    
Cu1   O1    S    
C7    C8    A    
C15   H41   S    
C10   C22   S    
C12   O5    A    
C26   H31   S    
C14   H38   S    
C27   O4    S    
C20   H15   S    
C21   H18   S    
C19   H11   S    
C15   H42   S    
C3    C33   A    
C1    O1    A    
Cu1   N2    S    
C18   C19   S    
C25   H27   S    
C17   H6    S    
C27   H32   S    
Cu1   O7    S    
C29   H23   S    
C31   O9    A    
C5    C33   A    
C13   H1    S    
C27   H33   S    
C30   C33   S    
C23   H34   S    
C11   H12   S    
C28   H36   S    
N2    O3    S    
C28   H37   S    
C18   H10   S    
C26   H30   S    
C1    C9    S    
C21   H19   S    
C22   H20   S    
C3    C34   A    
Cu2   O6    S    
C25   C26   S    
C10   C13   D    
C25   H28   S    
C14   H40   S    
C4    C16   S    
C2    C4    A    
C17   H7    S    
C15   H2    S    
C6    C14   S    
Cu1   O8    S    
C19   H13   S    
C31   C32   S    
C24   H24   S    
C8    C34   A    
C9    C11   D    
C4    C32   A    
C10   C12   S    
C16   H4    S    
C31   O11   A    
C2    O2    S    
C28   H35   S    
C30   O8    A    
C18   H9    S    
C23   C29   S    
C5    C7    A    
Cu2   O10   S    
C1    O6    A    
C24   H26   S    
C12   O7    A    
C26   H29   S    
Cu2   N1    S    
C22   H22   S    
C6    C8    A    
C9    C24   S    
Cu2   O5    S    
C18   O12   S    
C14   H39   S    
C17   H8    S    
C20   H16   S    
C21   H17   S    
C11   C13   S    
C19   H14   S    
N1    O4    S    
C29   N2    D    
C3    C17   S    
C34   O12   S    
C5    C15   S    
C16   H3    S    
C20   C21   S    
C27   C28   S    
C25   O3    S    
Cu1   Cu2   S    
C23   N1    D    
C16   H5    S    
Cu1   O11   S    
