data_mof_unit_43796.cif
_audit_creation_date              2013-03-05T16:10:15-0500
_audit_creation_method            fapswitch 2.2
_symmetry_space_group_name_H-M    P1
_symmetry_Int_Tables_number       1
_space_group_crystal_system       triclinic
_cell_length_a                    9.892951
_cell_length_b                    10.718484
_cell_length_c                    13.184275
_cell_angle_alpha                 90.48107
_cell_angle_beta                  71.974989
_cell_angle_gamma                 88.002077
_cell_volume                      1328.33483446

loop_
_atom_site_label
_atom_site_type_symbol
_atom_site_description
_atom_site_fract_x
_atom_site_fract_y
_atom_site_fract_z
_atom_type_partial_charge
O1    O     O_R   0.385370 0.683250 0.500010 -0.615696
O2    O     O_R   0.614700 0.683220 0.500010 -0.627355
C1    C     C_R   0.496854 0.740628 0.501207 0.865145
O3    O     O_R   0.328400 0.499990 0.653620 -0.607442
O4    O     O_R   0.557730 0.499960 0.653620 -0.662113
C2    C     C_R   0.425243 0.480803 0.700805 0.868979
Zn1   Zn    Zn3+2 0.346870 0.500020 0.500000 0.994982
Zn2   Zn    Zn3+2 0.653130 0.499980 0.500000 0.915654
O5    O     O_R   0.385300 0.316780 0.499990 -0.527029
O6    O     O_R   0.614630 0.316750 0.499990 -0.657011
O7    O     O_R   0.442270 0.500040 0.346380 -0.588833
O8    O     O_R   0.671600 0.500010 0.346380 -0.615243
C3    C     C_R   0.499587 0.260782 0.505479 0.943690
C4    C     C_R   0.577573 0.505650 0.296463 0.892434
C5    C     C_R   0.799910 0.499935 0.005541 -0.225106
H1    H     H_    0.850447 0.401789 0.812609 0.162493
H2    H     H_    0.908274 0.509502 0.954555 0.126863
C6    C     C_R   0.622996 0.506917 0.179726 -0.088057
C7    C     C_R   0.241302 0.430046 0.869199 -0.160813
C8    C     C_R   0.200749 0.411813 0.978389 -0.159189
C9    C     C_R   0.300993 0.418254 0.032350 -0.163109
C10   C     C_R   0.447266 0.428942 0.975298 0.056593
C11   C     C_R   0.490094 0.414614 0.863461 0.077382
C12   C     C_R   0.552814 0.455076 0.023934 0.071448
C13   C     C_R   0.697154 0.459229 0.961212 0.116534
C14   C     C_R   0.738225 0.415962 0.856262 -0.312863
C15   C     C_R   0.635890 0.380045 0.810326 0.166425
C16   C     C_R   0.518651 0.480900 0.132301 -0.261603
C17   C     C_R   0.763864 0.528142 0.114797 0.160940
C18   C     C_R   0.385689 0.438232 0.811355 -0.112538
H3    H     H_    0.409942 0.479651 0.181844 0.193128
H4    H     H_    0.159774 0.438661 0.830326 0.169769
H5    H     H_    0.260691 0.412532 0.117852 0.163869
H6    H     H_    0.090218 0.399396 0.022263 0.144022
C19   C     C_R   0.619574 0.932967 0.463438 -0.231199
H7    H     H_    0.717773 0.880254 0.424538 0.172724
C20   C     C_R   0.622569 0.060222 0.465694 -0.237195
H8    H     H_    0.721597 0.104607 0.426676 0.178643
C21   C     C_R   0.498024 0.129413 0.515972 -0.108941
C22   C     C_R   0.369800 0.072928 0.568440 0.241212
C23   C     C_R   0.361390 0.945154 0.553350 0.121296
C24   C     C_R   0.490384 0.874685 0.505224 -0.092249
C25   C     C_R   0.957763 0.423008 0.432476 -0.190364
H9    H     H_    0.926988 0.361015 0.378974 0.165850
C26   C     C_R   0.100820 0.422365 0.432371 0.353707
N1    N     N_R   0.142790 0.500030 0.500030 -0.106148
C27   C     C_R   0.042085 0.573817 0.569917 -0.148683
H10   H     H_    0.072886 0.629652 0.627062 0.146518
C28   C     C_R   0.898904 0.577507 0.569339 0.225932
N2    N     N_R   0.857180 0.499940 0.500010 -0.126606
C29   C     C_3   0.875714 0.583667 0.156920 -0.407179
C30   C     C_3   0.832795 0.716675 0.200722 -0.811799
H11   H     H_    0.731554 0.719814 0.267342 0.253130
H12   H     H_    0.917030 0.753713 0.230769 0.243540
H13   H     H_    0.820194 0.778009 0.136460 0.255962
H14   H     H_    0.898867 0.523193 0.217785 0.227076
H15   H     H_    0.978148 0.589775 0.092042 0.197403
Br1   Br    Br    0.210376 0.169311 0.664923 -0.580886
C31   C     C_3   0.215812 0.890527 0.574958 -0.370890
C32   C     C_3   0.181738 0.875725 0.469652 -0.771166
H16   H     H_    0.148778 0.967913 0.445229 0.271305
H17   H     H_    0.274906 0.838284 0.404162 0.264018
H18   H     H_    0.094737 0.810789 0.478619 0.238725
H19   H     H_    0.208902 0.802505 0.619032 0.200970
H20   H     H_    0.129176 0.949711 0.628782 0.236091
Br2   Br    Br    0.229884 0.304217 0.338333 -0.544111
C33   C     C_3   0.796376 0.664682 0.651389 -0.380788
C34   C     C_3   0.834416 0.801494 0.637518 -0.914994
H21   H     H_    0.848629 0.830086 0.554303 0.272990
H22   H     H_    0.746982 0.860989 0.691504 0.262049
H23   H     H_    0.931668 0.817501 0.659535 0.258703
H24   H     H_    0.687864 0.663107 0.649371 0.282099
H25   H     H_    0.794627 0.636073 0.732532 0.191762
C35   C     C_3   0.683103 0.278838 0.724018 -0.383004
C36   C     C_3   0.583663 0.169520 0.744949 -0.833447
H26   H     H_    0.569213 0.132997 0.826075 0.268141
H27   H     H_    0.478520 0.198758 0.737826 0.270442
H28   H     H_    0.630445 0.093116 0.685846 0.254141
H29   H     H_    0.698851 0.317036 0.644799 0.260343
H30   H     H_    0.789923 0.238938 0.720418 0.218526

loop_
_geom_bond_atom_site_label_1
_geom_bond_atom_site_label_2
_geom_bond_distance
_ccdc_geom_bond_type
C1    C24   1.435881 S    
C23   C24   1.423117 A    
C4    C6    1.464134 S    
C7    C8    1.387206 A    
C25   H9    1.082083 S    
C27   C28   1.418036 A    
C26   N1    1.379108 A    
Zn1   O7    1.951897 S    
C31   H19   1.105239 S    
C32   H18   1.104263 S    
C19   C20   1.365601 A    
C33   H24   1.082737 S    
O4    C2    1.289718 A    
O7    C4    1.299829 A    
C5    C13   1.399877 A    
C9    H5    1.076198 S    
C32   H17   1.109953 S    
C29   H14   1.108459 S    
C19   C24   1.397469 A    
O5    C3    1.283702 A    
C19   H7    1.083772 S    
C34   H21   1.109305 S    
C33   H25   1.110524 S    
C11   C15   1.428812 A    
C15   C35   1.518142 S    
C30   H13   1.111111 S    
C8    H6    1.080741 S    
C31   C32   1.534958 S    
C35   H30   1.113104 S    
C9    C10   1.418565 A    
O3    Zn1   1.976483 S    
C7    H4    1.083115 S    
C30   H12   1.110729 S    
C5    C17   1.400281 A    
H1    C14   1.085457 S    
C22   Br1   1.948230 S    
C35   C36   1.527963 S    
C29   C30   1.529214 S    
Zn1   N1    2.018827 S    
C6    C16   1.396745 A    
C12   C13   1.413902 A    
C23   C31   1.518493 S    
O3    C2    1.305552 A    
C21   C22   1.404187 A    
C13   C14   1.386694 A    
C33   C34   1.525070 S    
C32   H16   1.110963 S    
O1    C1    1.285613 A    
C36   H26   1.110865 S    
C11   C18   1.423607 A    
C20   H8    1.084182 S    
C25   C26   1.414607 A    
C27   H10   1.079751 S    
Zn2   O8    1.976484 S    
C14   C15   1.393796 A    
C6    C17   1.419072 A    
C36   H27   1.107792 S    
C29   H15   1.109945 S    
Zn2   O6    2.013541 S    
C22   C23   1.391314 A    
C2    C18   1.468445 S    
O8    C4    1.295244 A    
C35   H29   1.092561 S    
C10   C12   1.418342 A    
Zn2   N2    2.018683 S    
C30   H11   1.108364 S    
C17   C29   1.519107 S    
C5    H2    1.083746 S    
N1    C27   1.353425 A    
C28   C33   1.519878 S    
O1    Zn1   2.013539 S    
C16   H3    1.072312 S    
O2    Zn2   1.987449 S    
C12   C16   1.385700 A    
O6    C3    1.287543 A    
O4    Zn2   1.951896 S    
C25   N2    1.358325 A    
O2    C1    1.294791 A    
C20   C21   1.389281 A    
C31   H20   1.103953 S    
C34   H23   1.105829 S    
C36   H28   1.109829 S    
C3    C21   1.416167 S    
Zn1   O5    1.987449 S    
C8    C9    1.391033 A    
C34   H22   1.111015 S    
C28   N2    1.393469 A    
C26   Br2   1.911111 S    
C10   C11   1.407926 A    
C7    C18   1.401923 A    
