data_mof_unit_58858.cif
_audit_creation_date              2012-12-11T16:26:13-0500
_audit_creation_method            fapswitch 2.2
_symmetry_space_group_name_H-M    P1
_symmetry_Int_Tables_number       1
_space_group_crystal_system       triclinic
_cell_length_a                    13.928231
_cell_length_b                    13.926307
_cell_length_c                    31.741801
_cell_angle_alpha                 90.061439
_cell_angle_beta                  89.967196
_cell_angle_gamma                 119.987643
_cell_volume                      5332.70961774

loop_
_atom_site_label
_atom_site_type_symbol
_atom_type_description
_atom_site_fract_x
_atom_site_fract_y
_atom_site_fract_z
_atom_type_partial_charge
C1    C     C_R   0.565268 0.445380 0.810014 0.587528
C2    C     C_R   0.880734 0.434985 0.690118 0.544344
C3    C     C_R   0.554553 0.120031 0.810035 0.550861
C4    C     C_R   0.565017 0.445509 0.690132 0.583903
C5    C     C_R   0.880549 0.434954 0.809964 0.547988
C6    C     C_R   0.554399 0.119395 0.690084 0.570176
C7    C     C_R   0.445542 0.565030 0.309860 0.583523
C8    C     C_R   0.434921 0.880411 0.190033 0.545180
C9    C     C_R   0.119423 0.554430 0.309916 0.573570
C10   C     C_R   0.445603 0.564745 0.190242 0.586279
C11   C     C_R   0.435009 0.880770 0.309879 0.544458
C12   C     C_R   0.119150 0.554225 0.190173 0.573268
C13   C     C_1   0.003953 0.514299 0.018743 -0.021542
C14   C     C_1   0.517936 0.010941 0.480107 -0.026974
C15   C     C_1   0.504505 0.491572 0.020422 -0.023521
C16   C     C_1   0.011316 0.517797 0.482041 -0.022841
C17   C     C_1   0.524591 0.039433 0.022310 -0.029126
C18   C     C_1   0.497365 0.498689 0.481107 -0.021820
C19   C     C_1   0.517691 0.011318 0.517955 -0.022808
C20   C     C_1   0.003574 0.514892 0.980889 -0.028568
C21   C     C_1   0.498567 0.497455 0.518901 -0.021807
C22   C     C_1   0.525853 0.046266 0.984581 -0.025376
C23   C     C_1   0.010854 0.517983 0.519891 -0.026966
C24   C     C_1   0.506294 0.490843 0.982626 -0.023068
C25   C     C_R   0.948401 0.481146 0.849345 -0.030142
C26   C     C_R   0.533274 0.052980 0.650419 0.023047
C27   C     C_R   0.521275 0.465822 0.850061 0.026119
C28   C     C_R   0.949665 0.481459 0.651036 -0.028500
C29   C     C_R   0.535730 0.060236 0.851012 -0.028490
C30   C     C_R   0.519458 0.466963 0.650738 0.023582
C31   C     C_R   0.481541 0.949802 0.348956 -0.028375
C32   C     C_R   0.051352 0.532347 0.150859 0.022711
C33   C     C_R   0.467051 0.519524 0.349253 0.023592
C34   C     C_R   0.482686 0.951022 0.151390 -0.031427
C35   C     C_R   0.053093 0.533386 0.349580 0.023651
C36   C     C_R   0.467775 0.517392 0.151455 0.025466
C37   C     C_R   0.950861 0.572495 0.870568 -0.002204
C38   C     C_R   0.622318 0.051631 0.628892 -0.002190
C39   C     C_R   0.437574 0.375295 0.873324 -0.007804
C40   C     C_R   0.953221 0.573110 0.629696 -0.000910
C41   C     C_R   0.628037 0.070266 0.873548 -0.011164
C42   C     C_R   0.434977 0.377146 0.627374 -0.007381
C43   C     C_R   0.573171 0.953363 0.370322 -0.000717
C44   C     C_R   0.048701 0.620859 0.129497 -0.004703
C45   C     C_R   0.377288 0.434916 0.372558 -0.007349
C46   C     C_R   0.567292 0.946361 0.127728 -0.000904
C47   C     C_R   0.051861 0.622500 0.371128 -0.005322
C48   C     C_R   0.378395 0.433076 0.127838 -0.007625
C49   C     C_R   0.976627 0.588822 0.914031 0.010820
C50   C     C_R   0.614969 0.032573 0.584943 -0.026660
C51   C     C_R   0.430574 0.385195 0.917356 -0.024367
C52   C     C_R   0.983070 0.591195 0.586604 0.010889
C53   C     C_R   0.628500 0.078203 0.918030 0.008578
C54   C     C_R   0.425199 0.389172 0.583672 -0.025028
C55   C     C_R   0.591241 0.983242 0.413421 0.010918
C56   C     C_R   0.027169 0.612467 0.085727 -0.028151
C57   C     C_R   0.389250 0.425180 0.416268 -0.025061
C58   C     C_R   0.585989 0.981808 0.085290 0.008552
C59   C     C_R   0.032817 0.615176 0.415073 -0.026747
C60   C     C_R   0.392732 0.420852 0.084515 -0.025798
C61   C     C_R   0.000963 0.514861 0.935451 0.033915
C62   C     C_R   0.518048 0.012273 0.563379 0.047453
C63   C     C_R   0.504444 0.486264 0.937286 0.045896
C64   C     C_R   0.007480 0.517010 0.565281 0.040722
C65   C     C_R   0.528163 0.049333 0.939215 0.037198
C66   C     C_R   0.497196 0.491443 0.564200 0.046839
C67   C     C_R   0.517046 0.007650 0.434719 0.040769
C68   C     C_R   0.005685 0.515065 0.064184 0.047177
C69   C     C_R   0.491422 0.497334 0.435805 0.047000
C70   C     C_R   0.522563 0.024569 0.067290 0.036036
C71   C     C_R   0.012370 0.518192 0.436614 0.047784
C72   C     C_R   0.496585 0.490362 0.065670 0.045939
C73   C     C_R   0.021024 0.439353 0.912916 -0.029548
C74   C     C_R   0.422140 0.991985 0.585853 -0.028539
C75   C     C_R   0.572987 0.581975 0.913323 -0.024909
C76   C     C_R   0.023247 0.438780 0.587921 -0.025647
C77   C     C_R   0.428470 0.012597 0.916396 -0.028939
C78   C     C_R   0.566105 0.586255 0.588560 -0.020921
C79   C     C_R   0.438868 0.023455 0.412055 -0.025656
C80   C     C_R   0.986137 0.419537 0.086699 -0.028268
C81   C     C_R   0.586227 0.566373 0.411503 -0.020874
C82   C     C_R   0.453369 0.047975 0.092446 -0.025468
C83   C     C_R   0.992018 0.422248 0.414113 -0.028462
C84   C     C_R   0.590468 0.558445 0.090557 -0.014461
C85   C     C_R   0.997431 0.424433 0.869229 0.004480
C86   C     C_R   0.428655 0.007348 0.630026 -0.007142
C87   C     C_R   0.577001 0.572450 0.869073 0.017806
C88   C     C_R   0.999093 0.424670 0.631507 -0.005563
C89   C     C_R   0.432230 0.017111 0.871874 -0.000805
C90   C     C_R   0.573249 0.574584 0.632525 0.015523
C91   C     C_R   0.424802 0.999309 0.368461 -0.006171
C92   C     C_R   0.004538 0.427204 0.130702 -0.007733
C93   C     C_R   0.574620 0.573475 0.367531 0.014169
C94   C     C_R   0.434524 0.012604 0.134988 -0.003673
C95   C     C_R   0.007410 0.428754 0.369946 -0.007304
C96   C     C_R   0.576457 0.568156 0.134204 0.026317
Cr1   Cr    Cr6+3 0.504240 0.249200 0.750000 1.159150
Cr2   Cr    Cr6+3 0.744960 0.495760 0.750000 1.092669
Cr3   Cr    Cr6+3 0.750800 0.255040 0.750000 1.119086
Cr4   Cr    Cr6+3 0.249200 0.504240 0.250000 1.160840
Cr5   Cr    Cr6+3 0.495760 0.744960 0.250000 1.087860
Cr6   Cr    Cr6+3 0.255040 0.750800 0.250000 1.151336
O1    O     O_R   0.480350 0.140770 0.796330 -0.457699
O2    O     O_R   0.660420 0.519650 0.703670 -0.456767
O3    O     O_R   0.859230 0.339580 0.796330 -0.454549
O4    O     O_R   0.480350 0.140770 0.703670 -0.470422
O5    O     O_R   0.660420 0.519650 0.796330 -0.454237
O6    O     O_R   0.859230 0.339580 0.703670 -0.462674
O7    O     O_R   0.140770 0.480350 0.296330 -0.471299
O8    O     O_R   0.519650 0.660420 0.203670 -0.456785
O9    O     O_R   0.339580 0.859230 0.296330 -0.461442
O10   O     O_R   0.140770 0.480350 0.203670 -0.470026
O11   O     O_R   0.519650 0.660420 0.296330 -0.457351
O12   O     O_R   0.339580 0.859230 0.203670 -0.469019
O13   O     O_R   0.514930 0.348530 0.793250 -0.472200
O14   O     O_R   0.833600 0.485070 0.706750 -0.519006
O15   O     O_R   0.651470 0.166400 0.793250 -0.518266
O16   O     O_R   0.514930 0.348530 0.706750 -0.472119
O17   O     O_R   0.833600 0.485070 0.793250 -0.519107
O18   O     O_R   0.651470 0.166400 0.706750 -0.477651
O19   O     O_R   0.348530 0.514930 0.293250 -0.472592
O20   O     O_R   0.485070 0.833600 0.206750 -0.518318
O21   O     O_R   0.166400 0.651470 0.293250 -0.470695
O22   O     O_R   0.348530 0.514930 0.206750 -0.471238
O23   O     O_R   0.485070 0.833600 0.293250 -0.519024
O24   O     O_R   0.166400 0.651470 0.206750 -0.470200
O25   O     O_3   0.666667 0.333333 0.750000 -0.284570
O26   O     O_3   0.333333 0.666667 0.250000 -0.291704
C97   C     C_2   0.931307 0.653285 0.846816 0.264204
H1    H     H_    0.966471 0.679382 0.815567 0.138710
O27   O     O_2   0.873753 0.688766 0.861172 -0.540302
C98   C     C_2   0.723081 0.070473 0.651877 0.267224
H2    H     H_    0.804888 0.129194 0.640041 0.081847
O28   O     O_2   0.714976 0.018676 0.683977 -0.449187
C99   C     C_2   0.357525 0.270510 0.852030 0.272025
H3    H     H_    0.343632 0.191477 0.863778 0.079144
O29   O     O_2   0.305248 0.272117 0.821430 -0.423926
C100  C     C_2   0.929968 0.652285 0.652843 0.262271
H4    H     H_    0.963442 0.679372 0.684259 0.138789
O30   O     O_2   0.871214 0.685349 0.637709 -0.542319
C101  C     C_2   0.717336 0.063161 0.849881 0.263027
H5    H     H_    0.702433 0.033066 0.817662 0.162868
O31   O     O_2   0.805989 0.086016 0.865738 -0.545866
C102  C     C_2   0.357312 0.270604 0.648085 0.267811
H6    H     H_    0.344957 0.192940 0.635340 0.074852
O32   O     O_2   0.304978 0.269161 0.679192 -0.427104
C103  C     C_2   0.652324 0.930076 0.347197 0.262410
H7    H     H_    0.679361 0.963475 0.315781 0.140026
O33   O     O_2   0.685434 0.871380 0.362348 -0.542637
C104  C     C_2   0.068855 0.722225 0.152436 0.265128
H8    H     H_    0.127346 0.803751 0.140282 0.080158
O34   O     O_2   0.018337 0.714943 0.184840 -0.426025
C105  C     C_2   0.270889 0.357050 0.351765 0.268038
H9    H     H_    0.193110 0.344425 0.364463 0.074742
O35   O     O_2   0.269700 0.304878 0.320631 -0.426593
C106  C     C_2   0.638800 0.907787 0.147569 0.257107
H10   H     H_    0.675512 0.939668 0.178219 0.139028
O36   O     O_2   0.655207 0.838757 0.130467 -0.549017
C107  C     C_2   0.070788 0.723302 0.348165 0.268893
H11   H     H_    0.129623 0.805105 0.360009 0.078533
O37   O     O_2   0.018945 0.715236 0.316070 -0.422627
C108  C     C_2   0.269656 0.358413 0.147734 0.263807
H12   H     H_    0.194008 0.348839 0.134046 0.074556
O38   O     O_2   0.264044 0.305056 0.179072 -0.431788
C109  C     C_3   0.026684 0.705817 0.061138 -0.413210
H13   H     H_    0.027270 0.771409 0.081000 0.118621
H14   H     H_    0.099980 0.744879 0.040015 0.128341
H15   H     H_    0.949932 0.671956 0.041925 0.135702
C110  C     C_3   0.689620 0.989138 0.436466 -0.360437
H16   H     H_    0.766194 0.035635 0.417408 0.149054
H17   H     H_    0.707256 0.034171 0.466770 0.108186
H18   H     H_    0.674199 0.904153 0.442718 0.166274
C111  C     C_3   0.298783 0.334931 0.057482 -0.409810
H19   H     H_    0.224339 0.275515 0.075321 0.116029
H20   H     H_    0.273144 0.377419 0.034274 0.130372
H21   H     H_    0.327585 0.284289 0.040453 0.133674
C112  C     C_3   0.033936 0.709208 0.439858 -0.412377
H22   H     H_    0.034246 0.774803 0.420153 0.117127
H23   H     H_    0.958002 0.676039 0.459539 0.137183
H24   H     H_    0.108097 0.748211 0.460554 0.127525
C113  C     C_3   0.673990 0.973884 0.059589 -0.359801
H25   H     H_    0.754063 0.014023 0.076848 0.142457
H26   H     H_    0.647489 0.885570 0.053487 0.175254
H27   H     H_    0.690972 0.016145 0.028777 0.109758
C114  C     C_3   0.294774 0.338806 0.442956 -0.408305
H28   H     H_    0.221300 0.278566 0.424862 0.114544
H29   H     H_    0.323892 0.289184 0.460464 0.134974
H30   H     H_    0.267381 0.380804 0.465752 0.129772
C115  C     C_3   0.708921 0.033549 0.560182 -0.412513
H31   H     H_    0.774341 0.033543 0.579908 0.117190
H32   H     H_    0.675647 0.957695 0.540420 0.137094
H33   H     H_    0.748139 0.107826 0.539569 0.127538
C116  C     C_3   0.979622 0.685824 0.937151 -0.358003
H34   H     H_    0.030089 0.763726 0.919233 0.151879
H35   H     H_    0.894072 0.670885 0.941282 0.166397
H36   H     H_    0.018869 0.700615 0.968545 0.107833
C117  C     C_3   0.338952 0.294649 0.556924 -0.408198
H37   H     H_    0.278796 0.221090 0.574974 0.114531
H38   H     H_    0.289237 0.323670 0.539423 0.134930
H39   H     H_    0.381050 0.267398 0.534122 0.129846
C118  C     C_3   0.736049 0.120794 0.942401 -0.354530
H40   H     H_    0.802917 0.195762 0.926744 0.168138
H41   H     H_    0.731866 0.148289 0.974750 0.105802
H42   H     H_    0.759252 0.055396 0.944376 0.166035
C119  C     C_3   0.988947 0.689598 0.563596 -0.360452
H43   H     H_    0.035496 0.766182 0.582677 0.148863
H44   H     H_    0.033897 0.707225 0.533288 0.108148
H45   H     H_    0.903969 0.674199 0.557354 0.166445
C120  C     C_3   0.345014 0.289887 0.943950 -0.404778
H46   H     H_    0.284232 0.216929 0.925771 0.116009
H47   H     H_    0.387612 0.261776 0.966113 0.131205
H48   H     H_    0.295931 0.318520 0.962142 0.136195
C121  C     C_2   0.970883 0.324314 0.155434 0.265007
H49   H     H_    0.976165 0.255592 0.141884 0.091868
O39   O     O_2   0.932506 0.313762 0.190845 -0.418467
C122  C     C_2   0.353436 0.029721 0.343482 0.281938
H50   H     H_    0.278796 0.022962 0.357019 0.099095
O40   O     O_2   0.380224 0.067179 0.307920 -0.392617
C123  C     C_2   0.675914 0.628242 0.161706 0.315864
H51   H     H_    0.751989 0.697317 0.149667 0.134585
O41   O     O_2   0.674980 0.598060 0.197893 -0.399782
C124  C     C_2   0.971793 0.325246 0.345264 0.263961
H52   H     H_    0.976611 0.256186 0.358658 0.092790
O42   O     O_2   0.932301 0.314591 0.310063 -0.419114
C125  C     C_2   0.364963 0.040518 0.162131 0.287494
H53   H     H_    0.286628 0.029274 0.150675 0.099316
O43   O     O_2   0.395811 0.077865 0.197501 -0.393774
C126  C     C_2   0.675525 0.634049 0.340786 0.316088
H54   H     H_    0.750131 0.704557 0.353055 0.139809
O44   O     O_2   0.677532 0.602671 0.305019 -0.396666
C127  C     C_2   0.325175 0.971757 0.654683 0.262789
H55   H     H_    0.256117 0.976559 0.641276 0.093634
O45   O     O_2   0.314540 0.932298 0.689879 -0.425451
C128  C     C_2   0.025057 0.350873 0.844460 0.299457
H56   H     H_    0.007105 0.270977 0.856706 0.150818
O46   O     O_2   0.070049 0.380281 0.810129 -0.403321
C129  C     C_2   0.633728 0.675471 0.659331 0.313821
H57   H     H_    0.704144 0.750167 0.647100 0.139784
O47   O     O_2   0.602385 0.677351 0.695110 -0.406797
C130  C     C_2   0.327254 0.971455 0.847251 0.262519
H58   H     H_    0.255233 0.971781 0.860037 0.097147
O48   O     O_2   0.319079 0.929175 0.812733 -0.430877
C131  C     C_2   0.029431 0.353205 0.656453 0.281185
H59   H     H_    0.022535 0.278506 0.642887 0.099289
O49   O     O_2   0.066982 0.379975 0.692017 -0.397543
C132  C     C_2   0.636064 0.674480 0.842816 0.302042
H60   H     H_    0.706631 0.748951 0.855129 0.142064
O50   O     O_2   0.603347 0.677559 0.807422 -0.419450
C133  C     C_3   0.944939 0.309151 0.064406 -0.414199
H61   H     H_    0.927228 0.311071 0.030511 0.139309
H62   H     H_    0.008108 0.283042 0.067010 0.106302
H63   H     H_    0.866213 0.245251 0.078993 0.136758
C134  C     C_3   0.370616 0.066638 0.433798 -0.413365
H64   H     H_    0.281440 0.002476 0.432624 0.106149
H65   H     H_    0.393079 0.089245 0.467273 0.139164
H66   H     H_    0.383151 0.142913 0.417760 0.148691
C135  C     C_3   0.705458 0.620370 0.071146 -0.410961
H67   H     H_    0.707244 0.602867 0.037185 0.136196
H68   H     H_    0.739540 0.711057 0.074586 0.145268
H69   H     H_    0.761057 0.596299 0.087246 0.140059
C136  C     C_3   0.953107 0.312576 0.436576 -0.415502
H70   H     H_    0.939175 0.315409 0.470796 0.142327
H71   H     H_    0.872903 0.248464 0.423039 0.135662
H72   H     H_    0.015845 0.286254 0.432699 0.104649
C137  C     C_3   0.401717 0.111260 0.072930 -0.402712
H73   H     H_    0.337318 0.057493 0.049795 0.116672
H74   H     H_    0.363810 0.142113 0.095959 0.136420
H75   H     H_    0.466562 0.185860 0.056358 0.150994
C138  C     C_3   0.699760 0.632158 0.431866 -0.412128
H76   H     H_    0.699988 0.617342 0.466137 0.137808
H77   H     H_    0.758020 0.609296 0.417216 0.139838
H78   H     H_    0.731728 0.722208 0.427422 0.141139
C139  C     C_3   0.312507 0.953180 0.563356 -0.415558
H79   H     H_    0.315341 0.939281 0.529131 0.142298
H80   H     H_    0.248353 0.872970 0.576848 0.135397
H81   H     H_    0.286256 0.015975 0.567256 0.104703
C140  C     C_3   0.068551 0.377308 0.936370 -0.398169
H82   H     H_    0.004124 0.314007 0.957254 0.122112
H83   H     H_    0.100840 0.335928 0.915710 0.131427
H84   H     H_    0.139972 0.436302 0.955969 0.146057
C141  C     C_3   0.631711 0.699861 0.568267 -0.412175
H85   H     H_    0.616849 0.700126 0.533998 0.137779
H86   H     H_    0.608731 0.758001 0.582959 0.139668
H87   H     H_    0.721777 0.731966 0.572720 0.141160
C142  C     C_3   0.318015 0.969517 0.938855 -0.413741
H88   H     H_    0.323126 0.965900 0.973567 0.141080
H89   H     H_    0.283344 0.024228 0.931787 0.105660
H90   H     H_    0.259116 0.883953 0.928019 0.134770
C143  C     C_3   0.066410 0.370523 0.566159 -0.413395
H91   H     H_    0.002210 0.281346 0.567258 0.106174
H92   H     H_    0.089122 0.393089 0.532708 0.139153
H93   H     H_    0.142617 0.382958 0.582234 0.148584
C144  C     C_3   0.641503 0.694319 0.934328 -0.407737
H94   H     H_    0.630260 0.692947 0.968912 0.139259
H95   H     H_    0.730902 0.725795 0.928357 0.146353
H96   H     H_    0.618051 0.753827 0.921400 0.137293

loop_
_geom_bond_atom_site_label_1
_geom_bond_atom_site_label_2
_ccdc_geom_bond_type
C68   C80   A    
C39   C51   A    
C91   C122  S    
C109  H13   S    
C82   C94   A    
C70   C82   A    
C140  H82   S    
C21   C66   S    
C117  H39   S    
C18   C21   T    
C33   C45   A    
C118  H40   S    
C103  H7    S    
C30   C90   A    
C35   C47   A    
C143  H93   S    
C88   C131  S    
C29   C89   A    
C118  H41   S    
C4    C30   S    
C99   H3    S    
C78   C141  S    
C9    O21   A    
C47   C107  S    
C111  H19   S    
C78   C90   A    
C141  H87   S    
C97   O27   D    
Cr3   O6    S    
C79   C134  S    
C45   C57   A    
C133  H61   S    
C142  H88   S    
C54   C117  S    
C31   C43   A    
C5    O17   A    
C58   C113  S    
C86   C127  S    
C119  H45   S    
C106  H10   S    
C11   O23   A    
C139  H79   S    
C122  O40   D    
C75   C144  S    
Cr4   O19   S    
C142  H90   S    
Cr6   O26   S    
C55   C110  S    
C101  O31   D    
C84   C96   A    
C136  H70   S    
C9    C35   S    
C24   C63   S    
C114  H29   S    
C48   C108  S    
C60   C72   A    
C19   C62   S    
C3    O1    A    
C131  H59   S    
Cr1   O16   S    
Cr5   O26   S    
C37   C49   A    
C115  H32   S    
C135  H67   S    
C110  H16   S    
C56   C68   A    
C2    O6    A    
C20   C61   S    
C3    C29   S    
C50   C115  S    
C36   C96   A    
C3    O15   A    
C94   C125  S    
C139  H80   S    
Cr3   O18   S    
C2    O14   A    
C27   C39   A    
C98   H2    S    
C116  H35   S    
C40   C100  S    
C56   C109  S    
C28   C88   A    
Cr5   O23   S    
C14   C67   S    
C107  O37   D    
C36   C48   A    
C134  H64   S    
C34   C46   A    
Cr1   O13   S    
C53   C65   A    
C137  H73   S    
C76   C88   A    
C62   C74   A    
C57   C114  S    
C13   C20   T    
C8    O12   A    
C5    O3    A    
C25   C37   A    
C116  H36   S    
C18   C69   S    
C121  O39   D    
C41   C53   A    
C11   C31   S    
C17   C70   S    
C109  H14   S    
C138  H76   S    
C46   C58   A    
Cr5   O20   S    
C60   C111  S    
C110  H17   S    
C89   C130  S    
C4    O16   A    
Cr6   O9    S    
C115  H31   S    
C16   C71   S    
C128  O46   D    
C7    O19   A    
Cr3   O3    S    
C6    O18   A    
C126  H54   S    
C48   C60   A    
C71   C83   A    
C113  H26   S    
C6    C26   S    
C9    O7    A    
C66   C78   A    
C120  H46   S    
C132  O50   D    
C133  H62   S    
C95   C124  S    
C49   C61   A    
C7    C33   S    
C11   O9    A    
C85   C128  S    
Cr2   O25   S    
C84   C135  S    
C59   C112  S    
C67   C79   A    
C122  H50   S    
C102  O32   D    
C52   C64   A    
C123  H51   S    
C136  H71   S    
C138  H77   S    
C26   C38   A    
C114  H30   S    
C39   C99   S    
C131  O49   D    
Cr5   O8    S    
C113  H25   S    
C117  H37   S    
C108  H12   S    
C44   C104  S    
Cr2   O5    S    
C52   C119  S    
C72   C84   A    
C135  H68   S    
C38   C98   S    
C80   C92   A    
C115  H33   S    
C27   C87   A    
C22   C65   S    
C41   C101  S    
C144  H94   S    
Cr6   O12   S    
C136  H72   S    
C65   C77   A    
C81   C93   A    
C44   C56   A    
Cr2   O14   S    
C107  H11   S    
C130  O48   D    
C121  H49   S    
C81   C138  S    
C26   C86   A    
C112  H24   S    
C83   C95   A    
C25   C85   A    
C143  H91   S    
C64   C76   A    
C51   C63   A    
C92   C121  S    
C127  O45   D    
C144  H96   S    
C8    C34   S    
C74   C86   A    
C117  H38   S    
C124  O42   D    
C6    O4    A    
Cr2   O17   S    
C76   C143  S    
Cr1   O1    S    
C111  H20   S    
C100  O30   D    
C1    O5    A    
C69   C81   A    
Cr3   O25   S    
Cr1   O4    S    
C139  H81   S    
C43   C55   A    
C15   C24   T    
Cr4   O10   S    
C16   C23   T    
C31   C91   A    
C80   C133  S    
C129  O47   D    
C42   C102  S    
C126  O44   D    
C50   C62   A    
C110  H18   S    
C5    C25   S    
C83   C136  S    
C105  O35   D    
C128  H56   S    
Cr6   O21   S    
C137  H74   S    
C12   O10   A    
C46   C106  S    
C63   C75   A    
C87   C132  S    
C134  H65   S    
C97   H1    S    
C73   C85   A    
C113  H27   S    
C75   C87   A    
Cr1   O25   S    
C99   O29   D    
C119  H43   S    
C132  H60   S    
C120  H47   S    
C133  H63   S    
C90   C129  S    
C29   C41   A    
Cr4   O26   S    
C77   C89   A    
C79   C91   A    
C14   C19   T    
C45   C105  S    
C58   C70   A    
C34   C94   A    
C77   C142  S    
C102  H6    S    
Cr6   O24   S    
C33   C93   A    
C134  H66   S    
C55   C67   A    
C111  H21   S    
C109  H15   S    
C38   C50   A    
C35   C95   A    
C51   C120  S    
C141  H86   S    
C96   C123  S    
C103  O33   D    
C74   C139  S    
C10   O22   A    
C17   C22   T    
C30   C42   A    
C135  H69   S    
C73   C140  S    
C7    O11   A    
C112  H22   S    
C140  H83   S    
C141  H85   S    
C23   C64   S    
C61   C73   A    
C144  H95   S    
C108  O38   D    
C40   C52   A    
C101  H5    S    
C42   C54   A    
Cr3   O15   S    
C93   C126  S    
C8    O20   A    
C114  H28   S    
C32   C92   A    
C49   C116  S    
C112  H23   S    
Cr2   O2    S    
C4    O2    A    
C106  O36   D    
C130  H58   S    
C125  O43   D    
C15   C72   S    
C10   O8    A    
C82   C137  S    
C104  O34   D    
C123  O41   D    
C124  H52   S    
Cr5   O11   S    
C137  H75   S    
C129  H57   S    
C138  H78   S    
C43   C103  S    
C100  H4    S    
C142  H89   S    
C47   C59   A    
C118  H42   S    
Cr4   O7    S    
C12   O24   A    
C32   C44   A    
C98   O28   D    
C116  H34   S    
C140  H84   S    
C127  H55   S    
C1    C27   S    
C28   C40   A    
C104  H8    S    
C143  H92   S    
C2    C28   S    
C1    O13   A    
C10   C36   S    
C57   C69   A    
C105  H9    S    
C54   C66   A    
C119  H44   S    
Cr4   O22   S    
C120  H48   S    
C37   C97   S    
C12   C32   S    
C59   C71   A    
C125  H53   S    
C13   C68   S    
C53   C118  S    
