data_mof_unit_10344.cif
_audit_creation_date              2012-12-11T16:41:19-0500
_audit_creation_method            fapswitch 2.2
_symmetry_space_group_name_H-M    P1
_symmetry_Int_Tables_number       1
_space_group_crystal_system       triclinic
_cell_length_a                    6.933431
_cell_length_b                    23.403041
_cell_length_c                    23.324145
_cell_angle_alpha                 112.567921
_cell_angle_beta                  91.128761
_cell_angle_gamma                 90.593431
_cell_volume                      3493.50910746

loop_
_atom_site_label
_atom_site_type_symbol
_atom_type_description
_atom_site_fract_x
_atom_site_fract_y
_atom_site_fract_z
_atom_type_partial_charge
O1    O     O_R   0.505740 0.453370 0.547760 -0.544821
O2    O     O_R   0.169520 0.427650 0.423350 -0.548215
O3    O     O_R   0.005620 0.546630 0.452240 -0.540531
C1    C     C_R   0.336317 0.408665 0.399018 0.784443
O4    O     O_R   0.175610 0.445960 0.545510 -0.511935
O5    O     O_R   0.011740 0.565080 0.575280 -0.524040
C2    C     C_R   0.345368 0.435545 0.563838 0.737183
O6    O     O_R   0.499610 0.434920 0.424720 -0.538309
O7    O     O_3   0.341310 0.539060 0.509620 -0.353985
V1    V     V_3+5 0.063960 0.492750 0.498220 1.595033
O8    O     O_R   0.682400 0.572350 0.576650 -0.533523
C3    C     C_R   0.853456 0.589409 0.601413 0.781257
O9    O     O_R   0.676320 0.554040 0.454490 -0.488988
C4    C     C_R   0.845001 0.568678 0.440209 0.844854
V2    V     V_3+5 0.564740 0.507250 0.501780 1.640806
O10   O     O_3   0.837250 0.460940 0.490380 -0.386784
C5    C     C_R   0.773409 0.875784 0.113927 -0.097671
H1    H     H_    0.641019 0.886881 0.095384 0.125048
C6    C     C_R   0.761164 0.841264 0.151242 -0.133103
H2    H     H_    0.620005 0.827372 0.160889 0.105175
C7    C     C_R   0.928461 0.826156 0.177016 0.104969
C8    C     C_R   0.108746 0.845868 0.163832 -0.119542
H3    H     H_    0.240565 0.834316 0.182280 0.108720
C9    C     C_R   0.121183 0.880165 0.126159 -0.180140
H4    H     H_    0.262207 0.894763 0.117197 0.115968
C10   C     C_R   0.953470 0.895960 0.101044 -0.035822
C11   C     C_R   0.031374 0.806177 0.271835 -0.167074
H5    H     H_    0.131716 0.845114 0.285043 0.120880
C12   C     C_R   0.018165 0.772454 0.309970 -0.068682
H6    H     H_    0.109645 0.785452 0.351358 0.158168
C13   C     C_R   0.889941 0.721695 0.294317 0.112482
C14   C     C_R   0.771432 0.706068 0.240878 -0.048145
H7    H     H_    0.672535 0.666770 0.227875 0.199292
C15   C     C_R   0.783165 0.740080 0.202995 -0.164700
H8    H     H_    0.692284 0.726257 0.161438 0.145585
C16   C     C_R   0.914433 0.790307 0.217715 0.059609
C17   C     C_R   0.737505 0.694217 0.376242 -0.161953
H9    H     H_    0.636216 0.730749 0.381721 0.205691
C18   C     C_R   0.723794 0.659340 0.413607 0.474061
C19   C     C_R   0.855095 0.610697 0.405398 -0.276290
C20   C     C_R   0.003855 0.602265 0.362990 -0.164233
H10   H     H_    0.108874 0.567462 0.358166 0.257037
C21   C     C_R   0.020196 0.638083 0.326918 0.490163
C22   C     C_R   0.883089 0.683856 0.332740 -0.139860
C23   C     C_R   0.870488 0.641466 0.662312 -0.065721
C24   C     C_R   0.938798 0.853577 0.838850 -0.379933
C25   C     C_R   0.982671 0.810684 0.727088 0.141677
C26   C     C_R   0.930358 0.860744 0.781123 0.373167
C27   C     C_R   0.936315 0.792254 0.837998 0.349940
C28   C     C_R   0.909822 0.741294 0.779705 -0.028765
C29   C     C_R   0.947918 0.750293 0.724181 0.012440
C30   C     C_R   0.935930 0.699579 0.666329 -0.103910
C31   C     C_R   0.819589 0.633478 0.716506 -0.108218
C32   C     C_R   0.840389 0.682446 0.774484 -0.016168
H11   H     H_    0.966220 0.705417 0.623509 0.152910
H12   H     H_    0.764020 0.589102 0.713958 0.171511
H13   H     H_    0.789898 0.674387 0.814226 0.202713
C33   C     C_R   0.338028 0.354209 0.337701 -0.211849
C34   C     C_R   0.468215 0.146256 0.160773 -0.106079
C35   C     C_R   0.596896 0.205233 0.265215 -0.069648
C36   C     C_R   0.599384 0.152889 0.209547 -0.108594
C37   C     C_R   0.333517 0.193158 0.169031 -0.096645
C38   C     C_R   0.326415 0.246253 0.225463 -0.013383
C39   C     C_R   0.462847 0.252346 0.273601 0.124634
C40   C     C_R   0.463143 0.304974 0.329686 -0.286689
C41   C     C_R   0.213464 0.350745 0.287349 0.251106
C42   C     C_R   0.191525 0.294174 0.234307 0.345558
H14   H     H_    0.562763 0.307991 0.367210 0.125633
H15   H     H_    0.701428 0.209092 0.301728 0.098893
H16   H     H_    0.704867 0.117556 0.204442 0.114356
H17   H     H_    0.242183 0.188837 0.129532 0.185032
C43   C     C_R   0.306665 0.104687 0.858299 0.403846
C44   C     C_R   0.314490 0.143101 0.824651 -0.220215
H18   H     H_    0.199508 0.140896 0.791800 0.149304
C45   C     C_R   0.468370 0.184586 0.832112 0.040113
C46   C     C_R   0.614328 0.189327 0.876197 -0.085691
H19   H     H_    0.734597 0.221399 0.883231 0.135835
C47   C     C_R   0.608563 0.151516 0.910556 -0.092769
H20   H     H_    0.723929 0.156472 0.944188 0.169275
C48   C     C_R   0.456861 0.107991 0.901995 -0.154601
C49   C     C_R   0.498134 0.286101 0.818459 -0.136412
H21   H     H_    0.524331 0.309928 0.867967 0.149568
C50   C     C_R   0.480508 0.320737 0.781128 -0.179097
H22   H     H_    0.496400 0.370648 0.802465 0.161574
C51   C     C_R   0.441024 0.291428 0.716894 0.092478
C52   C     C_R   0.421480 0.226370 0.690307 0.200173
C53   C     C_R   0.437466 0.192081 0.728092 -0.184974
H23   H     H_    0.418439 0.142216 0.707142 0.139556
C54   C     C_R   0.473315 0.221497 0.792436 0.070958
C55   C     C_R   0.275662 0.375161 0.693230 -0.200978
H24   H     H_    0.188860 0.383578 0.733661 0.174702
C56   C     C_R   0.247005 0.410278 0.656510 0.397558
C57   C     C_R   0.360368 0.398631 0.603278 -0.170990
C58   C     C_R   0.501506 0.352830 0.589335 -0.180049
H25   H     H_    0.591838 0.343593 0.549494 0.132752
C59   C     C_R   0.528185 0.318351 0.626187 -0.048680
H26   H     H_    0.638317 0.283485 0.614191 0.132753
C60   C     C_R   0.415222 0.328999 0.678333 0.048387
O11   O     O_R   0.309730 0.065160 0.075230 -0.549182
O12   O     O_R   0.633800 0.053970 0.954410 -0.514479
O13   O     O_R   0.797580 0.934860 0.924760 -0.523412
C61   C     C_R   0.464149 0.066963 0.938174 0.740397
O14   O     O_R   0.639820 0.072410 0.076610 -0.548251
O15   O     O_R   0.803650 0.953440 0.047830 -0.550011
C62   C     C_R   0.473026 0.091059 0.100941 0.636832
O16   O     O_R   0.303670 0.046590 0.952160 -0.501961
O17   O     O_3   0.468000 0.960960 0.990410 -0.368430
V3    V     V_3+5 0.745380 0.007240 0.001780 1.587073
O18   O     O_R   0.132940 0.946010 0.045600 -0.544889
C63   C     C_R   0.964473 0.934283 0.062807 0.713072
O19   O     O_R   0.126920 0.927560 0.923400 -0.506614
C64   C     C_R   0.955306 0.909290 0.898691 0.967758
V4    V     V_3+5 0.244590 0.992720 0.998240 1.599260
O20   O     O_3   0.972110 0.039040 0.009600 -0.357894
S1    S     S_3+6 0.551392 0.681824 0.472945 0.027949
O21   O     O_2   0.641524 0.682784 0.532452 -0.356538
O22   O     O_2   0.478105 0.745203 0.483355 -0.318627
O23   O     O_3   0.365159 0.631014 0.451611 -0.488388
H27   H     H_    0.268472 0.648889 0.484108 0.348598
S2    S     S_3+6 0.212912 0.624679 0.274826 0.070652
O24   O     O_2   0.340529 0.681611 0.294795 -0.386894
O25   O     O_2   0.331696 0.571171 0.274319 -0.232656
O26   O     O_3   0.123697 0.609065 0.202627 -0.458536
H28   H     H_    0.163870 0.644583 0.192176 0.354957
N1    N     N_3   0.039710 0.820910 0.672679 -0.537166
H29   H     H_    0.100655 0.865331 0.686589 0.296106
H30   H     H_    0.157453 0.792741 0.654230 0.240901
S3    S     S_3+6 0.764792 0.912446 0.768386 0.117047
O27   O     O_2   0.838348 0.936349 0.721548 -0.260714
O28   O     O_2   0.581307 0.876166 0.741996 -0.327428
O29   O     O_3   0.713591 0.972730 0.833283 -0.440563
H31   H     H_    0.577734 0.965542 0.841394 0.348073
S4    S     S_3+6 0.968908 0.780504 0.908825 0.006566
O30   O     O_2   0.788980 0.799009 0.945911 -0.336856
O31   O     O_2   0.012943 0.714375 0.897615 -0.310249
O32   O     O_3   0.155676 0.824404 0.950044 -0.502962
H32   H     H_    0.177645 0.811028 0.985074 0.363889
S5    S     S_3+6 0.120788 0.421099 0.286512 0.148889
O33   O     O_2   0.269063 0.471326 0.317401 -0.307288
O34   O     O_2   0.085664 0.417525 0.221454 -0.184922
O35   O     O_3   0.914089 0.439124 0.325656 -0.474547
H33   H     H_    0.872147 0.401168 0.331466 0.324175
S6    S     S_3+6 0.989478 0.281595 0.181748 0.048031
O36   O     O_2   0.824713 0.322419 0.212336 -0.278844
O37   O     O_2   0.050904 0.295026 0.126660 -0.280514
O38   O     O_3   0.910218 0.207715 0.157063 -0.540771
H34   H     H_    0.821375 0.202213 0.121471 0.356639
S7    S     S_3+6 0.109860 0.052066 0.841274 0.048933
O39   O     O_2   0.182304 0.987460 0.824189 -0.346007
O40   O     O_2   0.987486 0.068625 0.897491 -0.306745
O41   O     O_3   0.973268 0.055658 0.782396 -0.449963
H35   H     H_    0.053720 0.037980 0.745246 0.357450
N2    N     N_3   0.377495 0.195140 0.625321 -0.678003
H36   H     H_    0.247454 0.170496 0.620431 0.238933
H37   H     H_    0.485756 0.163156 0.605964 0.234002
S8    S     S_3+6 0.078945 0.470977 0.681129 -0.009504
O42   O     O_2   0.906216 0.453543 0.637537 -0.336961
O43   O     O_2   0.013432 0.482727 0.745675 -0.318888
O44   O     O_3   0.181255 0.536117 0.680333 -0.508748
H38   H     H_    0.296895 0.543795 0.708072 0.331796

loop_
_geom_bond_atom_site_label_1
_geom_bond_atom_site_label_2
_ccdc_geom_bond_type
C36   H16   S    
S6    O38   S    
C53   H23   S    
C57   C58   A    
C24   C64   S    
C11   C12   A    
C44   C45   A    
C20   H10   S    
O19   C64   A    
S7    O41   S    
C1    O6    A    
C42   S6    S    
S3    O27   D    
C49   H21   S    
O26   H28   S    
O19   V4    S    
C7    C16   S    
C51   C52   A    
O13   C64   A    
C24   C27   A    
C34   C62   S    
C5    C10   A    
S8    O42   D    
C6    C7    A    
C52   N2    S    
C46   C47   A    
O38   H34   S    
O44   H38   S    
O5    C3    A    
C47   C48   A    
S1    O21   D    
C15   H8    S    
C44   H18   S    
V3    O20   S    
O23   H27   S    
O17   V4    S    
C51   C60   S    
O8    V2    S    
C33   C41   A    
C50   H22   S    
S1    O22   D    
C59   C60   A    
S4    O32   S    
O41   H35   S    
O14   V3    S    
O1    V2    S    
O9    C4    A    
N2    H37   S    
C12   H6    S    
O7    V1    S    
C10   C63   S    
C30   H11   S    
O18   V4    S    
C21   S2    S    
C49   C54   A    
C40   H14   S    
O13   V3    S    
C41   C42   A    
C23   C31   A    
C7    C8    A    
C20   C21   A    
O11   C62   A    
C49   C50   A    
S2    O25   D    
C25   N1    S    
C24   C26   A    
C2    C57   S    
C38   C42   A    
O12   V3    S    
C34   C36   A    
C13   C22   S    
O16   V4    S    
C29   C30   A    
C25   C26   A    
C9    H4    S    
O14   C62   A    
C18   C19   A    
O4    C2    A    
C52   C53   A    
C43   C44   A    
C25   C29   A    
C23   C30   A    
C28   C29   A    
C43   S7    S    
C43   C48   A    
C48   C61   S    
C35   C36   A    
C14   C15   A    
O2    C1    A    
C45   C46   A    
O5    V1    S    
C17   H9    S    
C26   S3    S    
C33   C40   A    
C55   C56   A    
C13   C14   A    
C41   S5    S    
O17   V3    S    
S1    O23   S    
C59   H26   S    
C37   C38   A    
O12   C61   A    
C5    H1    S    
C56   S8    S    
C28   C32   A    
C46   H19   S    
C58   C59   A    
O3    C4    A    
S5    O34   D    
C19   C20   A    
C50   C51   A    
O6    V2    S    
C18   S1    S    
O9    V2    S    
C21   C22   A    
N1    H29   S    
C8    C9    A    
O29   H31   S    
O2    V1    S    
S3    O29   S    
O15   V3    S    
S2    O24   D    
S4    O31   D    
V4    O20   S    
C31   H12   S    
S6    O37   D    
C27   S4    S    
C34   C37   A    
O1    C2    A    
S8    O44   S    
C9    C10   A    
S7    O40   D    
C3    C23   S    
S5    O35   S    
S3    O28   D    
O11   V4    S    
O8    C3    A    
S2    O26   S    
C31   C32   A    
C11   C16   A    
C35   C39   A    
C14   H7    S    
C6    H2    S    
C53   C54   A    
O7    V2    S    
O4    V1    S    
C17   C18   A    
O3    V1    S    
V1    O10   S    
O35   H33   S    
C39   C40   A    
O15   C63   A    
C47   H20   S    
C55   H24   S    
S4    O30   D    
C35   H15   S    
C17   C22   A    
V2    O10   S    
S8    O43   D    
C56   C57   A    
C5    C6    A    
C37   H17   S    
C61   O16   A    
C15   C16   A    
S7    O39   D    
C58   H25   S    
S5    O33   D    
C45   C54   S    
C4    C19   S    
C38   C39   A    
C12   C13   A    
C27   C28   A    
C1    C33   S    
C11   H5    S    
N1    H30   S    
C8    H3    S    
O32   H32   S    
N2    H36   S    
O18   C63   A    
C55   C60   A    
S6    O36   D    
C32   H13   S    
