data_mof_unit_47629.cif
_audit_creation_date              2012-12-10T18:47:02-0500
_audit_creation_method            fapswitch 2.2
_symmetry_space_group_name_H-M    P1
_symmetry_Int_Tables_number       1
_space_group_crystal_system       triclinic
_cell_length_a                    10.718169
_cell_length_b                    9.839689
_cell_length_c                    14.979976
_cell_angle_alpha                 89.789195
_cell_angle_beta                  90.017677
_cell_angle_gamma                 90.050923
_cell_volume                      1579.82855346

loop_
_atom_site_label
_atom_site_type_symbol
_atom_type_description
_atom_site_fract_x
_atom_site_fract_y
_atom_site_fract_z
_atom_type_partial_charge
C1    C     C_R   0.259867 0.499973 0.499889 0.872288
C2    C     C_R   0.740133 0.500027 0.500111 0.872287
C3    C     C_R   0.324562 0.660605 0.042674 -0.244196
C4    C     C_R   0.675438 0.339395 0.957326 -0.244195
C5    C     C_R   0.063761 0.377501 0.487561 -0.184343
C6    C     C_R   0.936239 0.622499 0.512439 -0.184343
C7    C     C_R   0.935990 0.377499 0.487758 -0.175151
C8    C     C_R   0.064010 0.622500 0.512242 -0.175151
C9    C     C_R   0.872578 0.500014 0.500153 -0.012775
C10   C     C_R   0.127422 0.499986 0.499847 -0.012774
C11   C     C_R   0.585532 0.071735 0.549060 -0.066214
C12   C     C_R   0.414468 0.928265 0.450940 -0.066214
C13   C     C_R   0.414486 0.072154 0.450907 -0.064262
C14   C     C_R   0.585514 0.927846 0.549093 -0.064261
C15   C     C_R   0.497417 0.500251 0.327064 0.897392
C16   C     C_R   0.502583 0.499749 0.672936 0.897392
C17   C     C_R   0.593866 0.419949 0.814650 -0.047920
C18   C     C_R   0.406134 0.580051 0.185350 -0.047920
C19   C     C_R   0.506466 0.499257 0.768377 -0.111584
C20   C     C_R   0.493535 0.500743 0.231623 -0.111584
C21   C     C_R   0.420093 0.579751 0.812393 -0.259690
C22   C     C_R   0.579907 0.420248 0.187607 -0.259690
C23   C     C_R   0.415884 0.581421 0.904940 0.072974
C24   C     C_R   0.584116 0.418579 0.095060 0.072974
C25   C     C_R   0.501704 0.500093 0.953270 0.039765
C26   C     C_R   0.498296 0.499907 0.046730 0.039765
C27   C     C_R   0.591140 0.419192 0.908135 0.062862
C28   C     C_R   0.408860 0.580808 0.091865 0.062862
C29   C     C_R   0.327456 0.661650 0.950131 -0.003026
C30   C     C_R   0.672543 0.338350 0.049869 -0.003026
H1    H     H_    0.354735 0.639370 0.773288 0.164963
H2    H     H_    0.645265 0.360630 0.226712 0.164963
H3    H     H_    0.255881 0.723384 0.075903 0.167527
H4    H     H_    0.744119 0.276616 0.924097 0.167527
H5    H     H_    0.112229 0.282180 0.477463 0.156485
H6    H     H_    0.887771 0.717820 0.522537 0.156485
H7    H     H_    0.887327 0.282152 0.477797 0.160366
H8    H     H_    0.112673 0.717848 0.522203 0.160366
H9    H     H_    0.653962 0.126048 0.588203 0.146533
H10   H     H_    0.346038 0.873952 0.411797 0.146533
H11   H     H_    0.346139 0.126828 0.411632 0.130804
H12   H     H_    0.653861 0.873172 0.588368 0.130804
N1    N     N_R   0.500000 0.857200 0.500000 -0.085218
N2    N     N_R   0.500000 0.142800 0.500000 -0.085218
O1    O     O_R   0.316770 0.614620 0.499990 -0.628904
O2    O     O_R   0.683230 0.385380 0.500010 -0.628904
O3    O     O_R   0.683230 0.614620 0.500010 -0.631437
O4    O     O_R   0.316770 0.385380 0.499990 -0.631438
O5    O     O_R   0.499980 0.614680 0.367850 -0.608553
O6    O     O_R   0.500020 0.385320 0.632150 -0.608553
O7    O     O_R   0.500020 0.614680 0.632150 -0.621158
O8    O     O_R   0.499980 0.385320 0.367850 -0.621158
Zn1   Zn    Zn3+2 0.500000 0.653120 0.500000 0.963159
Zn2   Zn    Zn3+2 0.500000 0.346880 0.500000 0.963159
C31   C     C_1   0.688436 0.344760 0.765853 0.158440
N3    N     N_1   0.763904 0.285247 0.726997 -0.215588
C32   C     C_1   0.311564 0.655239 0.234146 0.158440
N4    N     N_1   0.236096 0.714753 0.273003 -0.215587
C33   C     C_1   0.238120 0.746371 0.903590 0.161590
N5    N     N_1   0.166667 0.814125 0.866420 -0.195130
C34   C     C_1   0.761880 0.253629 0.096410 0.161590
N6    N     N_1   0.833333 0.185875 0.133580 -0.195130

loop_
_geom_bond_atom_site_label_1
_geom_bond_atom_site_label_2
_ccdc_geom_bond_type
C12   H10   S    
O4    Zn2   S    
C31   N3    T    
C23   C29   A    
C1    O4    A    
C2    O3    A    
C25   C27   A    
C17   C31   S    
C18   C32   S    
C26   C28   A    
C16   O7    A    
C14   H12   S    
O3    Zn1   S    
C7    C9    A    
O2    Zn2   S    
C6    C9    A    
C13   H11   S    
C7    H7    S    
O1    Zn1   S    
C33   N5    T    
C15   O8    A    
C2    O2    A    
C15   O5    A    
C11   H9    S    
C21   H1    S    
C24   C26   A    
C1    O1    A    
C32   N4    T    
O6    Zn2   S    
C22   H2    S    
C8    H8    S    
C16   C19   S    
O5    Zn1   S    
C5    H5    S    
C3    C28   A    
C19   C21   A    
C6    H6    S    
O8    Zn2   S    
C12   N1    A    
C22   C24   A    
C23   C25   A    
C21   C23   A    
C34   N6    T    
C11   C14   A    
C4    H4    S    
C11   N2    A    
C24   C30   A    
C20   C22   A    
C17   C27   A    
N2    Zn2   S    
C5    C10   A    
C4    C27   A    
C18   C28   A    
C12   C13   A    
C18   C20   A    
C8    C10   A    
C30   C34   S    
C5    C7    A    
C3    H3    S    
C14   N1    A    
C3    C29   A    
C6    C8    A    
C17   C19   A    
C25   C26   A    
C2    C9    S    
N1    Zn1   S    
C13   N2    A    
C4    C30   A    
C1    C10   S    
C29   C33   S    
C16   O6    A    
C15   C20   S    
O7    Zn1   S    
