data_mof_unit_15982.cif
_audit_creation_date              2012-12-11T16:25:19-0500
_audit_creation_method            fapswitch 2.2
_symmetry_space_group_name_H-M    P1
_symmetry_Int_Tables_number       1
_space_group_crystal_system       triclinic
_cell_length_a                    22.377716
_cell_length_b                    30.477378
_cell_length_c                    18.750068
_cell_angle_alpha                 89.886377
_cell_angle_beta                  126.658782
_cell_angle_gamma                 90.03114
_cell_volume                      10258.4270544

loop_
_atom_site_label
_atom_site_type_symbol
_atom_type_description
_atom_site_fract_x
_atom_site_fract_y
_atom_site_fract_z
_atom_type_partial_charge
C1    C     C_R   0.954369 0.620826 0.072535 -0.146115
C2    C     C_R   0.073879 0.398759 0.926655 -0.134325
C3    C     C_R   0.072136 0.600828 0.924638 -0.131025
C4    C     C_R   0.955575 0.379966 0.075051 -0.151312
C5    C     C_R   0.454411 0.120842 0.072527 -0.150130
C6    C     C_R   0.573876 0.898752 0.926658 -0.134214
C7    C     C_R   0.572136 0.100830 0.924640 -0.130825
C8    C     C_R   0.455588 0.879962 0.075051 -0.151411
C9    C     C_R   0.893924 0.539742 0.562565 -0.235585
C10   C     C_R   0.901309 0.460475 0.274444 -0.232302
C11   C     C_R   0.393926 0.039590 0.562454 -0.234181
C12   C     C_R   0.401199 0.960477 0.274259 -0.236098
C13   C     C_R   0.878396 0.540042 0.478796 0.147242
C14   C     C_R   0.881461 0.460234 0.332050 0.145561
C15   C     C_R   0.378200 0.039892 0.478530 0.115095
C16   C     C_R   0.381529 0.960223 0.331993 0.146720
C17   C     C_R   0.874471 0.499999 0.438791 -0.006424
C18   C     C_R   0.876205 0.500301 0.365353 -0.006997
C19   C     C_R   0.374646 0.999911 0.438778 -0.003724
C20   C     C_R   0.376046 0.000298 0.365162 0.014482
C21   C     C_R   0.877253 0.459678 0.478032 0.089085
C22   C     C_R   0.881215 0.540609 0.331819 0.087734
C23   C     C_R   0.377959 0.959567 0.478345 0.089527
C24   C     C_R   0.380329 0.040676 0.331104 0.023966
C25   C     C_R   0.873789 0.579905 0.438559 -0.322773
C26   C     C_R   0.874519 0.420407 0.363770 -0.320425
C27   C     C_R   0.372396 0.079786 0.437687 -0.260743
C28   C     C_R   0.375030 0.920354 0.363975 -0.324328
C29   C     C_R   0.874035 0.580605 0.364109 0.181673
C30   C     C_R   0.871291 0.419727 0.436043 0.181144
C31   C     C_R   0.372104 0.080849 0.362398 0.184502
C32   C     C_R   0.372148 0.919621 0.436470 0.180333
C33   C     C_R   0.859197 0.235252 0.947521 -0.171072
C34   C     C_R   0.326831 0.655354 0.066157 -0.172614
C35   C     C_R   0.310320 0.317501 0.078585 -0.174366
C36   C     C_R   0.794647 0.750186 0.920327 -0.175429
C37   C     C_R   0.359180 0.735250 0.947491 -0.170971
C38   C     C_R   0.826834 0.155367 0.066189 -0.172706
C39   C     C_R   0.810322 0.817512 0.078583 -0.174643
C40   C     C_R   0.294761 0.250235 0.920299 -0.175335
C41   C     C_R   0.878632 0.278187 0.944171 -0.166494
C42   C     C_R   0.274784 0.630208 0.065943 -0.162591
C43   C     C_R   0.259145 0.342182 0.080001 -0.185374
C44   C     C_R   0.815581 0.707341 0.921175 -0.192627
C45   C     C_R   0.378619 0.778184 0.944143 -0.166560
C46   C     C_R   0.774787 0.130220 0.065972 -0.162484
C47   C     C_R   0.759161 0.842201 0.080010 -0.185584
C48   C     C_R   0.315705 0.207394 0.921127 -0.193262
C49   C     C_R   0.891642 0.308541 0.007917 0.121823
C50   C     C_R   0.199182 0.633403 0.994618 0.124406
C51   C     C_R   0.204448 0.366250 0.004932 0.134779
C52   C     C_R   0.884464 0.691653 0.993905 0.133972
C53   C     C_R   0.391672 0.808531 0.007921 0.121893
C54   C     C_R   0.699190 0.133394 0.994619 0.124287
C55   C     C_R   0.704443 0.866252 0.004927 0.135001
C56   C     C_R   0.384557 0.191689 0.993892 0.133312
C57   C     C_R   0.890738 0.294992 0.078577 -0.278236
C58   C     C_R   0.176992 0.658641 0.920008 -0.271307
C59   C     C_R   0.206431 0.368925 0.931674 -0.277068
C60   C     C_R   0.935046 0.720407 0.062428 -0.275653
C61   C     C_R   0.390818 0.794973 0.078613 -0.278426
C62   C     C_R   0.677013 0.158605 0.919983 -0.270584
C63   C     C_R   0.706395 0.868908 0.931644 -0.277073
C64   C     C_R   0.435113 0.220431 0.062463 -0.275603
C65   C     C_R   0.883527 0.378831 0.927472 -0.153185
C66   C     C_R   0.146918 0.600983 0.073580 -0.134395
C67   C     C_R   0.146536 0.398463 0.075601 -0.132814
C68   C     C_R   0.880494 0.619866 0.924829 -0.132909
C69   C     C_R   0.383535 0.878829 0.927472 -0.153211
C70   C     C_R   0.646919 0.100982 0.073581 -0.134064
C71   C     C_R   0.646537 0.898465 0.075603 -0.132910
C72   C     C_R   0.380531 0.119878 0.924825 -0.131743
C73   C     C_R   0.868714 0.252671 0.080838 0.181893
C74   C     C_R   0.228002 0.685043 0.920707 0.180390
C75   C     C_R   0.258779 0.344703 0.929945 0.176355
C76   C     C_R   0.915200 0.764108 0.061587 0.175274
C77   C     C_R   0.368794 0.752651 0.080875 0.181911
C78   C     C_R   0.728021 0.185007 0.920680 0.180045
C79   C     C_R   0.758725 0.844676 0.929901 0.176270
C80   C     C_R   0.415259 0.264128 0.061645 0.175221
C81   C     C_R   0.849820 0.222983 0.012493 0.062692
C82   C     C_R   0.303126 0.685002 0.996544 0.062766
C83   C     C_R   0.308226 0.316581 0.002344 0.080499
C84   C     C_R   0.842459 0.778341 0.991839 0.081320
C85   C     C_R   0.349843 0.722974 0.012493 0.062887
C86   C     C_R   0.803133 0.184996 0.996549 0.062939
C87   C     C_R   0.808189 0.816567 0.002317 0.080925
C88   C     C_R   0.342534 0.278371 0.991866 0.081370
C89   C     C_R   0.421002 0.538748 0.504650 -0.265693
C90   C     C_R   0.542678 0.463020 0.627057 -0.259790
C91   C     C_R   0.551872 0.529755 0.702656 -0.289132
C92   C     C_R   0.375861 0.475858 0.538507 -0.287913
C93   C     C_R   0.920999 0.038740 0.504643 -0.265444
C94   C     C_R   0.042675 0.963010 0.627007 -0.260306
C95   C     C_R   0.051873 0.029737 0.702627 -0.289409
C96   C     C_R   0.875860 0.975847 0.538495 -0.287823
C97   C     C_R   0.359825 0.536774 0.415681 0.155873
C98   C     C_R   0.619027 0.463459 0.669041 0.154207
C99   C     C_R   0.629575 0.529024 0.751332 0.164182
C100  C     C_R   0.310927 0.475292 0.450840 0.164636
C101  C     C_R   0.859820 0.036770 0.415677 0.156091
C102  C     C_R   0.119021 0.963455 0.668974 0.154512
C103  C     C_R   0.129571 0.029013 0.751279 0.164673
C104  C     C_R   0.810921 0.975287 0.450833 0.164297
C105  C     C_R   0.305042 0.504085 0.387446 0.012699
C106  C     C_R   0.663275 0.497163 0.730687 0.017594
C107  C     C_R   0.805037 0.004083 0.387442 0.012805
C108  C     C_R   0.163268 0.997160 0.730618 0.017420
C109  C     C_R   0.431594 0.506725 0.564503 0.119332
C110  C     C_R   0.508567 0.497527 0.638966 0.120298
C111  C     C_R   0.931594 0.006712 0.564489 0.119564
C112  C     C_R   0.008567 0.997510 0.638938 0.120317
C113  C     C_R   0.787934 0.536202 0.794488 -0.118157
C114  C     C_R   0.203334 0.464247 0.243000 -0.130960
C115  C     C_R   0.201888 0.537021 0.241327 -0.116397
C116  C     C_R   0.789501 0.462825 0.797616 -0.104510
C117  C     C_R   0.287930 0.036202 0.794450 -0.118408
C118  C     C_R   0.703333 0.964246 0.242999 -0.131133
C119  C     C_R   0.701887 0.037021 0.241327 -0.116096
C120  C     C_R   0.289497 0.962823 0.797575 -0.104643
C121  C     C_R   0.987517 0.463433 0.198428 -0.129407
C122  C     C_R   0.956859 0.536327 0.755952 -0.142147
C123  C     C_R   0.957256 0.463624 0.756312 -0.144340
C124  C     C_R   0.987498 0.536660 0.198163 -0.140483
C125  C     C_R   0.487458 0.963441 0.198363 -0.130937
C126  C     C_R   0.457010 0.036309 0.755992 -0.141318
C127  C     C_R   0.457423 0.963602 0.756407 -0.144462
C128  C     C_R   0.487450 0.036663 0.198109 -0.137122
C129  C     C_R   0.902174 0.645097 0.997643 0.059556
C130  C     C_R   0.143796 0.386724 0.002178 0.056949
C131  C     C_R   0.142200 0.612545 0.998251 0.058768
C132  C     C_R   0.905688 0.354678 0.002377 0.069897
C133  C     C_R   0.402243 0.145124 0.997634 0.058959
C134  C     C_R   0.643795 0.886724 0.002180 0.056968
C135  C     C_R   0.642202 0.112544 0.998253 0.058583
C136  C     C_R   0.405707 0.854671 0.002378 0.069878
C137  C     C_R   0.743458 0.499007 0.771427 0.064907
C138  C     C_R   0.242364 0.501272 0.292519 0.079208
C139  C     C_R   0.243450 0.999005 0.771363 0.065104
C140  C     C_R   0.742360 0.001271 0.292517 0.079069
C141  C     C_R   0.962515 0.500076 0.217671 0.074366
C142  C     C_R   0.942689 0.499976 0.703774 0.079530
C143  C     C_R   0.462407 0.000084 0.217565 0.069899
C144  C     C_R   0.442997 0.999937 0.703898 0.077823
C145  C     C_R   0.893942 0.460187 0.562752 -0.259233
C146  C     C_R   0.902052 0.539993 0.274857 -0.256314
C147  C     C_R   0.394865 0.960069 0.563161 -0.258162
C148  C     C_R   0.401391 0.039961 0.274224 -0.252875
C149  C     C_R   0.907787 0.499972 0.607835 0.100953
C150  C     C_R   0.918998 0.500170 0.253146 0.104754
C151  C     C_R   0.408279 0.999866 0.608004 0.105719
C152  C     C_R   0.418721 0.000163 0.252865 0.121409
H1    H     H_    0.990887 0.632948 0.139906 0.090474
H2    H     H_    0.052788 0.394661 0.858120 0.097325
H3    H     H_    0.050036 0.603920 0.855606 0.096350
H4    H     H_    0.993205 0.368484 0.142945 0.092999
H5    H     H_    0.490945 0.132964 0.139897 0.091282
H6    H     H_    0.552782 0.894642 0.858126 0.097311
H7    H     H_    0.550035 0.103927 0.855610 0.096643
H8    H     H_    0.493226 0.868480 0.142944 0.092953
H9    H     H_    0.881475 0.287890 0.890690 0.114890
H10   H     H_    0.293121 0.609820 0.122909 0.119428
H11   H     H_    0.259209 0.339581 0.137598 0.115386
H12   H     H_    0.775813 0.685700 0.867446 0.117312
H13   H     H_    0.381424 0.787892 0.890637 0.114723
H14   H     H_    0.793119 0.109851 0.122959 0.119395
H15   H     H_    0.759250 0.839616 0.137626 0.114960
H16   H     H_    0.275953 0.185766 0.867356 0.117281
H17   H     H_    0.901597 0.318245 0.128723 0.123413
H18   H     H_    0.118855 0.661231 0.863885 0.122154
H19   H     H_    0.166106 0.388907 0.874752 0.119629
H20   H     H_    0.989623 0.708856 0.117223 0.116023
H21   H     H_    0.401712 0.818218 0.128786 0.123407
H22   H     H_    0.618883 0.161177 0.863833 0.122482
H23   H     H_    0.666054 0.888879 0.874711 0.119712
H24   H     H_    0.489671 0.208871 0.117288 0.116549
H25   H     H_    0.465287 0.561830 0.524311 0.132939
H26   H     H_    0.508729 0.438915 0.575473 0.133084
H27   H     H_    0.524892 0.556650 0.710985 0.129008
H28   H     H_    0.384585 0.451020 0.585317 0.130103
H29   H     H_    0.965286 0.061821 0.524305 0.132882
H30   H     H_    0.008724 0.938907 0.575420 0.132770
H31   H     H_    0.024894 0.056627 0.710972 0.129023
H32   H     H_    0.884586 0.951006 0.585302 0.129930
H33   H     H_    0.853504 0.366443 0.860355 0.093429
H34   H     H_    0.194208 0.605468 0.142068 0.106074
H35   H     H_    0.192994 0.394771 0.144694 0.093133
H36   H     H_    0.850418 0.631380 0.857001 0.088673
H37   H     H_    0.353511 0.866443 0.860355 0.093288
H38   H     H_    0.694209 0.105465 0.142070 0.106056
H39   H     H_    0.692995 0.894775 0.144696 0.092944
H40   H     H_    0.350463 0.131386 0.856995 0.088546
H41   H     H_    0.770182 0.570024 0.783679 0.112430
H42   H     H_    0.213433 0.430930 0.267517 0.111085
H43   H     H_    0.208878 0.570382 0.264720 0.097794
H44   H     H_    0.774322 0.428810 0.793121 0.116960
H45   H     H_    0.270180 0.070024 0.783638 0.112424
H46   H     H_    0.713431 0.930929 0.267515 0.110856
H47   H     H_    0.708876 0.070381 0.264722 0.098102
H48   H     H_    0.274316 0.928808 0.793071 0.116884
H49   H     H_    0.978675 0.429498 0.205674 0.092841
H50   H     H_    0.940784 0.569792 0.733395 0.084846
H51   H     H_    0.941796 0.430078 0.734370 0.089746
H52   H     H_    0.978540 0.570666 0.204677 0.099380
H53   H     H_    0.478579 0.929505 0.205551 0.093243
H54   H     H_    0.440993 0.069772 0.733389 0.084960
H55   H     H_    0.441959 0.930056 0.734471 0.089736
H56   H     H_    0.478495 0.070672 0.204599 0.099126
H57   H     H_    0.902145 0.429399 0.596028 0.145116
H58   H     H_    0.911728 0.570708 0.254557 0.146547
H59   H     H_    0.403485 0.929288 0.596635 0.144508
H60   H     H_    0.411356 0.070529 0.253898 0.120774
H61   H     H_    0.901299 0.570780 0.594695 0.113173
H62   H     H_    0.909640 0.429454 0.253638 0.113622
H63   H     H_    0.400868 0.070618 0.594408 0.111487
H64   H     H_    0.409689 0.929464 0.253588 0.113140
H65   H     H_    0.873937 0.610634 0.467709 0.132547
H66   H     H_    0.875658 0.389676 0.335555 0.133597
H67   H     H_    0.371415 0.109856 0.467525 0.147969
H68   H     H_    0.376298 0.889639 0.335809 0.134583
H69   H     H_    0.845017 0.212688 0.894967 0.126909
H70   H     H_    0.384429 0.654922 0.124445 0.126708
H71   H     H_    0.346704 0.295713 0.134108 0.131923
H72   H     H_    0.738227 0.760012 0.867223 0.130644
H73   H     H_    0.344958 0.712692 0.894909 0.126557
H74   H     H_    0.884422 0.154955 0.124499 0.126630
H75   H     H_    0.846722 0.795734 0.134118 0.131478
H76   H     H_    0.238354 0.260068 0.867164 0.130600
N1    N     N_R   0.963040 0.582050 0.045950 -0.037269
N2    N     N_R   0.036960 0.417950 0.954050 -0.039042
N3    N     N_R   0.036960 0.582050 0.954050 -0.039592
N4    N     N_R   0.963040 0.417950 0.045950 -0.036318
N5    N     N_R   0.463040 0.082050 0.045950 -0.037027
N6    N     N_R   0.536960 0.917950 0.954050 -0.039032
N7    N     N_R   0.536960 0.082050 0.954050 -0.039615
N8    N     N_R   0.463040 0.917950 0.045950 -0.036302
N9    N     N_R   0.917940 0.418000 0.954160 -0.039416
N10   N     N_R   0.082060 0.582000 0.045840 -0.039961
N11   N     N_R   0.082060 0.418000 0.045840 -0.038298
N12   N     N_R   0.917940 0.582000 0.954160 -0.036117
N13   N     N_R   0.417940 0.918000 0.954160 -0.039416
N14   N     N_R   0.582060 0.082000 0.045840 -0.039839
N15   N     N_R   0.582060 0.918000 0.045840 -0.038276
N16   N     N_R   0.417940 0.082000 0.954160 -0.036076
N17   N     N_R   0.858490 0.522630 0.835610 -0.045204
N18   N     N_R   0.141510 0.477370 0.164390 -0.041695
N19   N     N_R   0.141510 0.522630 0.164390 -0.044082
N20   N     N_R   0.858490 0.477370 0.835610 -0.045641
N21   N     N_R   0.358490 0.022630 0.835610 -0.045289
N22   N     N_R   0.641510 0.977370 0.164390 -0.041659
N23   N     N_R   0.641510 0.022630 0.164390 -0.044134
N24   N     N_R   0.358490 0.977370 0.835610 -0.045658
N25   N     N_R   0.022480 0.477420 0.164500 -0.038875
N26   N     N_R   0.977520 0.522580 0.835500 -0.038222
N27   N     N_R   0.977520 0.477420 0.835500 -0.037484
N28   N     N_R   0.022480 0.522580 0.164500 -0.042772
N29   N     N_R   0.522480 0.977420 0.164500 -0.038666
N30   N     N_R   0.477520 0.022580 0.835500 -0.038285
N31   N     N_R   0.477520 0.977420 0.835500 -0.037384
N32   N     N_R   0.522480 0.022580 0.164500 -0.042963
Ni1   Ni    Ni4+2 0.051820 0.551870 0.104030 0.207398
Ni2   Ni    Ni4+2 0.948180 0.448130 0.895970 0.211751
Ni3   Ni    Ni4+2 0.948180 0.551870 0.895970 0.210011
Ni4   Ni    Ni4+2 0.051820 0.448130 0.104030 0.213203
Ni5   Ni    Ni4+2 0.551820 0.051870 0.104030 0.207758
Ni6   Ni    Ni4+2 0.448180 0.948130 0.895970 0.211652
Ni7   Ni    Ni4+2 0.448180 0.051870 0.895970 0.210021
Ni8   Ni    Ni4+2 0.551820 0.948130 0.104030 0.213087
N33   N     N_2   0.859663 0.241544 0.147670 -0.115014
H77   H     H_    0.902770 0.252630 0.209951 0.159248
C153  C     C_3   0.787798 0.253150 0.125937 -0.915817
H78   H     H_    0.784359 0.241457 0.179507 0.245946
H79   H     H_    0.742168 0.237449 0.062780 0.269822
H80   H     H_    0.780164 0.289345 0.119727 0.244249
N34   N     N_2   0.201823 0.714545 0.848641 -0.114949
H81   H     H_    0.164473 0.700205 0.787369 0.161172
C154  C     C_3   0.174092 0.755847 0.856150 -0.917571
H82   H     H_    0.158310 0.777475 0.799638 0.245588
H83   H     H_    0.217583 0.772854 0.918770 0.270369
H84   H     H_    0.124218 0.750309 0.854578 0.243971
N35   N     N_2   0.256369 0.345660 0.852144 -0.118124
H85   H     H_    0.208568 0.359309 0.796979 0.164627
C155  C     C_3   0.323106 0.361653 0.865106 -0.923035
H86   H     H_    0.314386 0.362482 0.800268 0.247483
H87   H     H_    0.370891 0.339573 0.909962 0.261986
H88   H     H_    0.336233 0.395380 0.893044 0.252088
N36   N     N_2   0.966106 0.792056 0.134545 -0.118116
H89   H     H_    0.009617 0.775871 0.190154 0.163973
C156  C     C_3   0.990681 0.830192 0.112498 -0.919846
H90   H     H_    0.031786 0.848777 0.174054 0.249771
H91   H     H_    0.943256 0.852432 0.067314 0.262454
H92   H     H_    0.017577 0.820031 0.080914 0.250423
N37   N     N_2   0.359795 0.741515 0.147747 -0.114988
H93   H     H_    0.402935 0.752587 0.210023 0.159223
C157  C     C_3   0.287962 0.753133 0.126096 -0.916087
H94   H     H_    0.284563 0.741435 0.179693 0.245891
H95   H     H_    0.242297 0.737447 0.062943 0.269873
H96   H     H_    0.280351 0.789330 0.119920 0.244226
N38   N     N_2   0.701851 0.214482 0.848577 -0.114914
H97   H     H_    0.664540 0.200117 0.787322 0.162560
C158  C     C_3   0.674056 0.255783 0.855984 -0.916232
H98   H     H_    0.658286 0.277391 0.799450 0.246006
H99   H     H_    0.717505 0.272816 0.918590 0.270075
H100  H     H_    0.624162 0.250238 0.854368 0.244002
N39   N     N_2   0.756269 0.845600 0.852067 -0.118108
H101  H     H_    0.708460 0.859246 0.796907 0.164753
C159  C     C_3   0.822990 0.861568 0.864962 -0.923352
H102  H     H_    0.814230 0.862379 0.800100 0.247461
H103  H     H_    0.870770 0.839483 0.909803 0.261948
H104  H     H_    0.836150 0.895299 0.892884 0.252156
N40   N     N_2   0.466134 0.292059 0.134654 -0.118026
H105  H     H_    0.509623 0.275864 0.190265 0.164712
C160  C     C_3   0.490744 0.330212 0.112696 -0.919026
H106  H     H_    0.531816 0.348786 0.174286 0.249935
H107  H     H_    0.443329 0.352455 0.067499 0.262369
H108  H     H_    0.517692 0.320073 0.081162 0.250371
N41   N     N_2   0.357110 0.565592 0.353897 -0.118138
H109  H     H_    0.378697 0.596318 0.379460 0.161809
C161  C     C_3   0.387164 0.546954 0.310483 -0.921303
H110  H     H_    0.381531 0.570970 0.262257 0.240178
H111  H     H_    0.356407 0.516718 0.273703 0.262126
H112  H     H_    0.447191 0.539058 0.360315 0.250982
N42   N     N_2   0.649337 0.432164 0.642331 -0.119987
H113  H     H_    0.624087 0.401801 0.627073 0.163977
C162  C     C_3   0.655740 0.447737 0.574183 -0.918190
H114  H     H_    0.683406 0.422303 0.560840 0.247011
H115  H     H_    0.689916 0.478068 0.596094 0.260258
H116  H     H_    0.599591 0.454518 0.511684 0.250742
N43   N     N_2   0.672750 0.561677 0.817295 -0.120383
H117  H     H_    0.644426 0.590511 0.806933 0.160680
C163  C     C_3   0.712681 0.546188 0.907955 -0.893051
H118  H     H_    0.748160 0.573014 0.954393 0.248846
H119  H     H_    0.749429 0.518120 0.920430 0.260076
H120  H     H_    0.672739 0.535909 0.921608 0.247892
N44   N     N_2   0.253290 0.444908 0.426643 -0.120372
H121  H     H_    0.271555 0.417008 0.465573 0.162313
C164  C     C_3   0.189177 0.464224 0.415680 -0.912659
H122  H     H_    0.145474 0.438846 0.391842 0.244062
H123  H     H_    0.165321 0.491152 0.365860 0.262450
H124  H     H_    0.205161 0.477283 0.480208 0.249951
N45   N     N_2   0.857106 0.065590 0.353896 -0.118067
H125  H     H_    0.878693 0.096315 0.379461 0.161957
C165  C     C_3   0.887160 0.046953 0.310481 -0.921955
H126  H     H_    0.881529 0.070970 0.262257 0.240252
H127  H     H_    0.856403 0.016717 0.273699 0.262143
H128  H     H_    0.947186 0.039056 0.360314 0.250942
N46   N     N_2   0.149330 0.932166 0.642254 -0.119912
H129  H     H_    0.124081 0.901803 0.626987 0.163454
C166  C     C_3   0.155732 0.947748 0.574110 -0.919169
H130  H     H_    0.183396 0.922317 0.560756 0.246895
H131  H     H_    0.189910 0.978078 0.596031 0.260326
H132  H     H_    0.099583 0.954533 0.511615 0.250695
N47   N     N_2   0.172749 0.061663 0.817246 -0.120120
H133  H     H_    0.144421 0.090491 0.806911 0.160497
C167  C     C_3   0.212711 0.046160 0.907900 -0.895588
H134  H     H_    0.248211 0.072980 0.954340 0.247978
H135  H     H_    0.249444 0.018091 0.920338 0.260429
H136  H     H_    0.172789 0.035878 0.921582 0.247822
N48   N     N_2   0.753281 0.944905 0.426635 -0.120723
H137  H     H_    0.771543 0.917004 0.465562 0.161807
C168  C     C_3   0.689171 0.964224 0.415675 -0.910573
H138  H     H_    0.645465 0.938848 0.391837 0.243779
H139  H     H_    0.665317 0.991153 0.365857 0.262515
H140  H     H_    0.705157 0.977282 0.480205 0.250251
N49   N     N_2   0.873375 0.621640 0.327063 -0.116693
H141  H     H_    0.893027 0.647626 0.370800 0.165838
C169  C     C_3   0.803521 0.631815 0.242476 -0.935778
H142  H     H_    0.809160 0.662985 0.216214 0.248014
H143  H     H_    0.758640 0.635703 0.250837 0.254051
H144  H     H_    0.787840 0.605523 0.193225 0.260870
N50   N     N_2   0.867772 0.378722 0.470015 -0.116395
H145  H     H_    0.888583 0.352590 0.456142 0.166316
C170  C     C_3   0.795758 0.369111 0.449636 -0.940629
H146  H     H_    0.798924 0.337871 0.482311 0.246492
H147  H     H_    0.753241 0.365637 0.376622 0.256245
H148  H     H_    0.778430 0.395508 0.474549 0.259627
N51   N     N_2   0.367302 0.121359 0.320068 -0.106084
H149  H     H_    0.333896 0.120120 0.251553 0.166534
C171  C     C_3   0.363405 0.162744 0.354892 -0.945159
H150  H     H_    0.362871 0.190132 0.315356 0.249016
H151  H     H_    0.413156 0.166947 0.424864 0.255036
H152  H     H_    0.311538 0.164450 0.350141 0.250094
N52   N     N_2   0.369105 0.878588 0.470741 -0.115990
H153  H     H_    0.390031 0.852530 0.456847 0.166549
C172  C     C_3   0.297284 0.868752 0.450722 -0.941973
H154  H     H_    0.300822 0.837508 0.483616 0.246374
H155  H     H_    0.254646 0.865172 0.377757 0.256229
H156  H     H_    0.279866 0.895081 0.475660 0.259576

loop_
_geom_bond_atom_site_label_1
_geom_bond_atom_site_label_2
_ccdc_geom_bond_type
C101  C107  A    
C22   C29   A    
C26   H66   S    
C19   C20   A    
C34   C42   A    
C39   C87   A    
C65   N9    A    
C79   C87   A    
C164  H122  S    
C158  H98   S    
C99   N43   S    
C53   C136  S    
C9    C149  A    
C3    C131  A    
C4    N4    A    
C144  C151  S    
C1    C129  A    
C148  H60   S    
C92   C109  A    
C7    H7    S    
C153  H78   S    
N14   Ni5   S    
C107  C140  S    
C9    C13   A    
C92   H28   S    
C105  C138  S    
C146  C150  A    
C11   C15   A    
C12   C16   A    
N36   C156  S    
C76   N36   S    
C36   H72   S    
C81   C86   S    
C38   H74   S    
C97   C105  A    
C83   C88   S    
C28   H68   S    
C117  C139  A    
C102  N46   S    
C59   H19   S    
C41   C49   A    
N47   C167  S    
C67   H35   S    
N20   Ni2   S    
C25   C29   A    
C168  H140  S    
C126  N30   A    
C27   C31   A    
N42   H113  S    
C28   C32   A    
C118  N22   A    
C170  H148  S    
C93   C101  A    
N44   C164  S    
C9    H61   S    
C60   C76   A    
C17   C21   A    
C19   C23   A    
C79   N39   S    
C15   C27   A    
C167  H134  S    
C16   C20   A    
C97   N41   S    
C14   C26   A    
C100  N44   S    
C96   C104  A    
C113  C137  A    
C36   C44   A    
C12   H64   S    
C37   C45   A    
N52   H153  S    
C128  N32   A    
C164  H124  S    
C70   H38   S    
C39   C47   A    
C158  H100  S    
C40   C48   A    
C104  N48   S    
C114  H42   S    
C120  N24   A    
C171  H152  S    
C121  N25   A    
C82   C85   S    
C98   C106  A    
C123  H51   S    
C40   C88   A    
C121  H49   S    
C80   C88   A    
N49   H141  S    
C95   H31   S    
C72   C133  A    
C113  N17   A    
C125  H53   S    
C169  H144  S    
C50   C131  S    
N44   H121  S    
C122  H50   S    
C94   C102  A    
N17   N20   A    
N48   H137  S    
N10   Ni1   S    
C128  H56   S    
C104  C107  A    
C172  H155  S    
C161  H111  S    
C166  H130  S    
C12   C152  A    
C111  C112  S    
C43   C51   A    
C157  H95   S    
C5    C133  A    
C38   C86   A    
C119  C140  A    
C142  C149  S    
C160  H107  S    
C49   C57   A    
C57   C73   A    
C162  H115  S    
C127  H55   S    
C52   C60   A    
C2    C130  A    
C53   C61   A    
C22   C146  A    
C61   C77   A    
N39   C159  S    
C55   C63   A    
N27   Ni2   S    
C64   H24   S    
C35   C43   A    
N23   Ni5   S    
C30   N50   S    
C44   C52   A    
C6    N6    A    
C45   C53   A    
C2    H2    S    
C154  H82   S    
C66   N10   A    
C155  H88   S    
N43   C163  S    
N2    N11   A    
C93   H29   S    
C6    H6    S    
C95   C103  A    
C141  C150  S    
C156  H90   S    
C145  H57   S    
N45   C165  S    
N7    Ni7   S    
C96   C111  A    
C10   C14   A    
C3    N3    A    
C106  C137  S    
N42   C162  S    
N8    N13   A    
C40   H76   S    
C147  C151  A    
N37   H93   S    
C119  N23   A    
C103  N47   S    
N38   C158  S    
C17   C18   A    
N19   Ni1   S    
C42   C50   A    
N24   Ni6   S    
C167  H135  S    
C98   N42   S    
C26   C30   A    
C166  H132  S    
N40   C160  S    
N4    N9    A    
C127  N31   A    
C124  C141  A    
N17   Ni3   S    
C65   C132  A    
N18   Ni4   S    
C58   C74   A    
C66   C131  A    
C11   C151  A    
C99   C106  A    
N3    Ni3   S    
N18   N19   A    
N21   N24   A    
N4    Ni4   S    
C18   C22   A    
C123  N27   A    
C62   C78   A    
C148  C152  A    
N25   N28   A    
C42   H10   S    
N1    Ni1   S    
N35   C155  S    
C94   H30   S    
C13   C17   A    
N29   N32   A    
N21   Ni7   S    
C165  H127  S    
N30   N31   A    
N22   Ni8   S    
N31   Ni6   S    
C69   N13   A    
C125  C143  A    
C54   C135  S    
C67   N11   A    
C114  C138  A    
C163  H120  S    
C38   C46   A    
C2    N2    A    
C77   N37   S    
C116  H44   S    
C68   H36   S    
C154  H84   S    
C155  H86   S    
C90   C110  A    
C34   C82   A    
C91   C99   A    
N33   H77   S    
C72   H40   S    
C11   H63   S    
C118  H46   S    
C153  H80   S    
C90   H26   S    
C27   H67   S    
C41   H9    S    
C8    C136  A    
C72   N16   A    
C25   H65   S    
N34   H81   S    
N40   H105  S    
C76   C84   A    
C71   C134  A    
N47   H133  S    
C171  H150  S    
C15   C19   A    
C168  H139  S    
N3    N10   A    
C119  H47   S    
C52   C129  S    
C91   C110  A    
C116  C137  A    
C95   C112  A    
C170  H147  S    
C118  C140  A    
N50   H145  S    
C74   N34   S    
C156  H92   S    
C48   C56   A    
C73   C81   A    
N41   C161  S    
C116  N20   A    
C39   H75   S    
C124  N28   A    
C37   H73   S    
N28   Ni1   S    
C64   C80   A    
C74   C82   A    
C147  H59   S    
C164  H123  S    
C115  N19   A    
C158  H99   S    
C49   C132  S    
C7    N7    A    
C159  H102  S    
C50   C58   A    
C121  C141  A    
N15   Ni8   S    
C4    C132  A    
C157  H94   S    
N33   C153  S    
C35   C83   A    
C10   H62   S    
C54   C62   A    
N22   N23   A    
C23   C147  A    
C101  N45   S    
C21   C145  A    
N38   H97   S    
N26   N27   A    
C108  C139  S    
N5    N16   A    
N36   H89   S    
C46   C54   A    
C3    H3    S    
C169  H143  S    
C1    H1    S    
C93   C111  A    
C8    N8    A    
C32   N52   S    
C29   N49   S    
C143  C152  S    
C4    H4    S    
C69   C136  A    
C5    H5    S    
C68   N12   A    
C70   C135  A    
C126  C144  A    
C67   C130  A    
C8    H8    S    
N46   H129  S    
C172  H154  S    
C115  H43   S    
C117  N21   A    
C46   H14   S    
C58   H18   S    
C113  H41   S    
C122  N26   A    
C55   C134  S    
C21   C30   A    
C33   C41   A    
C23   C32   A    
N16   Ni7   S    
C24   C31   A    
C71   N15   A    
C109  C110  S    
C10   C150  A    
C75   C83   A    
C160  H106  S    
C114  N18   A    
C126  H54   S    
C123  C142  A    
C120  H48   S    
C127  C144  A    
C162  H114  S    
C128  C143  A    
N6    Ni6   S    
C161  H110  S    
C31   N51   S    
N37   C157  S    
N39   H101  S    
N8    Ni8   S    
N13   Ni6   S    
C44   H12   S    
N32   Ni5   S    
C45   H13   S    
C145  C149  A    
C43   H11   S    
C16   C28   A    
C165  H126  S    
C89   C109  A    
C155  H87   S    
N43   H117  S    
C14   C18   A    
C169  H142  S    
C84   C87   S    
C163  H118  S    
C56   C133  S    
C63   C79   A    
N45   H125  S    
C159  H104  S    
C100  C105  A    
C124  H52   S    
C37   C85   A    
N34   C154  S    
N49   C169  S    
C171  H151  S    
C62   H22   S    
C125  N29   A    
C94   C112  A    
C20   C24   A    
N50   C170  S    
C91   H27   S    
C102  C108  A    
C103  C108  A    
C89   H25   S    
N6    N15   A    
C172  H156  S    
C78   C86   A    
C161  H112  S    
C166  H131  S    
C5    N5    A    
C13   C25   A    
N41   H109  S    
N29   Ni8   S    
C96   H32   S    
N30   Ni7   S    
C146  H58   S    
C51   C130  S    
C157  H96   S    
C57   H17   S    
C65   H33   S    
N51   C171  S    
C60   H20   S    
C61   H21   S    
C24   C148  A    
C80   N40   S    
C69   H37   S    
C160  H108  S    
N35   H85   S    
N5    Ni5   S    
C89   C97   A    
C159  H103  S    
C162  H116  S    
N52   C172  S    
N7    N14   A    
C7    C135  A    
C35   H71   S    
N46   C166  S    
C47   H15   S    
C48   H16   S    
C115  C138  A    
C56   C64   A    
N48   C168  S    
C120  C139  A    
N1    N12   A    
C163  H119  S    
N51   H149  S    
N25   Ni4   S    
C78   N38   S    
N26   Ni3   S    
C154  H83   S    
N11   Ni4   S    
C51   C59   A    
C122  C142  A    
N12   Ni3   S    
C59   C75   A    
C117  H45   S    
C92   C100  A    
C47   C55   A    
C153  H79   S    
N9    Ni2   S    
C63   H23   S    
C168  H138  S    
C75   N35   S    
C71   H39   S    
C66   H34   S    
C6    C134  A    
C73   N33   S    
C170  H146  S    
C70   N14   A    
C36   C84   A    
N2    Ni2   S    
C156  H91   S    
C68   C129  A    
C77   C85   A    
C1    N1    A    
C167  H136  S    
C165  H128  S    
C33   C81   A    
C90   C98   A    
C34   H70   S    
C33   H69   S    
