data_mof_unit_41256.cif
_audit_creation_date              2013-03-05T15:44:18-0500
_audit_creation_method            fapswitch 2.2
_symmetry_space_group_name_H-M    P1
_symmetry_Int_Tables_number       1
_space_group_crystal_system       triclinic
_cell_length_a                    20.689253
_cell_length_b                    7.111338
_cell_length_c                    16.52736
_cell_angle_alpha                 90.015326
_cell_angle_beta                  92.525935
_cell_angle_gamma                 89.967868
_cell_volume                      2429.2788037

loop_
_atom_site_label
_atom_site_type_symbol
_atom_site_description
_atom_site_fract_x
_atom_site_fract_y
_atom_site_fract_z
_atom_type_partial_charge
O1    O     O_R   0.564840 0.505290 0.579830 -0.544223
O2    O     O_R   0.435160 0.005290 0.420170 -0.545131
O3    O     O_R   0.556720 0.179930 0.409350 -0.567515
O4    O     O_R   0.443280 0.679930 0.590650 -0.568070
C1    C     C_R   0.570408 0.345021 0.381094 0.856144
C2    C     C_R   0.429703 0.845218 0.619022 0.857039
O5    O     O_R   0.572280 0.175810 0.578530 -0.581175
O6    O     O_R   0.427720 0.675810 0.421470 -0.580106
O7    O     O_R   0.450830 0.001920 0.590540 -0.547320
O8    O     O_R   0.549170 0.501920 0.409460 -0.546569
C3    C     C_R   0.590407 0.344254 0.604277 0.864819
C4    C     C_R   0.409647 0.844281 0.395666 0.865952
O9    O     O_3   0.460130 0.338030 0.503750 -0.300170
O10   O     O_3   0.539870 0.838030 0.496250 -0.300066
V1    V     V_3+5 0.507400 0.064560 0.499310 1.111270
V2    V     V_3+5 0.492600 0.564560 0.500690 1.111807
C5    C     C_R   0.142922 0.912641 0.167020 -0.076184
C6    C     C_R   0.857002 0.413346 0.833201 -0.076380
C7    C     C_R   0.356176 0.851619 0.332522 -0.136831
C8    C     C_R   0.643965 0.351370 0.667335 -0.136318
C9    C     C_R   0.315588 0.766870 0.196682 -0.083904
C10   C     C_R   0.685240 0.261154 0.802183 -0.085014
C11   C     C_R   0.364875 0.765372 0.257409 -0.179191
C12   C     C_R   0.635859 0.260925 0.741632 -0.179825
C13   C     C_R   0.296473 0.939992 0.347098 0.361998
C14   C     C_R   0.703217 0.442914 0.653331 0.362619
C15   C     C_R   0.243744 0.921291 0.288708 -0.008056
C16   C     C_R   0.756114 0.423920 0.711575 -0.010613
C17   C     C_R   0.254758 0.843330 0.211576 0.042116
C18   C     C_R   0.745611 0.341078 0.787921 0.041769
C19   C     C_R   0.204437 0.841152 0.150914 -0.105052
C20   C     C_R   0.796014 0.337318 0.848453 -0.100197
C21   C     C_R   0.130847 0.973891 0.245229 -0.030388
C22   C     C_R   0.868572 0.481019 0.755915 -0.040771
C23   C     C_R   0.180104 0.974875 0.305664 -0.047709
C24   C     C_R   0.819464 0.481724 0.695310 -0.046119
H1    H     H_    0.213238 0.786437 0.091153 0.051158
H2    H     H_    0.787614 0.278264 0.907541 0.050854
H3    H     H_    0.082784 0.019151 0.259892 0.136248
H4    H     H_    0.916222 0.531384 0.742212 0.144816
H5    H     H_    0.324601 0.703843 0.138546 0.079520
H6    H     H_    0.676666 0.194508 0.859681 0.079101
H7    H     H_    0.167392 0.016053 0.365687 0.143736
H8    H     H_    0.832165 0.526137 0.635770 0.147581
H9    H     H_    0.410668 0.699465 0.245197 0.080411
H10   H     H_    0.590456 0.192343 0.753327 0.080520
C25   C     C_R   0.382389 0.947576 0.831881 0.411757
C26   C     C_R   0.617915 0.430593 0.166895 0.411522
H11   H     H_    0.471512 0.924164 0.770745 0.072063
H12   H     H_    0.528713 0.411821 0.228117 0.072480
H13   H     H_    0.300499 0.971087 0.953112 0.098894
H14   H     H_    0.699840 0.436292 0.045365 0.098270
C27   C     C_R   0.389809 0.859546 0.690714 -0.156392
C28   C     C_R   0.610525 0.357872 0.309587 -0.155459
C29   C     C_R   0.074927 0.888053 0.731523 0.266593
C30   C     C_R   0.925714 0.413170 0.269193 0.260268
C31   C     C_R   0.110422 0.889047 0.661722 -0.108268
C32   C     C_R   0.889869 0.421370 0.338642 -0.113539
C33   C     C_R   0.177654 0.908918 0.664977 0.287725
C34   C     C_R   0.822316 0.426089 0.334880 0.293506
C35   C     C_R   0.212966 0.904020 0.740901 -0.007945
C36   C     C_R   0.787304 0.404872 0.259233 -0.010371
C37   C     C_R   0.176868 0.915184 0.812691 -0.063391
C38   C     C_R   0.823511 0.407066 0.187369 -0.063664
C39   C     C_R   0.282582 0.895083 0.748408 0.035078
C40   C     C_R   0.717765 0.390578 0.251679 0.034666
C41   C     C_R   0.314115 0.931518 0.824994 -0.004925
C42   C     C_R   0.686218 0.415835 0.174262 -0.005503
C43   C     C_R   0.277358 0.949743 0.893744 -0.090589
C44   C     C_R   0.722990 0.424476 0.105236 -0.091276
C45   C     C_R   0.210344 0.936240 0.888097 -0.060652
C46   C     C_R   0.790043 0.413747 0.111421 -0.058097
C47   C     C_R   0.322117 0.845734 0.683336 -0.067253
C48   C     C_R   0.678292 0.347631 0.317562 -0.064579
C49   C     C_R   0.419313 0.911265 0.764849 -0.146001
C50   C     C_R   0.580951 0.400778 0.234440 -0.144082
C51   C     C_R   0.107887 0.908200 0.807785 -0.186971
C52   C     C_R   0.892545 0.409225 0.192527 -0.184940
H15   H     H_    0.301530 0.795348 0.626444 0.117950
H16   H     H_    0.698960 0.303853 0.375428 0.119727
H17   H     H_    0.084690 0.890180 0.603201 0.174660
H18   H     H_    0.915058 0.436008 0.397157 0.174825
H19   H     H_    0.184851 0.947058 0.943718 0.031956
H20   H     H_    0.815565 0.417174 0.055659 0.028784
O11   O     O_R   0.950790 0.256670 0.090520 -0.541134
O12   O     O_R   0.049210 0.756670 0.909480 -0.554357
O13   O     O_R   0.927720 0.590370 0.921470 -0.551673
O14   O     O_R   0.072280 0.090370 0.078530 -0.539373
C53   C     C_R   0.909440 0.421283 0.896563 0.808288
C54   C     C_R   0.090462 0.921206 0.103616 0.810345
O15   O     O_R   0.943270 0.586180 0.090640 -0.560308
O16   O     O_R   0.056730 0.086180 0.909360 -0.549440
O17   O     O_R   0.064850 0.759970 0.079840 -0.541814
O18   O     O_R   0.935150 0.259970 0.920160 -0.532144
C55   C     C_R   0.930422 0.417742 0.118789 0.904328
C56   C     C_R   0.069788 0.917432 0.881379 0.901091
O19   O     O_3   0.039850 0.428050 0.996240 -0.278983
O20   O     O_3   0.960150 0.928050 0.003760 -0.279461
V3    V     V_3+5 0.992610 0.701540 0.000700 1.193789
V4    V     V_3+5 0.007390 0.201540 0.999300 1.205904
N1    N     N_R   0.005270 0.876314 0.722746 0.079794
O21   O     O_R   0.968466 0.966493 0.771495 -0.365446
O22   O     O_R   0.978254 0.794469 0.659435 -0.365105
N2    N     N_R   0.995499 0.423818 0.278152 0.082410
O23   O     O_R   0.032370 0.351434 0.224536 -0.379402
O24   O     O_R   0.022935 0.497390 0.343117 -0.345475
N3    N     N_R   0.206787 0.967076 0.592095 0.076026
O25   O     O_R   0.242283 0.118008 0.592894 -0.399883
O26   O     O_R   0.187926 0.893436 0.522956 -0.376216
N4    N     N_R   0.791788 0.484927 0.406631 0.075157
O27   O     O_R   0.755296 0.633966 0.404198 -0.402120
O28   O     O_R   0.810396 0.414433 0.476468 -0.376591
O29   O     O_3   0.289934 0.029269 0.421089 -0.616965
C57   C     C_3   0.268843 0.218324 0.411096 0.311509
H21   H     H_    0.220856 0.231891 0.438086 0.140713
H22   H     H_    0.263687 0.266944 0.346853 -0.023747
C58   C     C_3   0.315898 0.350531 0.455988 -0.161622
H23   H     H_    0.334008 0.285662 0.513786 0.191878
H24   H     H_    0.357372 0.375394 0.417084 0.133481
C59   C     C_3   0.283608 0.537654 0.474627 -0.391382
H25   H     H_    0.261506 0.599934 0.418409 0.145726
H26   H     H_    0.319996 0.636664 0.501261 0.152323
H27   H     H_    0.245377 0.516609 0.518873 0.177594
O30   O     O_3   0.709242 0.534228 0.579686 -0.617560
C60   C     C_3   0.730319 0.723084 0.590145 0.310194
H28   H     H_    0.778356 0.736866 0.563346 0.142227
H29   H     H_    0.735134 0.771056 0.654503 -0.024598
C61   C     C_3   0.683556 0.855815 0.545086 -0.156362
H30   H     H_    0.665270 0.790773 0.487419 0.194308
H31   H     H_    0.642168 0.881679 0.583999 0.132840
C62   C     C_3   0.716263 0.042051 0.526075 -0.394591
H32   H     H_    0.738649 0.104272 0.582132 0.142841
H33   H     H_    0.680086 0.141667 0.499380 0.151405
H34   H     H_    0.754364 0.019801 0.481746 0.177069
O31   O     O_3   0.414200 0.992421 0.904804 -0.667337
C63   C     C_3   0.413385 0.189916 0.916313 0.247909
H35   H     H_    0.416051 0.216357 0.982644 0.077355
H36   H     H_    0.367703 0.257764 0.892520 0.027704
C64   C     C_3   0.472074 0.282662 0.879093 -0.208236
H37   H     H_    0.517317 0.216214 0.904104 0.132120
H38   H     H_    0.469565 0.262932 0.812372 0.106313
C65   C     C_3   0.474094 0.493088 0.896933 -0.440844
H39   H     H_    0.429846 0.562379 0.870692 0.143812
H40   H     H_    0.517058 0.556682 0.869650 0.137148
H41   H     H_    0.477278 0.517792 0.963296 0.155163
O32   O     O_3   0.586135 0.468737 0.093226 -0.665772
C66   C     C_3   0.587364 0.664915 0.078088 0.248919
H42   H     H_    0.583330 0.684746 0.011380 0.075842
H43   H     H_    0.633787 0.733000 0.098951 0.027874
C67   C     C_3   0.530064 0.764132 0.115873 -0.215594
H44   H     H_    0.484159 0.693078 0.096228 0.130189
H45   H     H_    0.535423 0.756603 0.182976 0.107809
C68   C     C_3   0.526484 0.970662 0.091009 -0.442834
H46   H     H_    0.571651 0.044839 0.111117 0.147825
H47   H     H_    0.484949 0.039183 0.119591 0.142385
H48   H     H_    0.519638 0.982831 0.024195 0.163347

loop_
_geom_bond_atom_site_label_1
_geom_bond_atom_site_label_2
_geom_bond_distance
_ccdc_geom_bond_type
C40   C42   1.421893 A    
N1    O21   1.301339 A    
C11   H9    1.083645 S    
C15   C17   1.417561 A    
C64   H38   1.110528 S    
C26   C50   1.397001 A    
C66   H42   1.111000 S    
O1    C3    1.317275 A    
C62   H34   1.110810 S    
O2    C4    1.317280 A    
C61   H30   1.110678 S    
C2    O7    1.293596 A    
N2    O24   1.301961 A    
C57   H21   1.110357 S    
C39   C47   1.423318 A    
O31   C63   1.417420 S    
O5    C3    1.320137 A    
C21   H3    1.082584 S    
C14   O30   1.390159 S    
C22   H4    1.082396 S    
C66   H43   1.116707 S    
O32   C66   1.417856 S    
C13   O29   1.389564 S    
C58   H24   1.108973 S    
C29   C51   1.413648 A    
C64   C65   1.525346 S    
C31   C33   1.396884 A    
C32   C34   1.396650 A    
C40   C48   1.422932 A    
O16   C56   1.318049 A    
C30   C52   1.414411 A    
C34   C36   1.425067 A    
C53   O18   1.316157 A    
C43   C45   1.388877 A    
N4    O27   1.300532 A    
C36   C38   1.431962 A    
C28   C48   1.404286 A    
O13   C53   1.320930 A    
C8    C12   1.402973 A    
C39   C41   1.422023 A    
C67   C68   1.526096 S    
C26   O32   1.384829 S    
C60   C61   1.522300 S    
N3    O25   1.300600 A    
H11   C49   1.083991 S    
C20   H2    1.084209 S    
C68   H47   1.110949 S    
C23   H7    1.077862 S    
O17   V3    1.986292 S    
C45   H19   1.082507 S    
C59   H27   1.110831 S    
O5    V1    1.996923 S    
O6    V2    1.996603 S    
C48   H16   1.076274 S    
N3    O26   1.301091 A    
C65   H41   1.109832 S    
C27   C49   1.394004 A    
C5    C21   1.396770 A    
C63   C64   1.534498 S    
C25   C41   1.416777 A    
N2    O23   1.300389 A    
O19   V3    2.178845 S    
C59   H26   1.107928 S    
O13   V3    1.996933 S    
C3    C8    1.488218 S    
C33   C35   1.424346 A    
C36   C40   1.442259 A    
C1    C28   1.476656 S    
C66   C67   1.535354 S    
H14   C44   1.083423 S    
C30   N2    1.446885 S    
C63   H36   1.116935 S    
C58   C59   1.526068 S    
C15   C23   1.410406 A    
C9    C17   1.402357 A    
C33   N3    1.431723 S    
C19   H1    1.084274 S    
C41   C43   1.400774 A    
O4    V2    2.014208 S    
C7    C11   1.403168 A    
C29   C31   1.394596 A    
O12   V3    1.988555 S    
H12   C50   1.084017 S    
O10   V1    1.746621 S    
O18   V4    1.986088 S    
C52   C55   1.478943 S    
O6    C4    1.320128 A    
C35   C37   1.431723 A    
C47   H15   1.076376 S    
O1    V2    1.987345 S    
O14   V4    1.996614 S    
C26   C42   1.416844 A    
C68   H48   1.110486 S    
O2    V1    1.987550 S    
C6    C22   1.395673 A    
C46   H20   1.082437 S    
O12   C56   1.312324 A    
C9    H5    1.083667 S    
O4    C2    1.300515 A    
C37   C45   1.406854 A    
O20   V4    2.179859 S    
C9    C11   1.398945 A    
C60   H28   1.110162 S    
C5    C19   1.406463 A    
C10   C12   1.398254 A    
C24   H8    1.077124 S    
C6    C20   1.406015 A    
C2    C27   1.477040 S    
C62   H32   1.109429 S    
C61   C62   1.526628 S    
O3    C1    1.299591 A    
O19   V4    1.747130 S    
O3    V1    2.014995 S    
C59   H25   1.109557 S    
O16   V4    2.014148 S    
C54   O17   1.316057 A    
O29   C57   1.420668 S    
C37   C51   1.426784 A    
C10   C18   1.401967 A    
C25   O31   1.384748 S    
C28   C50   1.393913 A    
C6    C53   1.475368 S    
C38   C52   1.427139 A    
C27   C47   1.403922 A    
C5    C54   1.476306 S    
O14   C54   1.321584 A    
C63   H35   1.111218 S    
C62   H33   1.107779 S    
C61   H31   1.108580 S    
C57   H22   1.117327 S    
C64   H37   1.111698 S    
C13   C15   1.430517 A    
C29   N1    1.444505 S    
C51   C56   1.479689 S    
C14   C16   1.431666 A    
C67   H44   1.111757 S    
C12   H10   1.083607 S    
C32   H18   1.083187 S    
O7    V1    1.999544 S    
C25   C49   1.397084 A    
C1    O8    1.294262 A    
C17   C19   1.413252 A    
O11   V4    1.988137 S    
O8    V2    1.999068 S    
C58   H23   1.110935 S    
C18   C20   1.413165 A    
O11   C55   1.313169 A    
C10   H6    1.083676 S    
C8    C14   1.416379 A    
C4    C7    1.487914 S    
C16   C18   1.418145 A    
C21   C23   1.395170 A    
C22   C24   1.394955 A    
C30   C32   1.394922 A    
C67   H45   1.110991 S    
C38   C46   1.407368 A    
C7    C13   1.415622 A    
C31   H17   1.083307 S    
N4    O28   1.301021 A    
C57   C58   1.522888 S    
C34   N4    1.430278 S    
O15   C55   1.316594 A    
C35   C39   1.441540 A    
C16   C24   1.410947 A    
N1    O22   1.301749 A    
O20   V3    1.746410 S    
O9    V2    1.747342 S    
C60   H29   1.117239 S    
C42   C44   1.400226 A    
C65   H39   1.110664 S    
C44   C46   1.388602 A    
H13   C43   1.083313 S    
O15   V3    2.014938 S    
C68   H46   1.111317 S    
C65   H40   1.110792 S    
O30   C60   1.420431 S    
