data_mof_unit_37705.cif
_audit_creation_date              2012-12-10T16:59:26-0500
_audit_creation_method            fapswitch 2.2
_symmetry_space_group_name_H-M    P1
_symmetry_Int_Tables_number       1
_space_group_crystal_system       triclinic
_cell_length_a                    19.371063
_cell_length_b                    10.92524
_cell_length_c                    9.69252
_cell_angle_alpha                 89.553793
_cell_angle_beta                  90.263789
_cell_angle_gamma                 90.550748
_cell_volume                      2051.08404463

loop_
_atom_site_label
_atom_site_type_symbol
_atom_type_description
_atom_site_fract_x
_atom_site_fract_y
_atom_site_fract_z
_atom_type_partial_charge
C1    C     C_R   0.498387 0.265279 0.500668 0.882855
C2    C     C_R   0.291648 0.504242 0.501371 -0.081104
C3    C     C_R   0.929617 0.514774 0.503342 0.397454
C4    C     C_R   0.069806 0.515269 0.506346 0.434203
C5    C     C_R   0.816758 0.514703 0.626804 -0.156366
C6    C     C_R   0.744874 0.510770 0.626111 -0.188400
C7    C     C_R   0.708394 0.504568 0.500868 -0.031873
C8    C     C_R   0.745052 0.502984 0.376272 -0.182835
C9    C     C_R   0.816970 0.506763 0.376970 -0.156703
C10   C     C_R   0.853543 0.512429 0.502265 0.062271
C11   C     C_2   0.481872 0.933819 0.386590 0.490578
C12   C     C_R   0.367498 0.500578 0.499972 0.812770
C13   C     C_2   0.502454 0.867404 0.497066 -0.402464
C14   C     C_2   0.487501 0.068747 0.387714 -0.252657
C15   C     C_2   0.493090 0.133150 0.504194 -0.383597
C16   C     C_2   0.459429 0.430488 0.923251 0.078249
C17   C     C_2   0.468162 0.417164 0.077895 -0.031479
C18   C     C_R   0.499423 0.734838 0.499187 0.875883
C19   C     C_R   0.632504 0.501086 0.500219 0.770803
C20   C     C_R   0.256830 0.512857 0.627309 -0.274529
C21   C     C_R   0.184720 0.520715 0.631719 0.465921
C22   C     C_R   0.146288 0.513476 0.507431 -0.030592
C23   C     C_R   0.181765 0.504387 0.381493 -0.228487
C24   C     C_R   0.253579 0.500411 0.378411 -0.195017
Cu1   Cu    Cu3+1 0.500010 0.500020 0.638630 0.963966
Cu2   Cu    Cu3+1 0.499990 0.499980 0.361370 0.953922
H1    H     H_    0.285487 0.514016 0.723440 0.157130
H2    H     H_    0.484704 0.116804 0.289520 0.170346
H3    H     H_    0.490829 0.090464 0.605278 0.158994
H4    H     H_    0.417576 0.380100 0.874420 0.077322
H5    H     H_    0.154029 0.499796 0.284474 0.174430
H6    H     H_    0.279186 0.493481 0.279705 0.162704
H7    H     H_    0.843396 0.519163 0.725119 0.155612
H8    H     H_    0.718255 0.498710 0.278068 0.158410
N1    N     N_R   0.034314 0.508896 0.385418 -0.246884
N2    N     N_R   0.965648 0.508662 0.383902 -0.239062
N3    N     N_R   0.964984 0.521603 0.624151 -0.242489
N4    N     N_R   0.033597 0.521862 0.625499 -0.170977
N5    N     N_2   0.499250 0.498660 0.846910 -0.010045
N6    N     N_2   0.499230 0.498630 0.153040 -0.263664
O1    O     O_R   0.500010 0.321960 0.617040 -0.575801
O2    O     O_R   0.499990 0.321920 0.382900 -0.578337
O3    O     O_R   0.400160 0.500010 0.617110 -0.602417
O4    O     O_R   0.400130 0.499970 0.382960 -0.579216
O5    O     O_R   0.500010 0.678080 0.617100 -0.623020
O6    O     O_R   0.499990 0.678040 0.382960 -0.543122
O7    O     O_R   0.599870 0.500030 0.617040 -0.569644
O8    O     O_R   0.599840 0.499990 0.382890 -0.578160
H9    H     H_    0.525725 0.909076 0.587187 0.107615
O9    O     O_3   0.561882 0.522263 0.903572 -0.515447
C25   C     C_3   0.577891 0.647217 0.881302 0.172533
H10   H     H_    0.532055 0.705997 0.898021 0.105041
H11   H     H_    0.597450 0.662584 0.775673 0.187160
C26   C     C_3   0.635309 0.686126 0.981145 -0.428674
H12   H     H_    0.617213 0.676768 0.089314 0.222320
H13   H     H_    0.680568 0.625573 0.967942 0.231991
C27   C     C_3   0.657849 0.818533 0.955223 -0.930404
H14   H     H_    0.678911 0.829156 0.849346 0.260380
H15   H     H_    0.698691 0.844479 0.030536 0.269575
H16   H     H_    0.613534 0.881102 0.967570 0.253770
H17   H     H_    0.445106 0.337726 0.127939 0.124557
H18   H     H_    0.508498 0.582278 0.107869 0.221282
O10   O     O_3   0.151754 0.525365 0.758187 -0.597787
C28   C     C_3   0.168433 0.635364 0.828181 0.068070
H19   H     H_    0.119870 0.687066 0.842161 0.176593
H20   H     H_    0.204800 0.697819 0.771727 0.119679
C29   C     C_3   0.198502 0.604672 0.970416 -0.346560
H21   H     H_    0.160401 0.548971 0.029677 0.233503
H22   H     H_    0.246104 0.549910 0.958499 0.207562
C30   C     C_3   0.216041 0.720414 0.051055 -0.904402
H23   H     H_    0.255137 0.776364 0.994792 0.253362
H24   H     H_    0.237592 0.695139 0.153561 0.264725
H25   H     H_    0.168914 0.775640 0.066715 0.263027
H26   H     H_    0.717963 0.512710 0.723769 0.162470
H27   H     H_    0.843800 0.505080 0.279255 0.155161
O11   O     O_3   0.449223 0.875921 0.276351 -0.587954
C31   C     C_3   0.482851 0.901791 0.149774 0.068770
H28   H     H_    0.497130 0.813108 0.103447 0.153496
H29   H     H_    0.531931 0.955506 0.159838 0.119548
C32   C     C_3   0.432936 0.966974 0.051475 -0.341660
H30   H     H_    0.387116 0.907166 0.032977 0.227778
H31   H     H_    0.414923 0.053083 0.099013 0.211467
C33   C     C_3   0.466945 0.997508 0.913514 -0.949306
H32   H     H_    0.512422 0.058618 0.929227 0.262161
H33   H     H_    0.429399 0.045222 0.845492 0.260151
H34   H     H_    0.483557 0.912579 0.861571 0.253567

loop_
_geom_bond_atom_site_label_1
_geom_bond_atom_site_label_2
_ccdc_geom_bond_type
N1    N2    A    
C2    C12   S    
Cu1   O3    S    
Cu2   O4    S    
C7    C8    A    
C31   H28   S    
C13   C18   S    
C12   O3    A    
C11   O11   S    
C5    C6    A    
C11   C14   S    
C19   O7    A    
C27   H15   S    
C16   H4    S    
N6    H18   S    
C17   H17   S    
C8    C9    A    
C5    H7    S    
C23   C24   A    
C15   H3    S    
C30   H23   S    
C1    C15   S    
C9    C10   A    
Cu1   O7    S    
Cu2   O8    S    
C4    N1    A    
C21   C22   A    
C32   C33   S    
C18   O6    A    
C6    H26   S    
C31   H29   S    
C26   H13   S    
C2    C20   A    
C29   H21   S    
C28   C29   S    
O11   C31   S    
C32   H31   S    
Cu1   O1    S    
C19   O8    A    
C16   C17   S    
C27   H16   S    
Cu1   Cu2   S    
C25   H10   S    
C29   H22   S    
C17   N6    D    
C28   H20   S    
C24   H6    S    
N3    N4    A    
C4    C22   S    
C33   H32   S    
N5    O9    S    
C30   H25   S    
O9    C25   S    
C8    H8    S    
C13   H9    S    
C1    O1    A    
C33   H33   S    
C4    N4    A    
C7    C19   S    
C2    C24   A    
C18   O5    A    
Cu1   O5    S    
Cu2   O2    S    
C31   C32   S    
C26   H12   S    
C14   C15   D    
C32   H30   S    
C6    C7    A    
C20   H1    S    
C25   C26   S    
C14   H2    S    
C28   H19   S    
C29   C30   S    
C5    C10   A    
C12   O4    A    
C3    C10   S    
Cu1   N5    S    
C11   C13   D    
Cu2   N6    S    
C27   H14   S    
C3    N2    A    
C21   O10   S    
Cu2   O6    S    
C16   N5    D    
O10   C28   S    
C1    O2    A    
C33   H34   S    
C20   C21   A    
C3    N3    A    
C22   C23   A    
C30   H24   S    
C9    H27   S    
C25   H11   S    
C23   H5    S    
C26   C27   S    
