data_mof_unit_44059.cif
_audit_creation_date              2012-12-10T19:06:27-0500
_audit_creation_method            fapswitch 2.2
_symmetry_space_group_name_H-M    P1
_symmetry_Int_Tables_number       1
_space_group_crystal_system       triclinic
_cell_length_a                    23.499365
_cell_length_b                    10.856747
_cell_length_c                    9.537854
_cell_angle_alpha                 88.933963
_cell_angle_beta                  90.386392
_cell_angle_gamma                 89.949475
_cell_volume                      2432.88310498

loop_
_atom_site_label
_atom_site_type_symbol
_atom_type_description
_atom_site_fract_x
_atom_site_fract_y
_atom_site_fract_z
_atom_type_partial_charge
C1    C     C_R   0.498241 0.262604 0.501048 0.815257
C2    C     C_R   0.968046 0.251898 0.480329 -0.207742
C3    C     C_R   0.027671 0.245643 0.483963 0.438540
C4    C     C_R   0.059849 0.355803 0.505262 -0.151894
C5    C     C_R   0.030053 0.467158 0.530623 -0.063823
C6    C     C_R   0.060153 0.576662 0.558229 -0.017397
C7    C     C_R   0.030438 0.686251 0.583704 -0.105404
C8    C     C_R   0.971313 0.688745 0.579516 -0.121754
C9    C     C_R   0.120221 0.361804 0.499978 0.605486
C10   C     C_R   0.119539 0.574945 0.558266 0.560974
C11   C     C_R   0.234309 0.551735 0.414689 -0.142737
C12   C     C_R   0.390918 0.500399 0.499727 0.867003
C13   C     C_R   0.293474 0.564081 0.407678 0.381949
C14   C     C_R   0.328286 0.493824 0.501049 -0.167263
C15   C     C_R   0.302587 0.415594 0.601207 -0.253942
C16   C     C_R   0.243550 0.406222 0.608749 -0.062481
C17   C     C_R   0.209168 0.474445 0.515662 0.250279
C18   C     C_R   0.758958 0.430130 0.621866 -0.096552
C19   C     C_R   0.699713 0.436107 0.618070 -0.217122
C20   C     C_R   0.671511 0.492364 0.503365 -0.031952
C21   C     C_R   0.703516 0.541889 0.392213 -0.218038
C22   C     C_R   0.762831 0.536457 0.396440 -0.092761
C23   C     C_R   0.498818 0.738131 0.497658 0.863061
C24   C     C_R   0.790689 0.480645 0.511347 0.346705
C25   C     C_R   0.490397 0.060284 0.624231 0.129751
C26   C     C_R   0.490960 0.130356 0.500934 -0.171098
C27   C     C_R   0.483346 0.071253 0.373158 -0.276959
C28   C     C_R   0.485186 0.943078 0.364935 0.409521
C29   C     C_R   0.492373 0.871945 0.492116 -0.220961
C30   C     C_R   0.490807 0.933620 0.619760 0.098393
C31   C     C_3   0.529754 0.923285 0.744248 -0.394956
C32   C     C_3   0.529278 0.063055 0.748364 -0.426664
C33   C     C_R   0.537128 0.572829 0.072564 0.436027
C34   C     C_R   0.609034 0.498537 0.500613 0.783802
C35   C     C_R   0.460642 0.435149 0.075190 -0.010502
C36   C     C_R   0.460682 0.435000 0.926300 -0.051132
C37   C     C_R   0.536889 0.573470 0.925045 0.273938
C38   C     C_3   0.600152 0.566982 0.919605 -0.521735
C39   C     C_3   0.600509 0.565411 0.078088 -0.525929
C40   C     C_R   0.880920 0.582695 0.544643 0.542766
C41   C     C_R   0.879230 0.367953 0.495901 0.570140
C42   C     C_R   0.938996 0.362552 0.500835 -0.092724
C43   C     C_R   0.969894 0.470179 0.527745 -0.009062
C44   C     C_R   0.940567 0.581475 0.550858 -0.017965
Cu1   Cu    Cu3+1 0.500000 0.499980 0.640670 0.965723
Cu2   Cu    Cu3+1 0.500000 0.500020 0.359330 1.037219
H1    H     H_    0.943816 0.169005 0.461859 0.233089
H2    H     H_    0.675979 0.395166 0.703796 0.144917
H3    H     H_    0.682836 0.586716 0.303637 0.150153
H4    H     H_    0.787206 0.575938 0.310815 0.146861
H5    H     H_    0.480408 0.125896 0.277402 0.211860
H6    H     H_    0.508635 0.878804 0.835951 0.264425
H7    H     H_    0.572064 0.884296 0.717939 0.182382
H8    H     H_    0.507845 0.099828 0.842254 0.238443
H9    H     H_    0.429584 0.380483 0.131728 0.155276
H10   H     H_    0.429702 0.380069 0.871119 0.147624
H11   H     H_    0.615780 0.479145 0.876207 0.214169
H12   H     H_    0.619057 0.651897 0.872643 0.214924
H13   H     H_    0.616273 0.476726 0.123859 0.207731
H14   H     H_    0.620185 0.649165 0.122259 0.232838
H15   H     H_    0.052806 0.771057 0.605438 0.230599
H16   H     H_    0.949834 0.775139 0.598329 0.214488
H17   H     H_    0.207138 0.604701 0.344024 0.201912
H18   H     H_    0.328377 0.361434 0.674063 0.173069
H19   H     H_    0.224486 0.346840 0.687854 0.173955
H20   H     H_    0.780281 0.386780 0.710893 0.145426
N1    N     N_R   0.851631 0.477010 0.517009 -0.471248
N2    N     N_R   0.148200 0.469663 0.526615 -0.469065
N3    N     N_R   0.500360 0.500930 0.147930 -0.204448
N4    N     N_R   0.500360 0.500890 0.852020 -0.205309
O1    O     O_R   0.500000 0.319640 0.618810 -0.588158
O2    O     O_2   0.848912 0.265377 0.469330 -0.521519
O3    O     O_2   0.151158 0.263057 0.464331 -0.432286
O4    O     O_2   0.148693 0.678258 0.588897 -0.490886
O5    O     O_R   0.500010 0.319680 0.381230 -0.600803
O6    O     O_R   0.417880 0.499940 0.618820 -0.583945
O7    O     O_R   0.417880 0.499980 0.381240 -0.531364
O8    O     O_R   0.499990 0.680320 0.618770 -0.582006
O9    O     O_R   0.500000 0.680360 0.381190 -0.489823
O10   O     O_R   0.582120 0.500020 0.618760 -0.592808
O11   O     O_R   0.582120 0.500060 0.381180 -0.591505
O12   O     O_2   0.852341 0.688404 0.566665 -0.521718
S1    S     S_3+6 0.488482 0.885135 0.191558 0.009700
O13   O     O_2   0.447004 0.782112 0.170243 -0.167216
O14   O     O_2   0.475320 0.984751 0.084601 -0.343180
O15   O     O_3   0.554819 0.833912 0.164262 -0.579206
H21   H     H_    0.579275 0.907878 0.170650 0.339446
H22   H     H_    0.571224 0.105331 0.723797 0.189214
S2    S     S_3+6 0.058103 0.096431 0.466618 0.054773
O16   O     O_2   0.097861 0.070181 0.587719 -0.228952
O17   O     O_2   0.012651 0.999038 0.465418 -0.320383
O18   O     O_3   0.094155 0.090751 0.315106 -0.461057
H23   H     H_    0.112524 0.008570 0.316395 0.393498
S3    S     S_3+6 0.321417 0.676786 0.291456 0.050209
O19   O     O_2   0.363002 0.755248 0.370049 -0.278434
O20   O     O_2   0.351040 0.614317 0.173050 -0.257195
O21   O     O_3   0.269116 0.766913 0.225374 -0.511177
H24   H     H_    0.288690 0.828000 0.164227 0.396724

loop_
_geom_bond_atom_site_label_1
_geom_bond_atom_site_label_2
_ccdc_geom_bond_type
Cu1   O1    S    
C10   O4    S    
C41   C42   A    
C35   C36   A    
C31   H6    S    
C21   H3    S    
O21   H24   S    
C7    C8    A    
C41   N1    A    
Cu1   Cu2   S    
C26   C27   A    
C33   C39   S    
Cu1   O6    S    
C18   C24   A    
C23   C29   S    
C21   C22   A    
C28   C29   A    
C11   H17   S    
C30   C31   S    
C15   C16   A    
C38   H11   S    
C18   C19   A    
C7    H15   S    
Cu2   N3    S    
C24   N1    S    
C34   O10   A    
C38   H12   S    
Cu2   O9    S    
C31   C32   S    
C27   H5    S    
C16   C17   A    
C40   N1    A    
C15   H18   S    
Cu1   O8    S    
C34   O11   A    
S2    O17   D    
C29   C30   A    
C33   N3    A    
C22   H4    S    
C20   C34   S    
C25   C32   S    
C5    C43   A    
C13   C14   A    
C28   S1    S    
C9    O3    S    
C32   H8    S    
Cu2   O5    S    
C36   N4    A    
C38   C39   S    
C35   H9    S    
C1    O5    A    
C40   O12   S    
O15   H21   S    
S3    O21   S    
C25   C26   A    
C33   C37   A    
C43   C44   A    
C37   C38   S    
C36   H10   S    
Cu2   O11   S    
S1    O13   D    
C39   H13   S    
C12   O7    A    
C1    O1    A    
C31   H7    S    
S2    O18   S    
S3    O20   D    
C41   O2    S    
S1    O14   D    
C12   C14   S    
C12   O6    A    
C1    C26   S    
C22   C24   A    
C42   C43   A    
C3    C4    A    
C25   C30   A    
C11   C17   A    
C17   N2    S    
Cu1   N4    S    
C19   H2    S    
C8    C44   A    
C4    C5    A    
C6    C10   A    
Cu2   O7    S    
C6    C7    A    
C10   N2    A    
C2    H1    S    
C18   H20   S    
C13   S3    S    
C3    S2    S    
C19   C20   A    
C2    C3    A    
C4    C9    A    
C9    N2    A    
C11   C13   A    
C5    C6    A    
C2    C42   A    
C39   H14   S    
O18   H23   S    
Cu1   O10   S    
C23   O8    A    
S3    O19   D    
C40   C44   A    
S1    O15   S    
C20   C21   A    
C35   N3    A    
C27   C28   A    
C14   C15   A    
C16   H19   S    
C23   O9    A    
S2    O16   D    
C37   N4    A    
C8    H16   S    
C32   H22   S    
