data_mof_unit_50024.cif
_audit_creation_date              2012-12-11T15:08:54-0500
_audit_creation_method            fapswitch 2.2
_symmetry_space_group_name_H-M    P1
_symmetry_Int_Tables_number       1
_space_group_crystal_system       triclinic
_cell_length_a                    19.555597
_cell_length_b                    11.375306
_cell_length_c                    18.696525
_cell_angle_alpha                 90.047606
_cell_angle_beta                  90.256168
_cell_angle_gamma                 90.099319
_cell_volume                      4159.00953098

loop_
_atom_site_label
_atom_site_type_symbol
_atom_type_description
_atom_site_fract_x
_atom_site_fract_y
_atom_site_fract_z
_atom_type_partial_charge
C1    C     C_R   0.273603 0.040039 0.855412 0.543587
C2    C     C_3   0.694422 0.504925 0.960322 -0.232713
C3    C     C_R   0.226336 0.542101 0.354567 0.537710
C4    C     C_R   0.469766 0.822802 0.646285 0.529656
C5    C     C_R   0.532095 0.822833 0.354919 0.529190
C6    C     C_R   0.969766 0.322802 0.646285 0.529656
C7    C     C_R   0.032095 0.322833 0.354919 0.529190
C8    C     C_R   0.260256 0.638806 0.644435 0.535337
C9    C     C_R   0.738773 0.641569 0.356744 0.536042
C10   C     C_R   0.760256 0.138806 0.644435 0.535337
C11   C     C_R   0.238773 0.141569 0.356744 0.536042
C12   C     C_3   0.457757 0.911158 0.035005 -0.156598
C13   C     C_3   0.814860 0.023291 0.042517 -0.236537
C14   C     C_3   0.511976 0.931329 0.976527 -0.134804
C15   C     C_3   0.957757 0.411158 0.035005 -0.156599
C16   C     C_3   0.011976 0.431329 0.976527 -0.134805
C17   C     C_3   0.428647 0.805127 0.991859 -0.134377
C18   C     C_3   0.559669 0.844555 0.014941 -0.137172
C19   C     C_3   0.928647 0.305127 0.991859 -0.134376
C20   C     C_3   0.059669 0.344555 0.014941 -0.137171
C21   C     C_3   0.483451 0.826182 0.934060 0.046680
C22   C     C_3   0.505223 0.825765 0.071867 0.031976
C23   C     C_3   0.983451 0.326182 0.934060 0.046680
C24   C     C_3   0.194422 0.004925 0.960322 -0.232713
C25   C     C_3   0.005222 0.325765 0.071867 0.031977
C26   C     C_2   0.381161 0.497772 0.923996 0.587659
C27   C     C_2   0.626883 0.487478 0.074258 0.589392
C28   C     C_2   0.881161 0.997772 0.923996 0.587660
C29   C     C_2   0.126883 0.987479 0.074257 0.589388
C30   C     C_3   0.312624 0.514322 0.960107 -0.045145
C31   C     C_3   0.697240 0.499199 0.042860 -0.055359
C32   C     C_3   0.812624 0.014322 0.960107 -0.045145
C33   C     C_3   0.197240 0.999199 0.042860 -0.055359
C34   C     C_3   0.184932 0.512867 0.023987 -0.237299
C35   C     C_3   0.824645 0.532683 0.975316 -0.229256
C36   C     C_3   0.684932 0.012867 0.023987 -0.237300
C37   C     C_R   0.727729 0.041893 0.145238 0.539713
C38   C     C_3   0.324645 0.032683 0.975316 -0.229256
C39   C     C_3   0.243584 0.699561 0.053876 -0.269691
C40   C     C_3   0.749856 0.697725 0.944683 -0.266151
C41   C     C_3   0.743584 0.199561 0.053876 -0.269690
C42   C     C_3   0.249856 0.197725 0.944683 -0.266151
C43   C     C_3   0.243887 0.569473 0.068770 0.027545
C44   C     C_3   0.759686 0.567759 0.931587 0.033041
C45   C     C_3   0.743886 0.069473 0.068770 0.027546
C46   C     C_3   0.259686 0.067759 0.931587 0.033042
C47   C     C_3   0.254496 0.598987 0.928848 0.039892
C48   C     C_R   0.773603 0.540040 0.855412 0.543587
C49   C     C_3   0.745293 0.600891 0.070357 0.038233
C50   C     C_3   0.754496 0.098987 0.928848 0.039892
C51   C     C_3   0.245293 0.100891 0.070357 0.038234
C52   C     C_3   0.187560 0.533331 0.942420 -0.278916
C53   C     C_3   0.818123 0.560857 0.055419 -0.273200
C54   C     C_3   0.687560 0.033331 0.942419 -0.278916
C55   C     C_3   0.318123 0.060857 0.055419 -0.273200
C56   C     C_3   0.244553 0.715542 0.972382 -0.230969
C57   C     C_3   0.733762 0.712847 0.024874 -0.244734
C58   C     C_3   0.744553 0.215542 0.972382 -0.230969
C59   C     C_R   0.227729 0.541893 0.145238 0.539713
C60   C     C_3   0.233762 0.212847 0.024874 -0.244733
C61   C     C_3   0.507844 0.700861 0.461967 -0.226768
C62   C     C_3   0.505669 0.701065 0.542044 -0.234142
C63   C     C_3   0.007844 0.200861 0.461967 -0.226768
C64   C     C_3   0.005669 0.201065 0.542044 -0.234142
C65   C     C_R   0.465368 0.820664 0.857080 0.535555
C66   C     C_R   0.528999 0.821017 0.146718 0.529702
C67   C     C_R   0.965368 0.320664 0.857080 0.535556
C68   C     C_R   0.029000 0.321017 0.146718 0.529703
C69   C     C_3   0.562734 0.908979 0.473701 -0.213725
C70   C     C_3   0.531272 0.740523 0.972200 -0.032299
C71   C     C_3   0.432088 0.882446 0.526614 -0.223521
C72   C     C_3   0.062734 0.408979 0.473701 -0.213725
C73   C     C_3   0.932088 0.382446 0.526614 -0.223521
C74   C     C_3   0.441767 0.881316 0.444498 -0.262627
C75   C     C_3   0.554428 0.900906 0.555750 -0.256376
C76   C     C_3   0.941767 0.381316 0.444498 -0.262627
C77   C     C_3   0.054428 0.400906 0.555750 -0.256376
C78   C     C_3   0.511771 0.828287 0.431456 0.066765
C79   C     C_3   0.491336 0.827329 0.570029 0.061784
C80   C     C_3   0.011771 0.328287 0.431456 0.066765
C81   C     C_3   0.477318 0.721346 0.030646 -0.015929
C82   C     C_3   0.991336 0.327329 0.570029 0.061784
C83   C     C_3   0.177517 0.640749 0.460951 -0.227892
C84   C     C_3   0.815620 0.661411 0.543368 -0.233996
C85   C     C_3   0.677517 0.140749 0.460951 -0.227893
C86   C     C_3   0.315620 0.161411 0.543368 -0.233996
C87   C     C_3   0.179607 0.644974 0.541015 -0.234817
C88   C     C_3   0.813564 0.666289 0.463298 -0.227254
C89   C     C_3   0.679607 0.144974 0.541015 -0.234817
C90   C     C_3   0.313564 0.166289 0.463298 -0.227254
C91   C     C_3   0.255168 0.455235 0.472906 -0.214205
C92   C     C_3   0.031272 0.240523 0.972200 -0.032298
C93   C     C_3   0.760263 0.461269 0.527131 -0.224526
C94   C     C_3   0.755168 0.955235 0.472906 -0.214205
C95   C     C_3   0.260263 0.961269 0.527131 -0.224526
C96   C     C_3   0.301444 0.648692 0.442634 -0.262891
C97   C     C_3   0.690706 0.634407 0.557458 -0.256751
C98   C     C_3   0.801444 0.148692 0.442634 -0.262891
C99   C     C_3   0.190706 0.134407 0.557458 -0.256751
C100  C     C_3   0.239488 0.570848 0.430551 0.067255
C101  C     C_3   0.759234 0.576627 0.570977 0.062532
C102  C     C_3   0.739488 0.070848 0.430551 0.067255
C103  C     C_3   0.977317 0.221346 0.030646 -0.015928
C104  C     C_3   0.259234 0.076627 0.570977 0.062532
C105  C     C_3   0.250830 0.603917 0.568499 0.062099
C106  C     C_3   0.747032 0.608489 0.432973 0.066923
C107  C     C_3   0.750830 0.103917 0.568499 0.062099
C108  C     C_3   0.247032 0.108489 0.432973 0.066924
C109  C     C_3   0.256395 0.472983 0.554705 -0.255764
C110  C     C_3   0.755179 0.477471 0.445291 -0.263005
C111  C     C_3   0.756395 0.972983 0.554705 -0.255764
C112  C     C_3   0.255178 0.977471 0.445291 -0.263005
C113  C     C_R   0.261146 0.636341 0.852701 0.544958
C114  C     C_3   0.314860 0.523291 0.042517 -0.236536
C115  C     C_R   0.738737 0.636829 0.146995 0.537580
C116  C     C_R   0.761146 0.136341 0.852701 0.544958
C117  C     C_R   0.238737 0.136829 0.146995 0.537579
C118  C     C_3   0.307439 0.664926 0.524440 -0.226638
C119  C     C_3   0.681506 0.643887 0.475594 -0.215523
C120  C     C_3   0.807439 0.164927 0.524440 -0.226638
C121  C     C_3   0.181506 0.143887 0.475594 -0.215523
C122  C     C_R   0.272651 0.045156 0.646700 0.536474
C123  C     C_R   0.726336 0.042101 0.354567 0.537710
C124  C     C_R   0.772651 0.545156 0.646700 0.536474
Cr1   Cr    Cr6+3 0.229620 0.836040 0.749110 0.995758
Cr2   Cr    Cr6+3 0.613980 0.676590 0.250790 1.038277
Cr3   Cr    Cr6+3 0.886020 0.176590 0.749210 1.037448
Cr4   Cr    Cr6+3 0.113980 0.176590 0.250790 1.038277
Cr5   Cr    Cr6+3 0.770380 0.836040 0.250890 0.995599
Cr6   Cr    Cr6+3 0.729620 0.336040 0.749110 0.995758
Cr7   Cr    Cr6+3 0.270380 0.336040 0.250890 0.995599
Cr8   Cr    Cr6+3 0.387630 0.990680 0.750730 1.009786
Cr9   Cr    Cr6+3 0.612370 0.990680 0.249270 1.013166
Cr10  Cr    Cr6+3 0.887630 0.490680 0.750730 1.009786
Cr11  Cr    Cr6+3 0.112370 0.490680 0.249270 1.013167
Cr12  Cr    Cr6+3 0.386020 0.676590 0.749210 1.037448
H1    H     H_    0.377834 0.769835 0.982628 0.111375
H2    H     H_    0.707708 0.733681 0.911058 0.104538
H3    H     H_    0.142674 0.077373 0.461156 0.120838
H4    H     H_    0.307854 0.430973 0.457923 0.121915
H5    H     H_    0.719538 0.401074 0.545345 0.130545
H6    H     H_    0.807855 0.930973 0.457923 0.121915
H7    H     H_    0.219538 0.901074 0.545345 0.130545
H8    H     H_    0.305366 0.440720 0.577712 0.118668
H9    H     H_    0.710813 0.427892 0.423263 0.113182
H10   H     H_    0.805366 0.940720 0.577712 0.118668
H11   H     H_    0.210813 0.927892 0.423263 0.113182
H12   H     H_    0.328862 0.437029 0.065709 0.131223
H13   H     H_    0.787945 0.244606 0.079468 0.101299
H14   H     H_    0.686609 0.418705 0.936840 0.126376
H15   H     H_    0.828862 0.937029 0.065708 0.131221
H16   H     H_    0.186609 0.918705 0.936840 0.126376
H17   H     H_    0.355703 0.584269 0.060034 0.126616
H18   H     H_    0.648749 0.554061 0.942134 0.135174
H19   H     H_    0.855703 0.084269 0.060034 0.126615
H20   H     H_    0.148749 0.054061 0.942134 0.135171
H21   H     H_    0.292833 0.425039 0.951705 0.095179
H22   H     H_    0.723003 0.417435 0.057356 0.097537
H23   H     H_    0.792833 0.925039 0.951705 0.095179
H24   H     H_    0.207709 0.233681 0.911058 0.104538
H25   H     H_    0.223003 0.917435 0.057356 0.097537
H26   H     H_    0.695087 0.921242 0.031505 0.101528
H27   H     H_    0.332458 0.939666 0.967908 0.113720
H28   H     H_    0.195088 0.421241 0.031506 0.101528
H29   H     H_    0.832458 0.439667 0.967908 0.113720
H30   H     H_    0.685459 0.948680 0.912583 0.109064
H31   H     H_    0.329117 0.981715 0.088444 0.101127
H32   H     H_    0.185459 0.448680 0.912583 0.109064
H33   H     H_    0.829117 0.481715 0.088444 0.101128
H34   H     H_    0.432925 0.422201 0.842752 0.332321
H35   H     H_    0.277890 0.785690 0.954127 0.100182
H36   H     H_    0.561759 0.392257 0.134431 0.336736
H37   H     H_    0.932925 0.922199 0.842752 0.332322
H38   H     H_    0.061757 0.892255 0.134426 0.336736
H39   H     H_    0.679520 0.730627 0.029330 0.138468
H40   H     H_    0.777890 0.285690 0.954127 0.100182
H41   H     H_    0.179520 0.230627 0.029330 0.138470
H42   H     H_    0.192523 0.747006 0.959636 0.143106
H43   H     H_    0.765677 0.784536 0.046276 0.129745
H44   H     H_    0.692523 0.247006 0.959636 0.143105
H45   H     H_    0.606062 0.849452 0.043673 0.108035
H46   H     H_    0.265677 0.284536 0.046276 0.129744
H47   H     H_    0.633892 0.040362 0.043920 0.163953
H48   H     H_    0.371349 0.077596 0.955082 0.161068
H49   H     H_    0.133892 0.540362 0.043920 0.163954
H50   H     H_    0.871349 0.577596 0.955082 0.161069
H51   H     H_    0.142025 0.584046 0.924381 0.138089
H52   H     H_    0.855660 0.630823 0.069890 0.151214
H53   H     H_    0.642025 0.084046 0.924381 0.138089
H54   H     H_    0.355660 0.130822 0.069890 0.151214
H55   H     H_    0.549103 0.643990 0.444834 0.138036
H56   H     H_    0.877834 0.269836 0.982628 0.111375
H57   H     H_    0.467201 0.634611 0.557774 0.137012
H58   H     H_    0.049103 0.143990 0.444834 0.138036
H59   H     H_    0.967201 0.134611 0.557774 0.137012
H60   H     H_    0.461410 0.656117 0.440710 0.113993
H61   H     H_    0.554382 0.669564 0.564630 0.117092
H62   H     H_    0.961410 0.156117 0.440710 0.113993
H63   H     H_    0.054382 0.169564 0.564630 0.117092
H64   H     H_    0.615597 0.896664 0.457315 0.110768
H65   H     H_    0.391126 0.825179 0.539252 0.110426
H66   H     H_    0.115597 0.396664 0.457315 0.110768
H67   H     H_    0.106062 0.349452 0.043673 0.108036
H68   H     H_    0.891126 0.325179 0.539252 0.110426
H69   H     H_    0.600219 0.861190 0.581049 0.102846
H70   H     H_    0.401403 0.828605 0.417616 0.105304
H71   H     H_    0.100219 0.361191 0.581049 0.102846
H72   H     H_    0.901403 0.328605 0.417616 0.105304
H73   H     H_    0.438035 0.983614 0.067681 0.118225
H74   H     H_    0.526923 0.017066 0.953074 0.118720
H75   H     H_    0.938035 0.483615 0.067680 0.118225
H76   H     H_    0.026923 0.517066 0.953074 0.118720
H77   H     H_    0.438607 0.971824 0.422444 0.111441
H78   H     H_    0.195958 0.737011 0.076390 0.193002
H79   H     H_    0.546562 0.989562 0.579223 0.116423
H80   H     H_    0.938607 0.471824 0.422444 0.111441
H81   H     H_    0.046562 0.489562 0.579223 0.116423
H82   H     H_    0.422335 0.973078 0.544998 0.129289
H83   H     H_    0.548322 0.999653 0.459217 0.120956
H84   H     H_    0.922335 0.473078 0.544998 0.129289
H85   H     H_    0.048322 0.499653 0.459217 0.120956
H86   H     H_    0.128000 0.607600 0.443996 0.137113
H87   H     H_    0.868314 0.636186 0.558691 0.136572
H88   H     H_    0.628000 0.107600 0.443996 0.137113
H89   H     H_    0.797905 0.743659 0.930285 0.162914
H90   H     H_    0.368314 0.136186 0.558691 0.136572
H91   H     H_    0.178238 0.731958 0.439501 0.115487
H92   H     H_    0.807798 0.749571 0.566562 0.118365
H93   H     H_    0.678238 0.231958 0.439501 0.115487
H94   H     H_    0.307798 0.249571 0.566562 0.118365
H95   H     H_    0.165886 0.735819 0.556557 0.136629
H96   H     H_    0.820989 0.756760 0.446761 0.136796
H97   H     H_    0.665886 0.235819 0.556557 0.136629
H98   H     H_    0.320989 0.256760 0.446761 0.136796
H99   H     H_    0.139586 0.588524 0.564046 0.117849
H100  H     H_    0.695957 0.237011 0.076390 0.193000
H101  H     H_    0.859052 0.620234 0.441429 0.114939
H102  H     H_    0.639586 0.088524 0.564046 0.117849
H103  H     H_    0.359052 0.120234 0.441429 0.114939
H104  H     H_    0.722319 0.882144 0.457114 0.110591
H105  H     H_    0.309580 0.928374 0.539260 0.110656
H106  H     H_    0.222319 0.382144 0.457114 0.110591
H107  H     H_    0.809580 0.428374 0.539260 0.110656
H108  H     H_    0.713846 0.924795 0.580507 0.103503
H109  H     H_    0.301527 0.943943 0.418089 0.105867
H110  H     H_    0.213846 0.424795 0.580507 0.103503
H111  H     H_    0.297905 0.243659 0.930285 0.162913
H112  H     H_    0.801527 0.443943 0.418089 0.105868
H113  H     H_    0.348384 0.607441 0.420776 0.111993
H114  H     H_    0.650053 0.578334 0.580997 0.116467
H115  H     H_    0.848384 0.107441 0.420776 0.111993
H116  H     H_    0.150053 0.078334 0.580997 0.116467
H117  H     H_    0.294929 0.734361 0.415041 0.105271
H118  H     H_    0.688503 0.722218 0.583086 0.103292
H119  H     H_    0.794929 0.234361 0.415041 0.105271
H120  H     H_    0.188503 0.222218 0.583086 0.103292
H121  H     H_    0.560957 0.673575 0.943033 0.149934
H122  H     H_    0.287945 0.744605 0.079468 0.101299
H123  H     H_    0.464029 0.639205 0.059033 0.190414
H124  H     H_    0.060957 0.173575 0.943033 0.149932
H125  H     H_    0.964029 0.139205 0.059032 0.190411
H126  H     H_    0.298036 0.754868 0.535462 0.111090
H127  H     H_    0.661451 0.729379 0.459857 0.110341
H128  H     H_    0.798036 0.254868 0.535462 0.111090
H129  H     H_    0.161451 0.229379 0.459857 0.110341
H130  H     H_    0.358382 0.636288 0.542925 0.129227
H131  H     H_    0.642674 0.577373 0.461156 0.120838
H132  H     H_    0.858382 0.136288 0.542925 0.129227
O1    O     O_R   0.214130 0.708570 0.829890 -0.536500
O2    O     O_R   0.542830 0.717300 0.331620 -0.538830
O3    O     O_R   0.957170 0.217300 0.668380 -0.536403
O4    O     O_R   0.042830 0.217300 0.331620 -0.538830
O5    O     O_R   0.320870 0.624890 0.673130 -0.508684
O6    O     O_R   0.679130 0.624890 0.326870 -0.512929
O7    O     O_R   0.820870 0.124890 0.673130 -0.508684
O8    O     O_R   0.179130 0.124890 0.326870 -0.512930
O9    O     O_3   0.334430 0.834430 0.749680 -0.284245
O10   O     O_3   0.665570 0.834430 0.250320 -0.283128
O11   O     O_3   0.834430 0.334430 0.749680 -0.284245
O12   O     O_R   0.785870 0.708570 0.170110 -0.535373
O13   O     O_3   0.165570 0.334430 0.250320 -0.283128
O14   O     O_R   0.236050 0.959150 0.825270 -0.516118
O15   O     O_R   0.763950 0.959150 0.174730 -0.515050
O16   O     O_R   0.736050 0.459150 0.825270 -0.516118
O17   O     O_R   0.263950 0.459150 0.174730 -0.515050
O18   O     O_R   0.332100 0.076650 0.832310 -0.512603
O19   O     O_R   0.667900 0.076650 0.167690 -0.505486
O20   O     O_R   0.832100 0.576650 0.832310 -0.512603
O21   O     O_R   0.167900 0.576650 0.167690 -0.505486
O22   O     O_R   0.446500 0.918620 0.826240 -0.512668
O23   O     O_R   0.714130 0.208570 0.829890 -0.536500
O24   O     O_R   0.553500 0.918620 0.173760 -0.511387
O25   O     O_R   0.946500 0.418620 0.826240 -0.512668
O26   O     O_R   0.053500 0.418620 0.173760 -0.511388
O27   O     O_R   0.457310 0.715830 0.831280 -0.493165
O28   O     O_R   0.542690 0.715830 0.168720 -0.482682
O29   O     O_R   0.957310 0.215830 0.831280 -0.493164
O30   O     O_R   0.042690 0.215830 0.168720 -0.482678
O31   O     O_R   0.321000 0.623520 0.824130 -0.460635
O32   O     O_R   0.679000 0.623520 0.175870 -0.465512
O33   O     O_R   0.821000 0.123520 0.824130 -0.460636
O34   O     O_R   0.285870 0.208570 0.170110 -0.535373
O35   O     O_R   0.179000 0.123520 0.175870 -0.465511
O36   O     O_R   0.213990 0.710040 0.667000 -0.536071
O37   O     O_R   0.786010 0.710040 0.333000 -0.536102
O38   O     O_R   0.713990 0.210040 0.667000 -0.536071
O39   O     O_R   0.286010 0.210040 0.333000 -0.536102
O40   O     O_R   0.235920 0.960520 0.674260 -0.513949
O41   O     O_R   0.764080 0.960520 0.325740 -0.514971
O42   O     O_R   0.735920 0.460520 0.674260 -0.513949
O43   O     O_R   0.264080 0.460520 0.325740 -0.514971
O44   O     O_R   0.331960 0.078120 0.669410 -0.529969
O45   O     O_R   0.446360 0.919990 0.675230 -0.513464
O46   O     O_R   0.668040 0.078120 0.330590 -0.530366
O47   O     O_R   0.831960 0.578120 0.669410 -0.529969
O48   O     O_R   0.168040 0.578120 0.330590 -0.530366
O49   O     O_2   0.433915 0.530924 0.952134 -0.544871
O50   O     O_R   0.384489 0.431103 0.861090 -0.687299
O51   O     O_2   0.584399 0.563118 0.063637 -0.525509
O52   O     O_R   0.610508 0.389884 0.116250 -0.718450
O53   O     O_2   0.933914 0.030927 0.952132 -0.544873
O54   O     O_R   0.884489 0.931100 0.861090 -0.687301
O55   O     O_2   0.084401 0.063125 0.063640 -0.525507
O56   O     O_R   0.553640 0.919990 0.324770 -0.514987
O57   O     O_R   0.110505 0.889880 0.116245 -0.718453
O58   O     O_R   0.946360 0.419990 0.675230 -0.513464
O59   O     O_R   0.053640 0.419990 0.324770 -0.514987
O60   O     O_R   0.457170 0.717300 0.668380 -0.536403

loop_
_geom_bond_atom_site_label_1
_geom_bond_atom_site_label_2
_ccdc_geom_bond_type
C8    O36   A    
C54   H53   S    
C35   C53   S    
Cr7   O34   S    
C83   C87   S    
C10   O7    A    
C48   O16   A    
C20   C92   S    
C27   O51   D    
Cr10  O11   S    
C14   C21   S    
Cr11  O26   S    
C98   H115  S    
C1    C46   S    
C41   H13   S    
C10   O38   A    
C64   H59   S    
C29   C33   S    
C94   C111  S    
C87   H99   S    
Cr5   O15   S    
Cr1   O36   S    
Cr5   O37   S    
C3    C100  S    
C38   C55   S    
C40   H2    S    
Cr10  O20   S    
C52   H51   S    
C91   C100  S    
C110  H9    S    
C93   C110  S    
C99   C121  S    
C28   O53   D    
C60   H46   S    
C96   H113  S    
C1    O18   A    
Cr2   O28   S    
C81   H123  S    
C27   C31   S    
C28   C32   S    
C85   H93   S    
C13   H15   S    
C86   C90   S    
C121  H129  S    
Cr7   O17   S    
Cr6   O38   S    
C60   H41   S    
C98   C102  S    
Cr7   O43   S    
C17   C21   S    
C19   C23   S    
C55   H54   S    
Cr2   O10   S    
C9    O6    A    
C39   C56   S    
C66   O28   A    
C16   C20   S    
C123  O46   A    
C103  H125  S    
Cr11  O21   S    
C61   H60   S    
C95   H105  S    
C49   C115  S    
C83   C100  S    
C56   H35   S    
Cr4   O8    S    
C105  C118  S    
C37   C45   S    
C102  C123  S    
C107  C120  S    
C29   O55   D    
C89   H102  S    
Cr2   O2    S    
C84   C88   S    
C20   H67   S    
Cr3   O7    S    
C84   H87   S    
C98   C120  S    
C47   C52   S    
C59   O21   A    
C24   C46   S    
Cr1   O40   S    
C13   C45   S    
C75   H69   S    
C77   H81   S    
C77   C82   S    
C5    O56   A    
C49   C53   S    
C75   H79   S    
C109  H8    S    
C51   C55   S    
C85   H88   S    
C91   H4    S    
C94   C102  S    
C61   H55   S    
C41   C45   S    
C17   H1    S    
C75   C79   S    
C44   C48   S    
C115  O12   A    
C2    H14   S    
C13   C32   S    
Cr12  O5    S    
C86   C104  S    
C8    C105  S    
C37   O19   A    
C71   C79   S    
C56   H42   S    
C59   O17   A    
C5    O2    A    
C71   H82   S    
Cr1   O9    S    
C7    O4    A    
C113  O1    A    
C41   C58   S    
C34   H28   S    
C77   H71   S    
C15   C25   S    
C104  C122  S    
C12   C22   S    
C4    O60   A    
C49   C57   S    
C23   C67   S    
Cr6   O11   S    
C6    O58   A    
C57   H39   S    
C70   H121  S    
C2    C44   S    
Cr6   O23   S    
C17   C81   S    
C43   C59   S    
C26   O50   S    
C2    H18   S    
Cr3   O3    S    
C122  O40   A    
Cr4   O4    S    
C117  O35   A    
C98   H119  S    
C63   C80   S    
C112  H109  S    
C101  C124  S    
C11   O39   A    
C94   H6    S    
C111  H10   S    
Cr5   O41   S    
Cr4   O35   S    
C18   H45   S    
C97   C119  S    
C124  O47   A    
C99   H120  S    
C39   H122  S    
H34   O50   S    
C87   C105  S    
C64   C82   S    
C63   H58   S    
Cr5   O10   S    
C36   H47   S    
Cr9   O56   S    
C38   H27   S    
C26   C30   S    
C16   C23   S    
C7    O59   A    
Cr7   O13   S    
C72   H66   S    
Cr6   O42   S    
Cr7   O39   S    
C6    O3    A    
C18   C22   S    
C107  C111  S    
C42   H24   S    
C34   C43   S    
C76   C80   S    
C62   H61   S    
C4    O45   A    
C58   H44   S    
C112  H11   S    
C121  H3    S    
C90   C108  S    
C72   C80   S    
C35   H50   S    
C72   H85   S    
C96   C100  S    
C51   C117  S    
C61   C62   S    
C11   O8    A    
C38   C46   S    
C36   C54   S    
C63   C64   S    
C24   H20   S    
C40   C44   S    
C11   C108  S    
C23   C92   S    
C51   C60   S    
Cr3   O11   S    
Cr10  O47   S    
C85   C102  S    
C47   C56   S    
C65   O22   A    
C30   H21   S    
C28   O54   S    
C95   H7    S    
C120  H132  S    
C106  C119  S    
C55   H31   S    
C108  C121  S    
C15   C19   S    
C50   C54   S    
C90   H103  S    
Cr9   O46   S    
C53   H52   S    
C31   C49   S    
C95   C112  S    
C43   C114  S    
C106  C110  S    
C20   C25   S    
Cr5   O12   S    
C42   C46   S    
C105  C109  S    
C24   H16   S    
C12   C17   S    
C69   H64   S    
C124  O42   A    
C37   O15   A    
C8    O5    A    
Cr12  O31   S    
C53   H33   S    
C32   H23   S    
C99   C104  S    
C113  O31   A    
C67   O29   A    
C36   H26   S    
C25   C68   S    
C54   H30   S    
C76   H72   S    
C27   O52   S    
C50   C58   S    
C22   C81   S    
C93   H107  S    
C57   H43   S    
C85   C89   S    
H38   O57   S    
Cr9   O10   S    
C108  C112  S    
C73   H84   S    
C115  O32   A    
C86   H94   S    
Cr8   O45   S    
C13   H19   S    
C34   H49   S    
C30   C47   S    
Cr3   O29   S    
C76   H80   S    
C91   H106  S    
C89   C107  S    
C122  O44   A    
C123  O41   A    
C94   H104  S    
C74   H77   S    
C73   C76   S    
Cr8   O22   S    
Cr12  O60   S    
C93   C101  S    
C73   C82   S    
C93   H5    S    
C30   C114  S    
C110  H112  S    
C47   C113  S    
C40   C57   S    
C21   C65   S    
C69   H83   S    
C3    O43   A    
C99   H116  S    
C12   H73   S    
C71   C74   S    
C97   H114  S    
C33   C51   S    
C34   C52   S    
C24   C33   S    
C63   H62   S    
C114  H12   S    
C48   O20   A    
C68   O30   A    
C116  O33   A    
C69   C75   S    
C29   O57   S    
C31   H22   S    
Cr11  O48   S    
C9    O37   A    
C74   C78   S    
C64   H63   S    
Cr10  O58   S    
C62   H57   S    
C5    C78   S    
C7    C80   S    
C18   C70   S    
C111  H108  S    
C6    C82   S    
C14   C18   S    
C33   H25   S    
Cr11  O13   S    
C38   H48   S    
C83   H91   S    
Cr8   O9    S    
C96   C118  S    
C96   H117  S    
C1    O14   A    
Cr2   O32   S    
C89   H97   S    
C15   C16   S    
C40   H89   S    
C90   H98   S    
H37   O54   S    
C70   C81   S    
C65   O27   A    
C22   C66   S    
Cr6   O16   S    
C92   C103  S    
C118  H130  S    
C83   H86   S    
C19   C103  S    
Cr8   O18   S    
Cr9   O19   S    
C68   O26   A    
C15   H75   S    
C114  H17   S    
C19   H56   S    
C66   O24   A    
H36   O52   S    
C84   C101  S    
C69   C78   S    
Cr4   O13   S    
C92   H124  S    
Cr11  O59   S    
C73   H68   S    
C119  H127  S    
C42   H111  S    
C14   H74   S    
Cr9   O24   S    
C62   C79   S    
C16   H76   S    
C4    C79   S    
C42   C60   S    
C25   C103  S    
C39   C43   S    
C120  H128  S    
C9    C106  S    
Cr1   O1    S    
C2    C31   S    
C117  O34   A    
C72   C77   S    
Cr12  O27   S    
C88   C106  S    
C118  H126  S    
C61   C78   S    
C119  H131  S    
C67   O25   A    
C36   C45   S    
Cr8   O44   S    
C35   C44   S    
C32   C50   S    
C26   O49   D    
C12   C14   S    
C109  H110  S    
C86   H90   S    
C84   H92   S    
C10   C107  S    
C95   C104  S    
C74   H70   S    
C71   H65   S    
C39   H78   S    
C88   H96   S    
C58   H40   S    
Cr3   O33   S    
Cr4   O30   S    
C41   H100  S    
C116  O23   A    
C21   C70   S    
C3    O48   A    
C91   C109  S    
Cr12  O9    S    
Cr10  O25   S    
C52   H32   S    
C87   H95   S    
C88   H101  S    
C35   H29   S    
C50   C116  S    
Cr2   O6    S    
Cr1   O14   S    
C97   C101  S    
C97   H118  S    
