data_mof_unit_46326.cif
_audit_creation_date              2012-12-10T17:01:36-0500
_audit_creation_method            fapswitch 2.2
_symmetry_space_group_name_H-M    P1
_symmetry_Int_Tables_number       1
_space_group_crystal_system       triclinic
_cell_length_a                    9.926584
_cell_length_b                    10.804226
_cell_length_c                    12.969742
_cell_angle_alpha                 89.483709
_cell_angle_beta                  74.945686
_cell_angle_gamma                 109.043424
_cell_volume                      1263.02417117

loop_
_atom_site_label
_atom_site_type_symbol
_atom_type_description
_atom_site_fract_x
_atom_site_fract_y
_atom_site_fract_z
_atom_type_partial_charge
C1    C     C_R   0.441958 0.253401 0.509747 0.839864
C2    C     C_R   0.556208 0.746039 0.498337 0.820986
C3    C     C_2   0.086112 0.507295 0.483605 0.349365
C4    C     C_2   0.923263 0.477419 0.494154 0.269280
C5    C     C_R   0.472013 0.492483 0.702101 0.845807
C6    C     C_R   0.527938 0.507615 0.297745 0.895337
C7    C     C_R   0.544694 0.519105 0.183017 -0.148157
C8    C     C_R   0.454377 0.479786 0.816570 -0.184044
C9    C     C_R   0.353425 0.340285 0.985204 0.100446
C10   C     C_R   0.654860 0.648511 0.010309 0.120533
C11   C     C_R   0.360191 0.360920 0.877139 0.301916
C12   C     C_R   0.649519 0.630906 0.118221 0.252065
C13   C     C_R   0.541087 0.581505 0.862845 0.115302
C14   C     C_R   0.449079 0.420115 0.140934 0.080416
C15   C     C_R   0.549030 0.556535 0.967980 0.011568
C16   C     C_R   0.449287 0.437095 0.032073 -0.009348
C17   C     C_2   0.416198 0.111576 0.516102 0.013885
C18   C     C_2   0.575409 0.885667 0.510807 -0.024167
C19   C     C_2   0.474553 0.057756 0.580110 0.171112
C20   C     C_2   0.464541 0.919035 0.576574 0.142427
Cu1   Cu    Cu3+1 0.647370 0.522180 0.481340 1.063143
Cu2   Cu    Cu3+1 0.352630 0.477820 0.518660 1.087118
N1    N     N_2   0.131210 0.444490 0.546730 0.003818
N2    N     N_2   0.868790 0.555510 0.453270 -0.028403
O1    O     O_R   0.578710 0.332530 0.490040 -0.620159
O2    O     O_R   0.421290 0.667470 0.509960 -0.567543
O3    O     O_R   0.329810 0.295070 0.521560 -0.534021
O4    O     O_R   0.670190 0.704930 0.478440 -0.505329
O5    O     O_R   0.604230 0.515670 0.637800 -0.589599
O6    O     O_R   0.395770 0.484330 0.362200 -0.566907
O7    O     O_R   0.355330 0.478200 0.669330 -0.491945
O8    O     O_R   0.644670 0.521800 0.330670 -0.525638
N3    N     N_3   0.354411 0.303978 0.212064 -0.579963
H1    H     H_    0.378765 0.221541 0.183127 0.252804
H2    H     H_    0.243159 0.293849 0.222736 0.268487
N4    N     N_3   0.614127 0.712349 0.806659 -0.504942
H3    H     H_    0.595231 0.720379 0.731885 0.205148
H4    H     H_    0.565860 0.774621 0.851579 0.222265
Cl1   Cl    Cl    0.771116 0.754531 0.172655 -0.598061
Cl2   Cl    Cl    0.250696 0.233810 0.817327 -0.589713
N5    N     N_3   0.250955 0.219166 0.045451 -0.587048
H5    H     H_    0.143593 0.211247 0.044110 0.275620
H6    H     H_    0.277207 0.140491 0.009780 0.266381
N6    N     N_3   0.771775 0.757613 0.942768 -0.505950
H7    H     H_    0.763303 0.845232 0.972473 0.263620
H8    H     H_    0.873874 0.751201 0.944964 0.270436
N7    N     N_3   0.336134 0.821187 0.646378 -0.557311
H9    H     H_    0.242010 0.828829 0.628760 0.265573
H10   H     H_    0.330520 0.843168 0.725370 0.213987
N8    N     N_3   0.536948 0.130521 0.658394 -0.590312
H11   H     H_    0.468584 0.086061 0.734293 0.244028
H12   H     H_    0.639377 0.118988 0.651387 0.249230
N9    N     N_3   0.710085 0.985901 0.451245 -0.592483
H13   H     H_    0.798226 0.970781 0.473011 0.264401
H14   H     H_    0.724301 0.973000 0.369814 0.260542
N10   N     N_3   0.334151 0.031838 0.449897 -0.580608
H15   H     H_    0.228382 0.039561 0.469939 0.260386
H16   H     H_    0.386842 0.071534 0.370101 0.220995
N11   N     N_3   0.829179 0.348657 0.542238 -0.553142
H17   H     H_    0.795881 0.291432 0.482980 0.245963
H18   H     H_    0.741215 0.356300 0.603304 0.290610
N12   N     N_3   0.193559 0.584898 0.389424 -0.540435
H19   H     H_    0.228039 0.683652 0.404006 0.265599
H20   H     H_    0.149118 0.572907 0.323892 0.228961
Cl3   Cl    Cl    0.975926 0.720066 0.414612 -0.512137
Cl4   Cl    Cl    0.022933 0.386460 0.677397 -0.432061

loop_
_geom_bond_atom_site_label_1
_geom_bond_atom_site_label_2
_ccdc_geom_bond_type
C5    O7    A    
C5    C8    S    
C6    O8    A    
C3    N12   S    
Cu1   O5    S    
C8    C13   A    
N3    H2    S    
C2    C18   S    
N5    H6    S    
N5    H5    S    
C9    N5    S    
C19   C20   S    
C17   N10   S    
C13   C15   A    
N12   H20   S    
Cu2   O3    S    
C12   Cl1   S    
N4    H4    S    
N8    H11   S    
N11   H17   S    
N7    H10   S    
Cu1   Cu2   S    
N6    H7    S    
C1    O1    A    
C9    C11   A    
C19   N8    S    
N12   H19   S    
C10   C12   A    
N2    Cl3   S    
C14   N3    S    
C8    C11   A    
C4    N11   S    
N4    H3    S    
C17   C19   D    
C9    C16   A    
N10   H16   S    
N3    H1    S    
C6    C7    S    
C18   C20   D    
C10   C15   A    
N9    H14   S    
C11   Cl2   S    
C4    N2    D    
Cu1   O8    S    
C14   C16   A    
C7    C12   A    
N11   H18   S    
C20   N7    S    
Cu2   O7    S    
C10   N6    S    
C15   C16   A    
C5    O5    A    
N10   H15   S    
N1    Cl4   S    
C13   N4    S    
C2    O2    A    
Cu2   O2    S    
Cu1   N2    S    
N8    H12   S    
C1    O3    A    
Cu1   O1    S    
Cu2   N1    S    
C2    O4    A    
Cu2   O6    S    
C18   N9    S    
C6    O6    A    
C3    N1    D    
N9    H13   S    
C1    C17   S    
Cu1   O4    S    
C7    C14   A    
C3    C4    S    
N6    H8    S    
N7    H9    S    
