data_mof_unit_5178.cif
_audit_creation_date              2012-12-10T17:19:52-0500
_audit_creation_method            fapswitch 2.2
_symmetry_space_group_name_H-M    P1
_symmetry_Int_Tables_number       1
_space_group_crystal_system       triclinic
_cell_length_a                    9.619153
_cell_length_b                    10.860122
_cell_length_c                    15.470469
_cell_angle_alpha                 84.625688
_cell_angle_beta                  74.245256
_cell_angle_gamma                 89.344198
_cell_volume                      1548.40942889

loop_
_atom_site_label
_atom_site_type_symbol
_atom_type_description
_atom_site_fract_x
_atom_site_fract_y
_atom_site_fract_z
_atom_type_partial_charge
C1    C     C_R   0.003688 0.262594 0.495583 0.805489
C2    C     C_R   0.680464 0.517478 0.909326 0.102741
C3    C     C_R   0.779480 0.482229 0.959660 0.100169
C4    C     C_R   0.535824 0.546609 0.955077 0.017939
C5    C     C_R   0.488228 0.528328 0.051024 0.003787
C6    C     C_R   0.595486 0.505891 0.098688 0.232026
C7    C     C_R   0.736179 0.478224 0.053045 -0.227998
C8    C     C_R   0.439976 0.599674 0.907781 -0.207559
C9    C     C_R   0.296058 0.622013 0.950870 -0.130503
C10   C     C_R   0.240973 0.581817 0.043065 0.059962
C11   C     C_R   0.336830 0.535314 0.093882 0.123411
C12   C     C_R   0.918105 0.497780 0.672218 0.810318
C13   C     C_R   0.091150 0.582177 0.084904 -0.224994
C14   C     C_R   0.036608 0.545298 0.176331 -0.117777
C15   C     C_R   0.276117 0.490912 0.184773 -0.192176
C16   C     C_R   0.275430 0.110136 0.481159 -0.114560
C17   C     C_R   0.383765 0.045748 0.509753 -0.124599
C18   C     C_R   0.353931 0.929366 0.556573 -0.105636
C19   C     C_R   0.221667 0.871626 0.565175 -0.120977
C20   C     C_R   0.116149 0.931523 0.528310 0.072858
C21   C     C_R   0.134214 0.058791 0.500114 0.108898
C22   C     C_R   0.010237 0.127757 0.492552 -0.113516
C23   C     C_R   0.996363 0.736005 0.508273 0.827612
C24   C     C_R   0.882868 0.064953 0.494246 -0.197671
C25   C     C_R   0.877014 0.937176 0.502873 -0.164937
C26   C     C_R   0.994159 0.869073 0.517510 -0.109955
C27   C     C_R   0.673312 0.708363 0.402245 0.306167
C28   C     C_R   0.599508 0.811235 0.376964 -0.221493
C29   C     C_R   0.463006 0.797122 0.368157 -0.206160
C30   C     C_R   0.392737 0.685035 0.395831 -0.039536
C31   C     C_R   0.444906 0.592161 0.448347 0.132246
C32   C     C_R   0.594335 0.596783 0.449438 0.147277
C33   C     C_R   0.553781 0.413735 0.550660 -0.088612
C34   C     C_R   0.082303 0.497026 0.327770 0.825190
C35   C     C_R   0.405615 0.415793 0.553106 0.326603
C36   C     C_R   0.872809 0.494144 0.771113 -0.069067
C37   C     C_R   0.130152 0.507172 0.228147 -0.071591
C38   C     C_R   0.923145 0.455758 0.915937 -0.162767
C39   C     C_R   0.969910 0.463151 0.822245 -0.085553
C40   C     C_R   0.728926 0.518923 0.814743 -0.227151
Cu1   Cu    Cu3+1 0.140660 0.499990 0.500010 0.986176
Cu2   Cu    Cu3+1 0.859340 0.500010 0.499990 0.985348
H1    H     H_    0.814355 0.457830 0.091090 0.166848
H2    H     H_    0.014720 0.611486 0.047512 0.170785
H3    H     H_    0.787478 0.114541 0.487416 0.161498
H4    H     H_    0.306109 0.198125 0.442379 0.169324
H5    H     H_    0.489939 0.087440 0.497257 0.136041
H6    H     H_    0.435525 0.881464 0.582627 0.141014
H7    H     H_    0.202766 0.780843 0.601731 0.180244
H8    H     H_    0.780167 0.891875 0.497981 0.164334
H9    H     H_    0.592167 0.343946 0.592947 0.166231
H10   H     H_    0.655028 0.898343 0.348838 0.187738
H11   H     H_    0.339210 0.439472 0.222945 0.190024
H12   H     H_    0.414236 0.871460 0.335341 0.172994
H13   H     H_    0.296833 0.676284 0.375229 0.213194
H14   H     H_    0.921520 0.549465 0.206594 0.216519
H15   H     H_    0.999721 0.429804 0.954258 0.141006
H16   H     H_    0.081247 0.442560 0.790031 0.206269
H17   H     H_    0.655784 0.536204 0.773363 0.158923
H18   H     H_    0.476821 0.632047 0.837207 0.161721
N1    N     N_R   0.648320 0.501210 0.499140 -0.209714
N2    N     N_R   0.352470 0.501290 0.499110 -0.219085
O1    O     O_R   0.118810 0.319640 0.500010 -0.558478
O2    O     O_R   0.881240 0.319660 0.500000 -0.587203
O3    O     O_R   0.055570 0.499980 0.629840 -0.541691
O4    O     O_R   0.818000 0.500010 0.629830 -0.591167
O5    O     O_R   0.118760 0.680340 0.500000 -0.622323
O6    O     O_R   0.881190 0.680360 0.499990 -0.558695
O7    O     O_R   0.182000 0.499990 0.370170 -0.597334
O8    O     O_R   0.944430 0.500020 0.370160 -0.531912
Br1   Br    Br    0.866373 0.734960 0.325497 -0.524764
Br2   Br    Br    0.281287 0.301630 0.641131 -0.518516
C41   C     C_2   0.206982 0.688093 0.896471 0.860129
O9    O     O_2   0.214610 0.659156 0.820948 -0.567797
O10   O     O_R   0.119221 0.786856 0.928150 -0.711388
H19   H     H_    0.131721 0.812614 0.986900 0.309110
Br3   Br    Br    0.578261 0.543445 0.219919 -0.583311

loop_
_geom_bond_atom_site_label_1
_geom_bond_atom_site_label_2
_ccdc_geom_bond_type
C14   H14   S    
C16   C21   A    
C34   C37   S    
Cu1   Cu2   S    
C19   C20   A    
C4    C8    A    
Cu1   O5    S    
C24   H3    S    
C15   H11   S    
C28   C29   A    
C32   N1    A    
C5    C11   A    
C3    C7    A    
C38   C39   A    
C29   H12   S    
Cu2   O8    S    
C18   C19   A    
C41   O9    D    
C23   C26   S    
C23   O5    A    
C25   H8    S    
C15   C37   A    
C11   C15   A    
C3    C38   A    
C16   C17   A    
C7    H1    S    
C12   C36   S    
C9    C10   A    
C34   O8    A    
C1    C22   S    
C40   H17   S    
C21   C22   A    
Cu2   O6    S    
C41   O10   S    
C31   N2    A    
C9    C41   S    
Cu1   N2    S    
C1    O1    A    
C36   C40   A    
C24   C25   A    
C16   H4    S    
C8    C9    A    
C6    Br3   S    
Cu1   O3    S    
C25   C26   A    
C39   H16   S    
C12   O4    A    
C23   O6    A    
C2    C4    A    
O10   H19   S    
C29   C30   A    
C38   H15   S    
C19   H7    S    
C31   C32   A    
Cu2   N1    S    
C30   C31   A    
C17   C18   A    
C34   O7    A    
C35   Br2   S    
C22   C24   A    
Cu1   O1    S    
C1    O2    A    
Cu2   O2    S    
C27   Br1   S    
Cu1   O7    S    
C12   O3    A    
C27   C32   A    
C36   C39   A    
C17   H5    S    
C4    C5    A    
C10   C13   A    
C18   H6    S    
C6    C7    A    
C33   H9    S    
C30   H13   S    
C2    C3    A    
C8    H18   S    
C14   C37   A    
C28   H10   S    
C5    C6    A    
C20   C26   A    
C33   C35   A    
C35   N2    A    
C10   C11   A    
C2    C40   A    
C20   C21   A    
C33   N1    A    
C27   C28   A    
Cu2   O4    S    
C13   C14   A    
C13   H2    S    
