data_mof_unit_5422.cif
_audit_creation_date              2012-12-11T14:40:17-0500
_audit_creation_method            fapswitch 2.2
_symmetry_space_group_name_H-M    P1
_symmetry_Int_Tables_number       1
_space_group_crystal_system       triclinic
_cell_length_a                    19.651866
_cell_length_b                    10.867439
_cell_length_c                    19.507497
_cell_angle_alpha                 89.922752
_cell_angle_beta                  97.450034
_cell_angle_gamma                 89.622034
_cell_volume                      4130.85824179

loop_
_atom_site_label
_atom_site_type_symbol
_atom_type_description
_atom_site_fract_x
_atom_site_fract_y
_atom_site_fract_z
_atom_type_partial_charge
C1    C     C_R   0.725357 0.951639 0.360619 0.561859
C2    C     C_3   0.257067 0.397101 0.566707 0.048670
C3    C     C_3   0.412191 0.520209 0.573732 0.042453
C4    C     C_3   0.449998 0.586412 0.520624 -0.288807
C5    C     C_3   0.482457 0.705616 0.549940 -0.492236
C6    C     C_3   0.126255 0.123214 0.417608 -0.008105
C7    C     C_3   0.074293 0.033705 0.380936 -0.237781
C8    C     C_3   0.000747 0.078834 0.382152 -0.481514
C9    C     C_3   0.909174 0.037029 0.562613 0.027328
C10   C     C_3   0.986426 0.032016 0.586639 -0.257188
C11   C     C_3   0.016874 0.160844 0.595472 -0.493563
C12   C     C_3   0.662365 0.224010 0.943805 0.009031
C13   C     C_3   0.237309 0.868847 0.437641 0.072971
C14   C     C_3   0.637077 0.158058 0.875428 -0.285556
C15   C     C_3   0.680595 0.191452 0.818808 -0.455441
C16   C     C_3   0.337992 0.221444 0.056405 0.008613
C17   C     C_3   0.363649 0.154594 0.124681 -0.286891
C18   C     C_3   0.320297 0.188441 0.181498 -0.450216
C19   C     C_3   0.162334 0.724041 0.943761 0.009080
C20   C     C_3   0.137028 0.658109 0.875381 -0.285476
C21   C     C_3   0.180478 0.691629 0.818726 -0.456254
C22   C     C_3   0.837974 0.721460 0.056398 0.008613
C23   C     C_3   0.863612 0.654638 0.124688 -0.285814
C24   C     C_3   0.756126 0.895191 0.566198 0.049611
C25   C     C_3   0.820227 0.688483 0.181480 -0.452119
C26   C     C_3   0.722508 0.496220 0.460873 0.275926
C27   C     C_3   0.314938 0.416008 0.522475 0.278277
C28   C     C_3   0.222017 0.999223 0.460205 0.291164
C29   C     C_3   0.813979 0.919122 0.522602 0.267950
C30   C     C_3   0.795699 0.504152 0.500064 -0.119334
C31   C     C_3   0.274275 0.523463 0.485384 -0.138023
C32   C     C_3   0.295137 0.004812 0.500255 -0.122735
C33   C     C_R   0.289217 0.992409 0.632300 0.560938
C34   C     C_3   0.770732 0.023284 0.485066 -0.148807
C35   C     C_3   0.810779 0.371719 0.477915 -0.142527
C36   C     C_3   0.215612 0.503081 0.530732 -0.190494
C37   C     C_3   0.309744 0.872423 0.478106 -0.145607
C38   C     C_3   0.712151 0.997676 0.529610 -0.191187
C39   C     C_3   0.782228 0.317757 0.541266 -0.130705
C40   C     C_3   0.181155 0.410020 0.477899 -0.125495
C41   C     C_3   0.280063 0.818729 0.540801 -0.134451
C42   C     C_3   0.680796 0.902244 0.476462 -0.112860
C43   C     C_3   0.767801 0.449423 0.563206 0.029514
C44   C     C_R   0.225212 0.452525 0.360953 0.561779
C45   C     C_3   0.239762 0.428603 0.433842 0.029573
C46   C     C_3   0.266311 0.950243 0.562926 0.024259
C47   C     C_3   0.739529 0.926053 0.433299 0.034219
C48   C     C_3   0.518900 0.277998 0.967871 -0.143860
C49   C     C_3   0.480688 0.277657 0.032021 -0.144150
C50   C     C_3   0.018883 0.778006 0.967868 -0.143736
C51   C     C_3   0.980679 0.777654 0.032024 -0.143980
C52   C     C_3   0.567480 0.176249 0.999798 0.254736
C53   C     C_3   0.433271 0.175401 0.000267 0.255114
C54   C     C_3   0.067470 0.676261 0.999788 0.254697
C55   C     C_R   0.789619 0.492766 0.632404 0.560720
C56   C     C_3   0.933262 0.675397 0.000272 0.254918
C57   C     C_3   0.530378 0.175539 0.063791 0.029085
C58   C     C_3   0.470360 0.175306 0.936257 0.029455
C59   C     C_3   0.030376 0.675541 0.063788 0.028935
C60   C     C_3   0.970344 0.675311 0.936257 0.029448
C61   C     C_R   0.535251 0.180121 0.338133 0.540233
C62   C     C_R   0.464994 0.179782 0.662040 0.552949
C63   C     C_R   0.035211 0.680133 0.338103 0.539759
C64   C     C_R   0.964954 0.679818 0.662011 0.550510
C65   C     C_3   0.481933 0.073374 0.032519 -0.129526
C66   C     C_3   0.709028 0.312989 0.501087 -0.191413
C67   C     C_3   0.519982 0.073715 0.967683 -0.130271
C68   C     C_3   0.981930 0.573375 0.032518 -0.129480
C69   C     C_3   0.019972 0.573724 0.967676 -0.130140
C70   C     C_1   0.780611 0.472539 0.914076 0.021855
C71   C     C_1   0.219680 0.471668 0.086069 0.022119
C72   C     C_1   0.280611 0.972536 0.914075 0.021832
C73   C     C_1   0.719681 0.971656 0.086072 0.022540
C74   C     C_1   0.756217 0.434220 0.040646 -0.046105
C75   C     C_1   0.243641 0.433269 0.959391 -0.044761
C76   C     C_1   0.256218 0.934208 0.040643 -0.046184
C77   C     C_3   0.223531 0.303800 0.514272 -0.125313
C78   C     C_1   0.743646 0.933249 0.959396 -0.044806
C79   C     C_1   0.769104 0.455920 0.972413 -0.023836
C80   C     C_1   0.231007 0.454988 0.027687 -0.023891
C81   C     C_1   0.269104 0.955913 0.972411 -0.023873
C82   C     C_1   0.731009 0.954971 0.027691 -0.023992
C83   C     C_1   0.746383 0.408033 0.098416 -0.006063
C84   C     C_1   0.253377 0.407178 0.901590 -0.003048
C85   C     C_1   0.246385 0.908022 0.098414 -0.006051
C86   C     C_1   0.753383 0.907161 0.901595 -0.003000
C87   C     C_R   0.726573 0.317133 0.368738 0.563715
C88   C     C_3   0.207235 0.815697 0.499903 -0.191154
C89   C     C_R   0.261275 0.363254 0.638238 0.540593
C90   C     C_R   0.226643 0.818001 0.368718 0.565626
C91   C     C_R   0.761224 0.862591 0.637993 0.541229
C92   C     C_R   0.705457 0.996021 0.154742 0.560130
C93   C     C_R   0.294768 0.996779 0.845356 0.562270
C94   C     C_R   0.205457 0.496024 0.154741 0.559241
C95   C     C_R   0.794769 0.496780 0.845357 0.561897
C96   C     C_R   0.560486 0.182289 0.135658 0.564190
C97   C     C_R   0.439948 0.182410 0.864456 0.562432
C98   C     C_R   0.060484 0.682289 0.135657 0.563336
C99   C     C_3   0.725157 0.799276 0.513495 -0.113755
C100  C     C_R   0.939940 0.682412 0.864453 0.561964
C101  C     C_R   0.736125 0.361682 0.164791 0.554813
C102  C     C_R   0.263819 0.361133 0.835228 0.541911
C103  C     C_R   0.236124 0.861676 0.164789 0.556373
C104  C     C_R   0.763821 0.861126 0.835231 0.541067
C105  C     C_1   0.486309 0.171692 0.594943 0.011806
C106  C     C_1   0.514469 0.172299 0.405460 -0.024819
C107  C     C_1   0.986167 0.671894 0.594868 0.006991
C108  C     C_1   0.014351 0.672415 0.405396 -0.026991
C109  C     C_1   0.504655 0.168766 0.464975 -0.056184
C110  C     C_3   0.737868 0.366413 0.438147 0.063864
C111  C     C_1   0.496399 0.168445 0.535504 -0.033265
C112  C     C_1   0.004490 0.669049 0.464898 -0.058866
C113  C     C_1   0.996217 0.668777 0.535419 -0.038644
C114  C     C_3   0.694177 0.445091 0.525124 -0.132524
C115  C     C_3   0.281761 0.323102 0.469445 -0.080952
C116  C     C_3   0.192640 0.948006 0.523941 -0.131259
C117  C     C_3   0.783670 0.823535 0.469415 -0.081265
C118  C     C_3   0.618744 0.577645 0.410054 0.014383
C119  C     C_3   0.585052 0.636432 0.342903 -0.239775
C120  C     C_3   0.506947 0.628538 0.336397 -0.480042
Cr1   Cr    Cr6+3 0.765830 0.160660 0.268180 1.003345
Cr2   Cr    Cr6+3 0.384070 0.324050 0.751550 1.010188
Cr3   Cr    Cr6+3 0.115930 0.824050 0.248450 0.999932
Cr4   Cr    Cr6+3 0.884070 0.824050 0.751550 1.016481
Cr5   Cr    Cr6+3 0.234170 0.160660 0.731820 1.000418
Cr6   Cr    Cr6+3 0.265830 0.660660 0.268180 1.001873
Cr7   Cr    Cr6+3 0.734170 0.660660 0.731820 1.005671
Cr8   Cr    Cr6+3 0.612110 0.009150 0.248770 0.996455
Cr9   Cr    Cr6+3 0.387890 0.009150 0.751230 1.007765
Cr10  Cr    Cr6+3 0.112110 0.509150 0.248770 1.006683
Cr11  Cr    Cr6+3 0.887890 0.509150 0.751230 1.006722
Cr12  Cr    Cr6+3 0.615930 0.324050 0.248450 1.000228
H1    H     H_    0.670832 0.238226 0.497179 0.108607
H2    H     H_    0.789201 0.112339 0.467703 0.115894
H3    H     H_    0.832834 0.580742 0.502976 0.103835
H4    H     H_    0.295289 0.611279 0.469157 0.119401
H5    H     H_    0.859071 0.340703 0.459184 0.129818
H6    H     H_    0.189185 0.571591 0.560201 0.112087
H7    H     H_    0.358016 0.841062 0.459504 0.134360
H8    H     H_    0.683308 0.063615 0.558393 0.112557
H9    H     H_    0.806409 0.244828 0.576184 0.125625
H10   H     H_    0.125510 0.407494 0.458501 0.126249
H11   H     H_    0.302972 0.745886 0.576350 0.129546
H12   H     H_    0.205706 0.214533 0.531867 0.141710
H13   H     H_    0.625553 0.893928 0.456130 0.134106
H14   H     H_    0.533003 0.363010 0.941578 0.129064
H15   H     H_    0.465735 0.362411 0.058209 0.128653
H16   H     H_    0.032979 0.863024 0.941577 0.129142
H17   H     H_    0.965726 0.862407 0.058213 0.129173
H18   H     H_    0.466934 0.990353 0.060031 0.128811
H19   H     H_    0.535864 0.990984 0.940293 0.128476
H20   H     H_    0.966932 0.490351 0.060029 0.129397
H21   H     H_    0.035855 0.490999 0.940282 0.128630
H22   H     H_    0.601375 0.627496 0.454482 0.110879
H23   H     H_    0.168777 0.741238 0.495074 0.106806
H24   H     H_    0.600900 0.480418 0.410754 0.152701
H25   H     H_    0.599612 0.734427 0.341856 0.197391
H26   H     H_    0.603297 0.589271 0.298101 0.190204
H27   H     H_    0.490497 0.531067 0.337824 0.167505
H28   H     H_    0.484153 0.669920 0.286515 0.147685
H29   H     H_    0.487512 0.679899 0.379121 0.139854
H30   H     H_    0.449936 0.499295 0.619729 0.175402
H31   H     H_    0.372752 0.580682 0.592553 0.109902
H32   H     H_    0.490961 0.525047 0.505390 0.166510
H33   H     H_    0.413917 0.607937 0.473515 0.159228
H34   H     H_    0.705300 0.709627 0.528642 0.151318
H35   H     H_    0.442650 0.768073 0.566357 0.161344
H36   H     H_    0.507880 0.752984 0.509756 0.139978
H37   H     H_    0.521607 0.685479 0.594986 0.154256
H38   H     H_    0.116770 0.214484 0.392545 0.174599
H39   H     H_    0.116448 0.134871 0.471907 0.098428
H40   H     H_    0.083200 0.024394 0.326139 0.211141
H41   H     H_    0.080677 0.943235 0.407507 0.183219
H42   H     H_    0.990057 0.090997 0.436102 0.143529
H43   H     H_    0.964371 0.010165 0.356524 0.170803
H44   H     H_    0.992273 0.167865 0.354206 0.142416
H45   H     H_    0.647432 0.475923 0.546860 0.106086
H46   H     H_    0.882936 0.078901 0.604215 0.137266
H47   H     H_    0.900986 0.095086 0.515232 0.115076
H48   H     H_    0.996309 0.982972 0.636857 0.194851
H49   H     H_    0.012595 0.980616 0.548208 0.165913
H50   H     H_    0.009023 0.212004 0.545718 0.137206
H51   H     H_    0.072879 0.153706 0.612777 0.161097
H52   H     H_    0.992453 0.212892 0.634867 0.157995
H53   H     H_    0.719252 0.218291 0.952073 0.169467
H54   H     H_    0.648720 0.323332 0.939916 0.131413
H55   H     H_    0.638219 0.057016 0.883021 0.178482
H56   H     H_    0.308651 0.254420 0.440509 0.136397
H57   H     H_    0.583464 0.185700 0.857257 0.182035
H58   H     H_    0.678356 0.292253 0.809226 0.175973
H59   H     H_    0.660618 0.143479 0.770178 0.151967
H60   H     H_    0.734835 0.162835 0.833925 0.159603
H61   H     H_    0.281141 0.215915 0.048064 0.169099
H62   H     H_    0.350949 0.320689 0.060505 0.131410
H63   H     H_    0.362658 0.053606 0.117027 0.178673
H64   H     H_    0.417243 0.181204 0.142678 0.183261
H65   H     H_    0.322457 0.289131 0.191151 0.171544
H66   H     H_    0.340479 0.139712 0.230050 0.163540
H67   H     H_    0.146100 0.976472 0.546690 0.102756
H68   H     H_    0.266058 0.161050 0.166545 0.162780
H69   H     H_    0.219222 0.718320 0.952007 0.169358
H70   H     H_    0.148690 0.823365 0.939886 0.131481
H71   H     H_    0.138223 0.557061 0.882954 0.178525
H72   H     H_    0.083396 0.685679 0.857253 0.181821
H73   H     H_    0.178186 0.792436 0.809168 0.175381
H74   H     H_    0.160483 0.643676 0.770096 0.151438
H75   H     H_    0.234736 0.663078 0.833792 0.159719
H76   H     H_    0.781124 0.715937 0.048046 0.168927
H77   H     H_    0.850937 0.820702 0.060487 0.131538
H78   H     H_    0.812624 0.757235 0.440959 0.129744
H79   H     H_    0.862636 0.553648 0.117041 0.178934
H80   H     H_    0.917200 0.681268 0.142699 0.183244
H81   H     H_    0.822370 0.789174 0.191126 0.171284
H82   H     H_    0.840394 0.639775 0.230044 0.162449
H83   H     H_    0.765993 0.661070 0.166511 0.160575
H84   H     H_    0.332837 0.080605 0.504022 0.105097
O1    O     O_R   0.783230 0.287800 0.346510 -0.525349
O2    O     O_R   0.454570 0.285140 0.836900 -0.531311
O3    O     O_R   0.045430 0.785140 0.163100 -0.529684
O4    O     O_R   0.954570 0.785140 0.836900 -0.531780
O5    O     O_R   0.677850 0.374730 0.185500 -0.502463
O6    O     O_R   0.322150 0.374730 0.814500 -0.506122
O7    O     O_R   0.177850 0.874730 0.185500 -0.499208
O8    O     O_R   0.822150 0.874730 0.814500 -0.506214
O9    O     O_3   0.664630 0.164620 0.255130 -0.296726
O10   O     O_3   0.335370 0.164620 0.744870 -0.292720
O11   O     O_3   0.164630 0.664620 0.255130 -0.298045
O12   O     O_R   0.216770 0.287800 0.653490 -0.539673
O13   O     O_3   0.835370 0.664620 0.744870 -0.294914
O14   O     O_R   0.760130 0.037060 0.338610 -0.519858
O15   O     O_R   0.239870 0.037060 0.661390 -0.504400
O16   O     O_R   0.260130 0.537060 0.338610 -0.520138
O17   O     O_R   0.739870 0.537060 0.661390 -0.501823
O18   O     O_R   0.666620 0.921370 0.332440 -0.525049
O19   O     O_R   0.333380 0.921370 0.667560 -0.514874
O20   O     O_R   0.166620 0.421370 0.332440 -0.515206
O21   O     O_R   0.833380 0.421370 0.667560 -0.514558
O22   O     O_R   0.557170 0.082420 0.312350 -0.495181
O23   O     O_R   0.283230 0.787800 0.346510 -0.526179
O24   O     O_R   0.442830 0.082420 0.687650 -0.512139
O25   O     O_R   0.057170 0.582420 0.312350 -0.494486
O26   O     O_R   0.942830 0.582420 0.687650 -0.512259
O27   O     O_R   0.548310 0.285980 0.316250 -0.531252
O28   O     O_R   0.451690 0.285980 0.683750 -0.496840
O29   O     O_R   0.048310 0.785980 0.316250 -0.541694
O30   O     O_R   0.951690 0.785980 0.683750 -0.493671
O31   O     O_R   0.680520 0.375500 0.327470 -0.478348
O32   O     O_R   0.319480 0.375500 0.672530 -0.487781
O33   O     O_R   0.180520 0.875500 0.327470 -0.480606
O34   O     O_R   0.716770 0.787800 0.653490 -0.538248
O35   O     O_R   0.819480 0.875500 0.672530 -0.478557
O36   O     O_R   0.780350 0.286970 0.193350 -0.508806
O37   O     O_R   0.219650 0.286970 0.806650 -0.514195
O38   O     O_R   0.280350 0.786970 0.193350 -0.510198
O39   O     O_R   0.719650 0.786970 0.806650 -0.514608
O40   O     O_R   0.757460 0.036290 0.196640 -0.503969
O41   O     O_R   0.242540 0.036290 0.803360 -0.498847
O42   O     O_R   0.257460 0.536290 0.196640 -0.504166
O43   O     O_R   0.742540 0.536290 0.803360 -0.498666
O44   O     O_R   0.663740 0.920540 0.179290 -0.518590
O45   O     O_R   0.554500 0.081650 0.170370 -0.519721
O46   O     O_R   0.336260 0.920540 0.820710 -0.513781
O47   O     O_R   0.163740 0.420540 0.179290 -0.514146
O48   O     O_R   0.836260 0.420540 0.820710 -0.513813
O49   O     O_3   0.691100 0.585770 0.414080 -0.562394
O50   O     O_3   0.385856 0.407278 0.546535 -0.557275
O51   O     O_3   0.195000 0.089162 0.410976 -0.558079
O52   O     O_3   0.884755 0.916796 0.548348 -0.548668
O53   O     O_3   0.639467 0.169909 0.002779 -0.587813
O54   O     O_3   0.361373 0.168045 0.997409 -0.587657
O55   O     O_3   0.139457 0.669924 0.002743 -0.587915
O56   O     O_R   0.445500 0.081650 0.829630 -0.522011
O57   O     O_3   0.861364 0.668025 0.997416 -0.587763
O58   O     O_R   0.054500 0.581650 0.170370 -0.519434
O59   O     O_R   0.945500 0.581650 0.829630 -0.522379
O60   O     O_R   0.545430 0.285140 0.163100 -0.529564

loop_
_geom_bond_atom_site_label_1
_geom_bond_atom_site_label_2
_ccdc_geom_bond_type
C61   O27   A    
C15   H60   S    
Cr4   O4    S    
C96   O45   A    
C115  H56   S    
C40   H10   S    
C13   C90   S    
C24   C99   S    
C84   C102  S    
C35   C39   S    
Cr6   O11   S    
Cr7   O13   S    
C74   C83   T    
C119  H26   S    
C86   C104  S    
C78   C86   T    
C2    C36   S    
C8    H43   S    
C62   O24   A    
C7    C8    S    
C87   C110  S    
C91   O35   A    
Cr12  O9    S    
C95   O43   A    
C11   H50   S    
C102  O6    A    
C50   C54   S    
C28   O51   S    
C23   H79   S    
C90   O23   A    
Cr9   O19   S    
Cr7   O39   S    
C61   O22   A    
Cr8   O44   S    
C117  H78   S    
C64   O30   A    
Cr3   O33   S    
Cr4   O35   S    
C109  C111  S    
C43   C114  S    
Cr5   O15   S    
Cr10  O25   S    
C8    H42   S    
C75   C84   T    
C27   O50   S    
Cr3   O11   S    
C23   H80   S    
C34   H2    S    
Cr8   O22   S    
C63   O25   A    
C22   H77   S    
Cr5   O41   S    
C19   H69   S    
Cr1   O9    S    
C4    H33   S    
C49   H15   S    
C51   C56   S    
C5    H36   S    
C21   H73   S    
C65   H18   S    
C78   C82   S    
C24   C29   S    
C107  C113  T    
C36   C40   S    
C62   C105  S    
C16   H61   S    
C98   O58   A    
C3    H30   S    
C103  O7    A    
C77   C115  S    
C118  C119  S    
C14   H57   S    
C1    O14   A    
C39   H9    S    
C50   H16   S    
C16   C17   S    
C65   C67   S    
C57   C96   S    
C48   H14   S    
Cr9   O10   S    
C18   H66   S    
C120  H27   S    
C24   C38   S    
C41   C46   S    
C4    H32   S    
C13   C28   S    
C118  H24   S    
C2    C27   S    
C120  H28   S    
Cr10  O58   S    
Cr5   O12   S    
C53   C65   S    
C9    C10   S    
C26   C110  S    
C13   C37   S    
C72   C81   T    
C33   O19   A    
C22   O57   S    
C3    H31   S    
C6    H39   S    
C26   O49   S    
Cr11  O13   S    
C5    H35   S    
C94   O47   A    
C105  C111  T    
C3    O50   S    
C34   C38   S    
C7    H40   S    
Cr4   O30   S    
C33   C46   S    
C36   H6    S    
C58   C97   S    
Cr1   O1    S    
C51   H17   S    
C55   O17   A    
C66   C114  S    
Cr6   O23   S    
C71   C80   T    
C92   O44   A    
C95   O48   A    
C54   O55   S    
C54   C59   S    
Cr11  O48   S    
Cr8   O18   S    
C40   C45   S    
C63   O29   A    
C9    O52   S    
Cr7   O17   S    
C28   C116  S    
Cr6   O42   S    
C100  O59   A    
C27   C31   S    
Cr12  O5    S    
C88   H23   S    
Cr4   O8    S    
C31   H4    S    
C28   C32   S    
C11   H51   S    
C12   O53   S    
C20   H72   S    
Cr2   O10   S    
C52   C57   S    
C57   C65   S    
Cr3   O29   S    
C116  H67   S    
Cr8   O9    S    
Cr1   O36   S    
C19   O55   S    
C50   C51   S    
C56   C68   S    
C29   C117  S    
C29   C34   S    
C19   H70   S    
C69   H21   S    
C3    C4    S    
C56   C60   S    
C21   H74   S    
C88   C116  S    
C2    C89   S    
Cr6   O16   S    
C26   C114  S    
Cr11  O59   S    
C68   H20   S    
C59   C68   S    
C99   C117  S    
C118  O49   S    
C9    H47   S    
C45   C115  S    
Cr12  O27   S    
C16   O54   S    
C52   O53   S    
C14   C15   S    
C29   O52   S    
C25   H83   S    
C1    O18   A    
C119  H25   S    
C114  H45   S    
C12   H54   S    
C18   H65   S    
C104  O39   A    
C17   C18   S    
C22   H76   S    
Cr6   O38   S    
C32   C37   S    
C66   C110  S    
C119  C120  S    
C48   C58   S    
C61   C106  S    
C35   C110  S    
C100  O4    A    
C52   C67   S    
C120  H29   S    
C93   O41   A    
C72   C93   S    
C92   O40   A    
C43   C55   S    
C48   C49   S    
C15   H58   S    
Cr8   O45   S    
Cr10  O11   S    
C26   C30   S    
C118  H22   S    
C74   C79   S    
C17   H64   S    
Cr9   O24   S    
C31   C45   S    
Cr4   O13   S    
C96   O60   A    
C39   C66   S    
Cr7   O43   S    
C30   C43   S    
C17   H63   S    
C101  O36   A    
C51   C59   S    
C89   O12   A    
Cr9   O46   S    
C24   C91   S    
C48   C52   S    
C73   C82   T    
C6    O51   S    
C87   O1    A    
C44   C45   S    
C55   O21   A    
C64   C107  S    
Cr2   O32   S    
C93   O46   A    
C6    H38   S    
C66   H1    S    
C101  O5    A    
C59   C98   S    
C41   C88   S    
Cr3   O3    S    
C25   H82   S    
C38   H8    S    
Cr1   O14   S    
C83   C101  S    
C70   C79   T    
C97   O2    A    
C32   C46   S    
C68   C69   S    
C22   C23   S    
C1    C47   S    
C11   H52   S    
Cr10  O47   S    
C73   C92   S    
C12   C14   S    
C4    C5    S    
C60   C100  S    
Cr11  O26   S    
C85   C103  S    
C76   C81   S    
C49   C57   S    
Cr2   O28   S    
C53   C58   S    
C8    H44   S    
Cr12  O31   S    
C62   O28   A    
C6    C7    S    
Cr5   O37   S    
C87   O31   A    
C97   O56   A    
C30   C35   S    
C15   H59   S    
C10   H49   S    
C89   O32   A    
C46   C116  S    
C90   O33   A    
Cr7   O34   S    
C10   H48   S    
C102  O37   A    
C19   C20   S    
C44   O20   A    
C20   H71   S    
C44   O16   A    
C77   H12   S    
C50   C60   S    
C53   O54   S    
Cr9   O56   S    
C33   O15   A    
C42   C99   S    
C35   H5    S    
C18   H68   S    
C14   H55   S    
C40   C77   S    
C21   H75   S    
C94   O42   A    
C54   C69   S    
Cr3   O7    S    
C60   C69   S    
Cr11  O21   S    
C67   H19   S    
C49   C53   S    
C12   H53   S    
C7    H41   S    
C13   C88   S    
C25   H81   S    
C70   C95   S    
C112  C113  S    
C42   C47   S    
C23   C25   S    
C99   H34   S    
C37   C41   S    
Cr10  O20   S    
C16   H62   S    
C10   C11   S    
C32   H84   S    
C38   C42   S    
C108  C112  T    
C58   C67   S    
C47   C117  S    
C75   C80   S    
C64   O26   A    
C20   C21   S    
C39   C43   S    
C30   H3    S    
Cr2   O6    S    
C91   O34   A    
C56   O57   S    
C2    C77   S    
C103  O38   A    
C5    H37   S    
C31   C36   S    
Cr2   O2    S    
C71   C94   S    
C34   C47   S    
Cr1   O40   S    
C63   C108  S    
C98   O3    A    
C42   H13   S    
C37   H7    S    
C76   C85   T    
C104  O8    A    
C41   H11   S    
C9    H46   S    
Cr5   O10   S    
C27   C115  S    
C106  C109  T    
Cr12  O60   S    
