data_mof_unit_66135.cif
_audit_creation_date              2012-12-10T16:41:29-0500
_audit_creation_method            fapswitch 2.2
_symmetry_space_group_name_H-M    P1
_symmetry_Int_Tables_number       1
_space_group_crystal_system       triclinic
_cell_length_a                    19.101672
_cell_length_b                    18.991014
_cell_length_c                    18.832649
_cell_angle_alpha                 109.461196
_cell_angle_beta                  109.304177
_cell_angle_gamma                 109.756727
_cell_volume                      5251.95808487

loop_
_atom_site_label
_atom_site_type_symbol
_atom_type_description
_atom_site_fract_x
_atom_site_fract_y
_atom_site_fract_z
_atom_type_partial_charge
C1    C     C_R   0.383143 0.385287 0.503760 0.783573
C2    C     C_R   0.493417 0.670268 0.755667 0.085186
C3    C     C_R   0.498993 0.681643 0.686587 -0.140478
C4    C     C_R   0.508786 0.757957 0.685044 -0.038280
C5    C     C_R   0.511406 0.821681 0.750615 -0.236926
C6    C     C_R   0.506641 0.812093 0.819453 -0.102249
C7    C     C_2   0.179606 0.258253 0.504865 -0.169795
C8    C     C_2   0.168841 0.179070 0.482295 -0.284792
C9    C     C_2   0.242927 0.318399 0.494198 -0.208587
C10   C     C_2   0.321888 0.327769 0.517646 -0.153761
C11   C     C_2   0.501899 0.178604 0.255497 0.005507
C12   C     C_R   0.499133 0.616610 0.618528 0.787707
C13   C     C_2   0.508548 0.184029 0.188172 -0.352455
C14   C     C_2   0.513356 0.253236 0.326531 -0.187970
C15   C     C_2   0.489405 0.308065 0.311931 -0.338170
C16   C     C_2   0.743227 0.741564 0.415986 -0.023103
C17   C     C_2   0.804877 0.817560 0.489849 -0.375714
C18   C     C_2   0.671198 0.678152 0.416172 -0.018723
C19   C     C_2   0.684228 0.672379 0.488776 -0.373204
C20   C     C_R   0.382728 0.993116 0.875899 0.852562
C21   C     C_R   0.503144 0.878824 0.882023 0.788913
C22   C     C_R   0.617333 0.998926 0.116632 0.840982
C23   C     C_R   0.617292 0.614077 0.496309 0.860777
C24   C     C_R   0.502446 0.115287 0.117263 0.851614
C25   C     C_R   0.885296 0.002973 0.382699 0.834596
C26   C     C_R   0.112586 0.116803 0.495021 0.840090
C27   C     C_R   0.119875 0.002594 0.617758 0.804199
C28   C     C_R   0.879124 0.882618 0.496619 0.852917
C29   C     C_2   0.252828 0.998712 0.677247 -0.211417
C30   C     C_2   0.191789 0.013011 0.688681 -0.164040
C31   C     C_2   0.327005 0.010995 0.748854 -0.173368
C32   C     C_2   0.314378 0.981243 0.801257 -0.286396
C33   C     C_2   0.818356 0.078661 0.326276 -0.039626
C34   C     C_R   0.497487 0.379895 0.381143 0.844550
C35   C     C_2   0.826055 0.008006 0.314302 -0.384039
C36   C     C_2   0.758212 0.077818 0.251803 -0.044792
C37   C     C_2   0.681971 0.005002 0.190629 -0.371850
C38   C     C_R   0.479302 0.592711 0.757098 -0.181599
C39   C     C_R   0.480584 0.585470 0.828710 -0.182369
C40   C     C_R   0.495805 0.655004 0.900287 0.045162
C41   C     C_R   0.505974 0.730723 0.898565 -0.209953
C42   C     C_R   0.501507 0.738112 0.825019 0.083195
Cu1   Cu    Cu3+1 0.561020 0.499620 0.560640 0.961136
Cu2   Cu    Cu3+1 0.438980 0.500380 0.439360 0.982106
Cu3   Cu    Cu3+1 0.561070 0.057880 0.996780 0.973637
Cu4   Cu    Cu3+1 0.439050 0.935860 0.996810 0.981148
Cu5   Cu    Cu3+1 1.000000 0.061410 0.561410 0.986491
Cu6   Cu    Cu3+1 1.000000 0.938590 0.438590 0.968555
H1    H     H_    0.527280 0.245058 0.188760 0.148307
H2    H     H_    0.537990 0.260721 0.391118 0.169644
H3    H     H_    0.457016 0.296458 0.246306 0.151480
H4    H     H_    0.798446 0.835446 0.547470 0.156274
H5    H     H_    0.748497 0.709170 0.544655 0.152649
H6    H     H_    0.250267 0.980990 0.614946 0.167366
H7    H     H_    0.466606 0.536669 0.703043 0.150382
H8    H     H_    0.390448 0.041905 0.756622 0.164910
H9    H     H_    0.249245 0.942222 0.786331 0.165115
H10   H     H_    0.791514 0.952717 0.249210 0.147025
H11   H     H_    0.662982 0.948755 0.198808 0.153090
H12   H     H_    0.470721 0.525764 0.828591 0.137536
H13   H     H_    0.519142 0.783911 0.955841 0.150666
H14   H     H_    0.516369 0.879146 0.747574 0.159398
H15   H     H_    0.141621 0.278407 0.529447 0.177997
H16   H     H_    0.200342 0.157018 0.448756 0.164721
H17   H     H_    0.224522 0.355960 0.467399 0.172758
O1    O     O_R   0.462500 0.410660 0.551220 -0.588954
O2    O     O_R   0.359500 0.945890 0.908340 -0.583538
O3    O     O_R   0.551580 0.958790 0.907180 -0.588348
O4    O     O_R   0.448540 0.855750 0.907210 -0.590943
O5    O     O_R   0.640630 0.047850 0.085250 -0.570863
O6    O     O_R   0.537580 0.944800 0.085280 -0.588549
O7    O     O_R   0.551590 0.137990 0.086380 -0.581428
O8    O     O_R   0.448540 0.034950 0.086410 -0.567567
O9    O     O_R   0.910970 0.052410 0.463390 -0.571707
O10   O     O_R   0.910970 0.948690 0.359670 -0.588286
O11   O     O_R   0.089030 0.140870 0.551850 -0.578554
O12   O     O_R   0.359440 0.411300 0.448810 -0.582533
O13   O     O_R   0.089030 0.037160 0.448130 -0.591730
O14   O     O_R   0.089030 0.051310 0.640330 -0.579326
O15   O     O_R   0.089030 0.947590 0.536610 -0.581500
O16   O     O_R   0.910970 0.962840 0.551870 -0.582852
O17   O     O_R   0.910970 0.859130 0.448150 -0.567433
O18   O     O_R   0.551530 0.589280 0.640810 -0.587870
O19   O     O_R   0.448470 0.589920 0.538390 -0.574568
O20   O     O_R   0.640560 0.588700 0.551190 -0.585319
O21   O     O_R   0.537500 0.589340 0.448780 -0.559081
O22   O     O_R   0.551530 0.410080 0.461610 -0.581359
O23   O     O_R   0.448470 0.410720 0.359190 -0.585685
O24   O     O_R   0.462540 0.048930 0.908310 -0.585905
C43   C     C_1   0.518244 0.773516 0.617682 0.261840
N1    N     N_1   0.525884 0.785962 0.563839 -0.277097
C44   C     C_R   0.355650 0.291096 0.570565 0.155480
C45   C     C_R   0.384089 0.234437 0.539932 -0.138540
C46   C     C_R   0.414490 0.199046 0.588721 -0.137912
C47   C     C_R   0.417466 0.220521 0.668648 -0.112329
C48   C     C_R   0.390727 0.278017 0.700304 -0.145384
C49   C     C_R   0.360335 0.313612 0.651795 -0.125976
H18   H     H_    0.381591 0.216908 0.477844 0.121366
H19   H     H_    0.435556 0.154790 0.564457 0.136416
H20   H     H_    0.440730 0.192818 0.706170 0.128860
H21   H     H_    0.393521 0.294987 0.762431 0.136713
H22   H     H_    0.340068 0.358317 0.677175 0.131306
C50   C     C_1   0.491524 0.103794 0.265083 0.276728
N2    N     N_1   0.483313 0.044027 0.272834 -0.281175
C51   C     C_R   0.740700 0.721715 0.331478 0.158895
C52   C     C_R   0.743602 0.648353 0.285701 -0.128945
C53   C     C_R   0.736413 0.626888 0.204034 -0.142615
C54   C     C_R   0.725614 0.678055 0.167311 -0.096037
C55   C     C_R   0.721960 0.750774 0.212178 -0.091976
C56   C     C_R   0.729315 0.772588 0.293931 -0.119474
H23   H     H_    0.750989 0.607715 0.313119 0.126164
H24   H     H_    0.738723 0.570296 0.168988 0.134718
H25   H     H_    0.719618 0.661104 0.103898 0.129114
H26   H     H_    0.712758 0.789820 0.183275 0.121546
H27   H     H_    0.725076 0.828340 0.327505 0.105476
C57   C     C_R   0.588042 0.618063 0.333116 0.158760
C58   C     C_R   0.541886 0.650808 0.293274 -0.119551
C59   C     C_R   0.465611 0.594795 0.213367 -0.117193
C60   C     C_R   0.435182 0.505924 0.172621 -0.105411
C61   C     C_R   0.481148 0.472926 0.211544 -0.119348
C62   C     C_R   0.557556 0.528725 0.291310 -0.119708
H28   H     H_    0.565149 0.719609 0.324016 0.131046
H29   H     H_    0.430217 0.620311 0.182899 0.144766
H30   H     H_    0.376165 0.462677 0.110732 0.134767
H31   H     H_    0.457798 0.404163 0.179719 0.125260
H32   H     H_    0.593238 0.502555 0.320289 0.103656
C63   C     C_1   0.201668 0.053095 0.774741 0.282313
N3    N     N_1   0.209397 0.085070 0.843079 -0.287544
C64   C     C_1   0.871759 0.158443 0.409498 0.302932
N4    N     N_1   0.914316 0.222159 0.475728 -0.282420
C65   C     C_1   0.781167 0.158111 0.250079 0.301964
N5    N     N_1   0.799584 0.222214 0.248915 -0.276548
C66   C     C_1   0.500689 0.648616 0.975714 0.202206
N6    N     N_1   0.504668 0.643514 0.036330 -0.293473

loop_
_geom_bond_atom_site_label_1
_geom_bond_atom_site_label_2
_ccdc_geom_bond_type
C51   C56   A    
C45   C46   A    
Cu1   O18   S    
C41   C42   A    
C20   O2    A    
C47   C48   A    
Cu5   O14   S    
Cu1   Cu2   S    
C7    C8    D    
C14   H2    S    
C60   H30   S    
C54   C55   A    
C26   O13   A    
C51   C52   A    
C35   H10   S    
C36   C37   D    
Cu5   O11   S    
C18   C19   D    
C27   O14   A    
C5    C6    A    
C11   C14   S    
C24   O8    A    
C29   H6    S    
C11   C13   D    
C33   C36   S    
C8    C26   S    
C57   C58   A    
C12   O19   A    
C25   O9    A    
C53   H24   S    
Cu6   O13   S    
C59   C60   A    
Cu4   O4    S    
C3    C12   S    
C38   H7    S    
Cu5   Cu6   S    
C16   C17   D    
C23   O21   A    
C26   O11   A    
C53   C54   A    
C15   H3    S    
C31   H8    S    
Cu3   O24   S    
C9    C10   D    
C15   C34   S    
C49   H22   S    
C59   H29   S    
C19   H5    S    
Cu3   O5    S    
C10   C44   S    
C48   H21   S    
Cu3   O7    S    
Cu6   O10   S    
C32   H9    S    
Cu2   O21   S    
C17   H4    S    
C44   C49   A    
C4    C43   S    
C52   H23   S    
C57   C62   A    
C28   O17   A    
Cu1   O20   S    
C27   O15   A    
C36   C65   S    
C18   C57   S    
C39   C40   A    
C61   H31   S    
Cu3   Cu4   S    
C6    C21   S    
C41   H13   S    
C13   C24   S    
C21   O4    A    
C25   O10   A    
C54   H25   S    
C19   C23   S    
C58   H28   S    
C29   C30   D    
C2    C38   A    
C31   C32   D    
C48   C49   A    
Cu3   O3    S    
C1    O1    A    
C34   O23   A    
C52   C53   A    
C7    H15   S    
Cu4   O6    S    
C37   H11   S    
C55   H26   S    
C8    H16   S    
C13   H1    S    
C16   C51   S    
C40   C41   A    
C25   C35   S    
C21   O3    A    
C23   O20   A    
C66   N6    T    
C3    C4    A    
C22   O6    A    
C61   C62   A    
C24   O7    A    
C64   N4    T    
C20   C32   S    
C40   C66   S    
C33   C64   S    
C7    C9    S    
C30   C63   S    
Cu2   O12   S    
C28   O16   A    
C47   H20   S    
C17   C28   S    
C1    C10   S    
Cu5   O9    S    
C4    C5    A    
Cu2   O19   S    
C65   N5    T    
C60   C61   A    
C20   O24   A    
Cu1   O22   S    
Cu6   O15   S    
C2    C3    A    
Cu4   O2    S    
C29   C31   S    
Cu2   O23   S    
C58   C59   A    
C22   C37   S    
C43   N1    T    
C38   C39   A    
C46   H19   S    
C2    C42   A    
Cu1   O1    S    
C39   H12   S    
C56   H27   S    
C44   C45   A    
C33   C35   D    
Cu6   O17   S    
C5    H14   S    
C34   O22   A    
Cu5   O16   S    
C46   C47   A    
C9    H17   S    
C62   H32   S    
C12   O18   A    
C16   C18   S    
C6    C42   A    
C50   N2    T    
C14   C15   D    
C11   C50   S    
C1    O12   A    
C55   C56   A    
C45   H18   S    
C22   O5    A    
Cu4   O8    S    
C63   N3    T    
C27   C30   S    
