data_mof_unit_28309.cif
_audit_creation_date              2012-10-26T18:50:02-0400
_audit_creation_method            fapswitch 2.2
_symmetry_space_group_name_H-M    P1
_symmetry_Int_Tables_number       1
_space_group_crystal_system       triclinic
_cell_length_a                    10.826305
_cell_length_b                    13.008198
_cell_length_c                    11.614408
_cell_angle_alpha                 100.141438
_cell_angle_beta                  92.699687
_cell_angle_gamma                 90.236617
_cell_volume                      1608.19456267

loop_
_atom_site_label
_atom_site_type_symbol
_atom_type_description
_atom_site_fract_x
_atom_site_fract_y
_atom_site_fract_z
_atom_type_partial_charge
C1    C     C_R   0.498296 0.298946 0.478392 0.553629
C2    C     C_R   0.502779 0.860266 0.434289 -0.118215
C3    C     C_R   0.498727 0.031616 0.556465 0.032487
C4    C     C_R   0.501273 0.968384 0.443535 0.032487
C5    C     C_R   0.383306 0.400095 0.021970 0.241002
C6    C     C_R   0.616694 0.599904 0.978029 0.241003
C7    C     C_R   0.396907 0.409548 0.145575 0.052983
C8    C     C_R   0.603093 0.590452 0.854424 0.052982
C9    C     C_R   0.548263 0.543427 0.156931 0.042529
C10   C     C_R   0.451736 0.456573 0.843069 0.042528
C11   C     C_R   0.541549 0.536464 0.033949 -0.019403
C12   C     C_R   0.501704 0.701054 0.521608 0.553629
C13   C     C_R   0.458451 0.463535 0.966051 -0.019403
C14   C     C_R   0.262460 0.512321 0.503333 0.545809
C15   C     C_R   0.737540 0.487679 0.496667 0.545809
C16   C     C_R   0.122385 0.526460 0.724057 -0.080865
C17   C     C_R   0.877615 0.473538 0.275943 -0.080864
C18   C     C_R   0.067804 0.491415 0.816557 -0.124525
C19   C     C_R   0.932195 0.508583 0.183443 -0.124525
C20   C     C_R   0.956157 0.436888 0.797158 -0.130445
C21   C     C_R   0.043843 0.563111 0.202842 -0.130444
C22   C     C_R   0.893854 0.425809 0.687927 -0.079989
C23   C     C_R   0.501730 0.814470 0.534321 -0.033705
C24   C     C_R   0.106146 0.574191 0.312074 -0.079989
C25   C     C_R   0.943242 0.468904 0.595698 0.009278
C26   C     C_R   0.056758 0.531095 0.404302 0.009278
C27   C     C_R   0.066012 0.506880 0.609353 0.013610
C28   C     C_R   0.933988 0.493119 0.390647 0.013610
C29   C     C_R   0.873076 0.474713 0.491039 -0.041849
C30   C     C_R   0.126924 0.525287 0.508961 -0.041849
C31   C     C_3   0.194001 0.311219 0.005731 -0.114524
C32   C     C_3   0.805998 0.688781 0.994269 -0.114524
C33   C     C_R   0.498270 0.185530 0.465679 -0.033704
C34   C     C_R   0.502087 0.014938 0.342618 0.084930
C35   C     C_R   0.497913 0.985062 0.657381 0.084930
C36   C     C_R   0.500348 0.123087 0.354641 -0.106854
C37   C     C_R   0.499651 0.876913 0.645359 -0.106854
C38   C     C_R   0.497221 0.139734 0.565711 -0.118215
Cu1   Cu    Cu3+1 0.509250 0.507730 0.615930 0.933129
Cu2   Cu    Cu3+1 0.490750 0.492270 0.384070 0.933129
H1    H     H_    0.084103 0.594068 0.132288 0.104208
H2    H     H_    0.495200 0.189227 0.650674 0.173341
H3    H     H_    0.498640 0.841755 0.723208 0.163875
H4    H     H_    0.501360 0.158245 0.276792 0.163875
H5    H     H_    0.388590 0.401681 0.788836 0.188214
H6    H     H_    0.611410 0.598319 0.211164 0.188214
H7    H     H_    0.655224 0.640339 0.808809 0.134255
H8    H     H_    0.344776 0.359660 0.191191 0.134255
H9    H     H_    0.155516 0.386149 0.050507 0.094631
H10   H     H_    0.206697 0.255306 0.067267 0.139321
H11   H     H_    0.124599 0.276329 0.936400 0.159689
H12   H     H_    0.915896 0.405932 0.867713 0.104208
H13   H     H_    0.793302 0.744695 0.932732 0.139321
H14   H     H_    0.844484 0.613852 0.949491 0.094632
H15   H     H_    0.875402 0.723672 0.063599 0.159689
H16   H     H_    0.205857 0.572861 0.745529 0.147275
H17   H     H_    0.794143 0.427137 0.254471 0.147275
H18   H     H_    0.112988 0.505830 0.903091 0.112834
H19   H     H_    0.887012 0.494168 0.096908 0.112834
H20   H     H_    0.807513 0.382184 0.675963 0.144045
H21   H     H_    0.192486 0.617816 0.324038 0.144045
H22   H     H_    0.504800 0.810773 0.349326 0.173341
I1    I     I_    0.506648 0.929525 0.168610 -0.337750
I2    I     I_    0.493352 0.070475 0.831390 -0.337749
N1    N     N_R   0.523180 0.519350 0.790130 -0.283483
N2    N     N_R   0.476820 0.480650 0.209870 -0.283483
O1    O     O_R   0.506570 0.354460 0.582000 -0.508862
O2    O     O_3   0.694099 0.674345 0.047413 -0.566302
O3    O     O_R   0.493430 0.645540 0.418000 -0.508861
O4    O     O_R   0.490940 0.341410 0.386200 -0.506628
O5    O     O_R   0.509060 0.658590 0.613800 -0.506627
O6    O     O_R   0.327470 0.506520 0.597900 -0.509857
O7    O     O_R   0.672530 0.493480 0.402100 -0.509857
O8    O     O_R   0.311840 0.493460 0.402100 -0.507821
O9    O     O_R   0.688160 0.506540 0.597900 -0.507821
O10   O     O_3   0.305901 0.325654 0.952587 -0.566302

loop_
_geom_bond_atom_site_label_1
_geom_bond_atom_site_label_2
_ccdc_geom_bond_type
C15   O9    A    
C12   O3    A    
C24   H21   S    
C1    C33   S    
C12   C23   S    
Cu2   O4    S    
C14   O8    A    
C28   C29   A    
C35   C37   A    
C31   H9    S    
C38   H2    S    
C22   H20   S    
C33   C36   A    
Cu2   O7    S    
C9    N2    A    
C17   C19   A    
C18   H18   S    
C3    C38   A    
C22   C25   A    
Cu1   O6    S    
C35   I2    S    
Cu1   O9    S    
C32   H15   S    
C5    C13   A    
C32   O2    S    
C16   C27   A    
C6    O2    S    
C8    N1    A    
Cu2   N2    S    
C27   C30   A    
Cu1   N1    S    
Cu1   O1    S    
C14   C30   S    
C32   H14   S    
C15   C29   S    
C25   C29   A    
C4    C34   A    
Cu2   O3    S    
C31   H11   S    
C6    C11   A    
C5    C7    A    
C6    C8    A    
C19   H19   S    
C23   C37   A    
C37   H3    S    
C2    C4    A    
C16   H16   S    
C3    C35   A    
C10   H5    S    
C9    C11   A    
C21   H1    S    
C15   O7    A    
C12   O5    A    
C20   C22   A    
C26   C30   A    
C36   H4    S    
C31   H10   S    
C3    C4    A    
C32   H13   S    
Cu1   Cu2   S    
C10   N1    A    
C19   C21   A    
C17   C28   A    
C14   O6    A    
C1    O4    A    
C24   C26   A    
C10   C13   A    
C25   C27   A    
C26   C28   A    
C33   C38   A    
C7    H8    S    
C5    O10   S    
C8    H7    S    
C20   H12   S    
C7    N2    A    
C11   C13   A    
C31   O10   S    
C34   I1    S    
C1    O1    A    
C34   C36   A    
Cu2   O8    S    
C18   C20   A    
C9    H6    S    
C16   C18   A    
C21   C24   A    
C2    C23   A    
Cu1   O5    S    
C2    H22   S    
C17   H17   S    
