data_mof_unit_57935.cif
_audit_creation_date              2012-12-11T14:08:25-0500
_audit_creation_method            fapswitch 2.2
_symmetry_space_group_name_H-M    P1
_symmetry_Int_Tables_number       1
_space_group_crystal_system       triclinic
_cell_length_a                    28.135223
_cell_length_b                    7.190755
_cell_length_c                    17.200971
_cell_angle_alpha                 89.999455
_cell_angle_beta                  101.631378
_cell_angle_gamma                 89.999712
_cell_volume                      3408.52694199

loop_
_atom_site_label
_atom_site_type_symbol
_atom_type_description
_atom_site_fract_x
_atom_site_fract_y
_atom_site_fract_z
_atom_type_partial_charge
O1    O     O_R   0.000700 0.436510 0.857920 -0.537671
O2    O     O_R   0.999300 0.563490 0.142080 -0.531987
O3    O     O_R   0.999300 0.936510 0.642080 -0.537670
O4    O     O_R   0.000700 0.063490 0.357920 -0.531985
O5    O     O_R   0.930080 0.766380 0.721890 -0.547399
O6    O     O_R   0.069920 0.233620 0.278110 -0.508253
O7    O     O_R   0.069920 0.266380 0.778110 -0.547400
O8    O     O_R   0.930080 0.733620 0.221890 -0.508252
C1    C     C_R   0.910411 0.597504 0.709338 0.727922
C2    C     C_R   0.089412 0.402076 0.292240 0.732791
C3    C     C_R   0.089589 0.097503 0.790660 0.727921
C4    C     C_R   0.910588 0.902078 0.207761 0.732793
O9    O     O_R   0.996180 0.766230 0.862310 -0.543550
O10   O     O_R   0.003820 0.233770 0.137690 -0.548222
O11   O     O_R   0.003820 0.266230 0.637690 -0.543549
O12   O     O_R   0.996180 0.733770 0.362310 -0.548222
O13   O     O_R   0.065870 0.936460 0.783500 -0.504159
O14   O     O_R   0.934130 0.063540 0.216500 -0.546090
O15   O     O_R   0.934130 0.436460 0.716500 -0.504166
O16   O     O_R   0.065870 0.563540 0.283500 -0.546088
C5    C     C_R   0.998481 0.596458 0.894496 0.766047
C6    C     C_R   0.001508 0.403545 0.105501 0.766726
C7    C     C_R   0.001519 0.096459 0.605503 0.766050
C8    C     C_R   0.998492 0.903544 0.394499 0.766722
O17   O     O_3   0.022790 0.603020 0.723980 -0.375551
O18   O     O_3   0.977210 0.396980 0.276020 -0.378740
O19   O     O_3   0.977210 0.103020 0.776020 -0.375557
O20   O     O_3   0.022790 0.896980 0.223980 -0.378740
V1    V     V_3+5 0.995770 0.877900 0.754830 1.480311
V2    V     V_3+5 0.004230 0.122100 0.245170 1.472751
V3    V     V_3+5 0.004230 0.377900 0.745170 1.480311
V4    V     V_3+5 0.995770 0.622100 0.254830 1.472752
C9    C     C_2   0.001719 0.082679 0.519567 -0.318696
C10   C     C_2   0.998312 0.917329 0.480441 -0.325256
C11   C     C_2   0.998281 0.582679 0.980433 -0.318703
C12   C     C_2   0.001688 0.417329 0.019559 -0.325261
H1    H     H_    0.004512 0.211594 0.487880 0.152021
H2    H     H_    0.995523 0.788414 0.512130 0.150353
H3    H     H_    0.995488 0.711594 0.012118 0.152022
H4    H     H_    0.004477 0.288414 0.987872 0.150354
C13   C     C_R   0.684963 0.983963 0.015887 0.637164
C14   C     C_R   0.318965 0.093683 0.960199 0.631720
C15   C     C_R   0.315038 0.483939 0.484115 0.637166
C16   C     C_R   0.681034 0.593678 0.539794 0.631713
O21   O     O_2   0.715436 0.007893 0.965352 -0.509540
O22   O     O_2   0.290290 0.130622 0.012452 -0.508404
O23   O     O_2   0.284565 0.507865 0.534651 -0.509542
O24   O     O_2   0.709709 0.630606 0.487538 -0.508401
N1    N     N_R   0.703393 0.952519 0.094755 -0.533371
N2    N     N_R   0.298777 0.074115 0.881294 -0.532765
N3    N     N_R   0.296607 0.452503 0.405249 -0.533369
N4    N     N_R   0.701223 0.574129 0.618699 -0.532763
C17   C     C_R   0.673260 0.926190 0.147170 0.678014
C18   C     C_R   0.327116 0.037426 0.826974 0.678573
C19   C     C_R   0.326740 0.426177 0.352833 0.678014
C20   C     C_R   0.672885 0.537454 0.673022 0.678581
C21   C     C_R   0.781905 0.096640 0.161111 0.014850
C22   C     C_R   0.222498 0.246405 0.824135 0.014838
C23   C     C_R   0.218096 0.596631 0.338892 0.014849
C24   C     C_R   0.777502 0.746429 0.675858 0.014863
C25   C     C_R   0.832194 0.078254 0.188975 -0.352024
C26   C     C_R   0.171525 0.246716 0.803027 -0.360203
C27   C     C_R   0.167806 0.578247 0.311027 -0.352029
C28   C     C_R   0.828474 0.746734 0.696971 -0.360167
C29   C     C_R   0.830067 0.760254 0.140444 0.321405
C30   C     C_R   0.168339 0.925732 0.846063 0.332482
C31   C     C_R   0.169933 0.260243 0.359557 0.321411
C32   C     C_R   0.831662 0.425733 0.653922 0.332494
C33   C     C_R   0.779571 0.778093 0.112990 -0.214057
C34   C     C_R   0.219406 0.925167 0.866756 -0.224526
C35   C     C_R   0.220429 0.278081 0.387013 -0.214057
C36   C     C_R   0.780594 0.425167 0.633232 -0.224529
C37   C     C_R   0.755284 0.943745 0.122900 0.345490
C38   C     C_R   0.246658 0.082686 0.856224 0.348625
C39   C     C_R   0.244716 0.443734 0.377104 0.345493
C40   C     C_R   0.753342 0.582697 0.643768 0.348623
C41   C     C_R   0.602798 0.969127 0.040548 -0.047410
C42   C     C_R   0.399227 0.036730 0.932441 -0.046312
C43   C     C_R   0.397202 0.469103 0.459455 -0.047408
C44   C     C_R   0.600773 0.536726 0.567556 -0.046310
C45   C     C_R   0.634396 0.992205 0.987313 -0.019372
C46   C     C_R   0.369361 0.074471 0.987224 -0.019890
C47   C     C_R   0.365605 0.492175 0.512689 -0.019373
C48   C     C_R   0.630638 0.574459 0.512771 -0.019890
C49   C     C_R   0.614898 0.026830 0.907233 -0.148206
C50   C     C_R   0.390436 0.094092 0.067605 -0.145347
C51   C     C_R   0.385103 0.526786 0.592770 -0.148202
C52   C     C_R   0.609563 0.594063 0.432389 -0.145344
C53   C     C_R   0.622497 0.935872 0.121195 -0.070666
C54   C     C_R   0.377941 0.020265 0.851478 -0.069973
C55   C     C_R   0.377503 0.435855 0.378808 -0.070666
C56   C     C_R   0.622060 0.520281 0.648520 -0.069980
C57   C     C_R   0.856846 0.911946 0.179344 -0.064998
C58   C     C_R   0.143800 0.088765 0.813668 -0.064445
C59   C     C_R   0.143154 0.411940 0.320657 -0.065001
C60   C     C_R   0.856200 0.588771 0.686327 -0.064485
H5    H     H_    0.758773 0.662498 0.083308 0.147354
H6    H     H_    0.238405 0.801601 0.892289 0.131084
H7    H     H_    0.241227 0.162485 0.416695 0.147356
H8    H     H_    0.761596 0.301593 0.607697 0.131079
H9    H     H_    0.638299 0.051932 0.865418 0.186142
H10   H     H_    0.368711 0.130873 0.110652 0.180231
H11   H     H_    0.361703 0.551875 0.634586 0.186141
H12   H     H_    0.631287 0.630831 0.389338 0.180231
C61   C     C_R   0.480622 0.993204 0.902690 0.003530
C62   C     C_R   0.520489 0.973377 0.068622 0.001218
C63   C     C_R   0.519380 0.493186 0.597310 0.003534
C64   C     C_R   0.479511 0.473354 0.431379 0.001222
C65   C     C_R   0.470381 0.015719 0.041547 0.074473
C66   C     C_R   0.532075 0.999384 0.930584 0.070831
C67   C     C_R   0.529619 0.515697 0.458452 0.074473
C68   C     C_R   0.467926 0.499356 0.569417 0.070840
C69   C     C_R   0.450235 0.015049 0.958848 -0.005554
C70   C     C_R   0.551627 0.980144 0.013178 -0.003845
C71   C     C_R   0.549766 0.515035 0.541150 -0.005551
C72   C     C_R   0.448374 0.480119 0.486823 -0.003842
C73   C     C_R   0.458194 0.964738 0.821434 0.361701
C74   C     C_R   0.540681 0.923161 0.148650 0.350125
C75   C     C_R   0.541809 0.464736 0.678567 0.361702
C76   C     C_R   0.459319 0.423138 0.351352 0.350121
C77   C     C_R   0.407472 0.981370 0.797110 -0.203414
C78   C     C_R   0.591283 0.908703 0.173924 -0.198195
C79   C     C_R   0.592530 0.481390 0.702890 -0.203399
C80   C     C_R   0.408717 0.408686 0.326078 -0.198194
O25   O     O_2   0.306216 0.017135 0.749660 -0.509284
O26   O     O_2   0.692375 0.891639 0.224252 -0.508617
O27   O     O_2   0.693785 0.517185 0.750338 -0.509282
O28   O     O_2   0.307624 0.391630 0.275752 -0.508621
C81   C     C_R   0.564859 0.031562 0.879515 -0.127368
C82   C     C_R   0.439957 0.066624 0.094150 -0.109801
C83   C     C_R   0.435142 0.531521 0.620487 -0.127374
C84   C     C_R   0.560042 0.566595 0.405847 -0.109802
H13   H     H_    0.153327 0.372359 0.778043 0.162195
H14   H     H_    0.852353 0.195630 0.218449 0.163864
H15   H     H_    0.846673 0.872384 0.721960 0.162182
H16   H     H_    0.147647 0.695623 0.281552 0.163863
H17   H     H_    0.391018 0.960191 0.735149 0.162872
H18   H     H_    0.606159 0.873116 0.235228 0.161112
H19   H     H_    0.608986 0.460219 0.764851 0.162872
H20   H     H_    0.393840 0.373103 0.264775 0.161111
H21   H     H_    0.552898 0.070539 0.818251 0.191852
H22   H     H_    0.453965 0.094506 0.156035 0.172687
H23   H     H_    0.447103 0.570487 0.681751 0.191818
H24   H     H_    0.546033 0.594474 0.343961 0.172690
O29   O     O_3   0.853779 0.597998 0.128012 -0.640397
H25   H     H_    0.829951 0.507995 0.098928 0.284903
O30   O     O_3   0.142137 0.769885 0.858592 -0.636908
H26   H     H_    0.164829 0.669348 0.881445 0.281386
O31   O     O_3   0.146221 0.097985 0.371987 -0.640396
H27   H     H_    0.170049 0.007970 0.401064 0.284902
O32   O     O_3   0.857864 0.269889 0.641372 -0.636896
H28   H     H_    0.835173 0.169336 0.618524 0.281379
C85   C     C_2   0.248524 0.420625 0.812333 0.430896
H29   H     H_    0.228294 0.538203 0.782942 0.048238
O33   O     O_2   0.292261 0.437078 0.835471 -0.518824
C86   C     C_2   0.759157 0.278224 0.172843 0.412893
H30   H     H_    0.780581 0.385464 0.208122 0.059034
O34   O     O_2   0.716949 0.312490 0.142911 -0.520436
C87   C     C_2   0.751478 0.920671 0.687649 0.430897
H31   H     H_    0.771710 0.038283 0.717026 0.048200
O35   O     O_2   0.707738 0.937105 0.664517 -0.518815
C88   C     C_2   0.240844 0.778210 0.327158 0.412891
H32   H     H_    0.219422 0.885449 0.291874 0.059036
O36   O     O_2   0.283051 0.812474 0.357091 -0.520439
O37   O     O_3   0.485278 0.904429 0.767629 -0.647831
H33   H     H_    0.464638 0.900322 0.713635 0.290863
O38   O     O_3   0.510769 0.872436 0.199702 -0.644895
H34   H     H_    0.530507 0.849574 0.253422 0.290900
O39   O     O_3   0.514728 0.404411 0.732373 -0.647831
H35   H     H_    0.535362 0.400401 0.786376 0.290856
O40   O     O_3   0.489229 0.372405 0.300301 -0.644896
H36   H     H_    0.469492 0.349553 0.246581 0.290897

loop_
_geom_bond_atom_site_label_1
_geom_bond_atom_site_label_2
_ccdc_geom_bond_type
C84   H24   S    
C47   C51   A    
C61   C66   A    
N1    C17   A    
O1    C5    A    
O37   H33   S    
C79   H19   S    
C31   O31   S    
O13   V1    S    
O39   H35   S    
C64   C76   A    
O3    C7    A    
O30   H26   S    
C14   C46   A    
C24   C87   S    
C44   C48   A    
O4    V2    S    
O15   V3    S    
C36   H8    S    
O29   H25   S    
C83   H23   S    
C42   C54   A    
O7    C3    A    
C41   C53   A    
C32   C60   A    
C62   C70   A    
C26   H13   S    
O9    V1    S    
C86   H30   S    
N3    C39   S    
C18   C54   A    
N2    C38   S    
C14   O22   S    
O4    C8    A    
C25   C57   A    
C31   C35   A    
O19   V1    S    
C53   C78   A    
C21   C37   A    
C27   C59   A    
C74   O38   S    
O1    V3    S    
C15   C47   A    
C66   C81   A    
O2    V4    S    
C63   C68   A    
C20   O27   S    
C77   H17   S    
O3    V1    S    
C73   C77   A    
C34   C38   A    
C19   C55   A    
C49   C81   A    
C76   C80   A    
C1    O15   A    
C11   C12   D    
C73   O37   S    
C7    C9    S    
O2    C6    A    
O32   H28   S    
C87   O35   D    
C33   C37   A    
O14   V2    S    
O40   H36   S    
C85   O33   D    
C66   C70   A    
C88   O36   D    
C65   C69   A    
C30   C58   A    
C16   N4    A    
O11   C7    A    
C28   H15   S    
O12   C8    A    
C43   C72   A    
C62   C74   A    
C31   C59   A    
C61   C73   A    
O10   V2    S    
C63   C75   A    
C52   H12   S    
C25   H14   S    
O5    V1    S    
C18   O25   S    
O7    V3    S    
O8    V4    S    
C12   H4    S    
C78   H18   S    
C56   C79   A    
C2    O16   A    
O38   H34   S    
O18   V4    S    
C50   C82   A    
N4    C40   S    
C46   C50   A    
C35   H7    S    
C24   C40   A    
C8    C10   S    
C32   C36   A    
C44   C56   A    
C11   H3    S    
O5    C1    A    
C21   C86   S    
C22   C85   S    
C42   C46   A    
C87   H31   S    
C44   C71   A    
C41   C45   A    
O8    C4    A    
C13   C45   A    
C9    C10   D    
O9    C5    A    
C36   C40   A    
N2    C18   A    
O11   V3    S    
C1    C60   S    
C63   C71   A    
C30   O30   S    
C51   C83   A    
C22   C26   A    
C75   O39   S    
C51   H11   S    
C3    C58   S    
O6    V2    S    
C14   N2    A    
C55   C80   A    
C26   C58   A    
C17   C53   A    
C54   C77   A    
N1    C37   S    
C4    C57   S    
C42   C69   A    
C52   C84   A    
C29   O29   S    
C41   C70   A    
C50   H10   S    
C23   C39   A    
C68   C72   A    
C49   H9    S    
C22   C38   A    
C88   H32   S    
O16   V4    S    
C61   C69   A    
C29   C33   A    
C3    O13   A    
C10   H2    S    
C43   C55   A    
O17   V3    S    
C80   H20   S    
C48   C52   A    
C16   C48   A    
O6    C2    A    
C76   O40   S    
C21   C25   A    
C5    C11   S    
C75   C79   A    
O12   V4    S    
C13   N1    A    
C6    C12   S    
C23   C27   A    
C64   C67   A    
C24   C28   A    
C27   H16   S    
C64   C72   A    
C86   O34   D    
C32   O32   S    
O31   H27   S    
C35   C39   A    
O10   C6    A    
C30   C34   A    
N4    C20   A    
C2    C59   S    
C15   N3    A    
C74   C78   A    
O20   V2    S    
C29   C57   A    
C28   C60   A    
N3    C19   A    
C68   C83   A    
C82   H22   S    
C9    H1    S    
C17   O26   S    
C43   C47   A    
C34   H6    S    
C67   C84   A    
C20   C56   A    
C81   H21   S    
C19   O28   S    
C4    O14   A    
C65   C82   A    
C23   C88   S    
C13   O21   S    
C67   C71   A    
C85   H29   S    
C15   O23   S    
C45   C49   A    
C16   O24   S    
C62   C65   A    
C33   H5    S    
