data_mof_unit_58488.cif
_audit_creation_date              2013-03-05T16:12:31-0500
_audit_creation_method            fapswitch 2.2
_symmetry_space_group_name_H-M    P1
_symmetry_Int_Tables_number       1
_space_group_crystal_system       triclinic
_cell_length_a                    24.112639
_cell_length_b                    7.203813
_cell_length_c                    20.466025
_cell_angle_alpha                 89.766951
_cell_angle_beta                  104.691668
_cell_angle_gamma                 90.218126
_cell_volume                      3438.73388224

loop_
_atom_site_label
_atom_site_type_symbol
_atom_site_description
_atom_site_fract_x
_atom_site_fract_y
_atom_site_fract_z
_atom_type_partial_charge
O1    O     O_R   0.449110 0.494310 0.552140 -0.541003
O2    O     O_R   0.550890 0.994310 0.447860 -0.541873
O3    O     O_R   0.440010 0.824420 0.415850 -0.570548
O4    O     O_R   0.559990 0.324420 0.584150 -0.544271
C1    C     C_R   0.424000 0.653619 0.391952 1.094366
C2    C     C_R   0.575864 0.153605 0.608348 1.093639
O5    O     O_R   0.442260 0.824040 0.549660 -0.553702
O6    O     O_R   0.557740 0.324040 0.450340 -0.555140
O7    O     O_R   0.553160 0.993960 0.582620 -0.551022
O8    O     O_R   0.446840 0.493960 0.417380 -0.549844
C3    C     C_R   0.427598 0.654824 0.566615 1.103407
C4    C     C_R   0.572120 0.155414 0.433068 1.093255
O9    O     O_3   0.536380 0.660670 0.510660 -0.224319
O10   O     O_3   0.463620 0.160670 0.489340 -0.254562
V1    V     V_3+5 0.493250 0.935680 0.498020 1.407733
V2    V     V_3+5 0.506750 0.435680 0.501980 1.425196
C5    C     C_R   0.802983 0.922872 0.144068 -0.145117
C6    C     C_R   0.195467 0.416503 0.854616 -0.128840
H1    H     H_    0.765919 0.832167 0.135461 0.174081
H2    H     H_    0.231967 0.324270 0.862844 0.198337
C7    C     C_R   0.834609 0.939774 0.094592 0.386707
C8    C     C_R   0.164296 0.434208 0.904482 0.367380
C9    C     C_R   0.882085 0.063935 0.106070 -0.433345
C10   C     C_R   0.118099 0.562977 0.893876 -0.442448
C11   C     C_R   0.884557 0.202552 0.156352 0.521579
C12   C     C_R   0.115846 0.699947 0.842712 0.473331
C13   C     C_R   0.859596 0.164110 0.209936 -0.234999
C14   C     C_R   0.139577 0.658765 0.788564 -0.197011
H3    H     H_    0.864315 0.263403 0.250658 0.197325
H4    H     H_    0.135143 0.758227 0.747637 0.174067
C15   C     C_R   0.816324 0.031410 0.202555 0.022205
C16   C     C_R   0.182270 0.525208 0.795929 0.016666
C17   C     C_1   0.777201 0.041573 0.246175 0.040727
C18   C     C_1   0.221142 0.534881 0.751960 0.054994
C19   C     C_1   0.743335 0.060839 0.280636 0.059298
C20   C     C_1   0.254883 0.554427 0.717273 0.071681
C21   C     C_R   0.648785 0.994664 0.300501 -0.225241
C22   C     C_R   0.348859 0.486370 0.696898 -0.220881
H5    H     H_    0.641217 0.900497 0.257995 0.173104
H6    H     H_    0.355765 0.389392 0.738767 0.172651
C23   C     C_R   0.606101 0.021659 0.335087 0.519827
C24   C     C_R   0.392050 0.516058 0.663187 0.524385
C25   C     C_R   0.615782 0.142486 0.391979 -0.485438
C26   C     C_R   0.383438 0.640808 0.607226 -0.483462
C27   C     C_R   0.669046 0.240616 0.410151 0.493974
C28   C     C_R   0.331001 0.743141 0.590009 0.506047
C29   C     C_R   0.710583 0.212518 0.373314 -0.222018
C30   C     C_R   0.288920 0.712309 0.626075 -0.207605
H7    H     H_    0.750922 0.287150 0.386875 0.190143
H8    H     H_    0.249240 0.789906 0.613337 0.193987
C31   C     C_R   0.700975 0.088093 0.319293 0.017356
C32   C     C_R   0.297304 0.582388 0.678628 0.012782
C33   C     C_R   0.644530 0.209144 0.793585 0.601549
C34   C     C_R   0.358076 0.672576 0.204789 0.606669
H9    H     H_    0.560209 0.222707 0.729662 0.249783
H10   H     H_    0.442210 0.686400 0.269881 0.234913
C35   C     C_R   0.620184 0.141869 0.674280 -0.360411
C36   C     C_R   0.379751 0.640301 0.326265 -0.358578
C37   C     C_R   0.898032 0.992794 0.765450 0.349638
C38   C     C_R   0.101650 0.528183 0.238617 0.289003
C39   C     C_R   0.857253 0.962906 0.703127 0.422569
C40   C     C_R   0.139882 0.564058 0.302542 0.423315
C41   C     C_R   0.800475 0.014115 0.695698 -0.185391
C42   C     C_R   0.198045 0.585249 0.307477 -0.194192
C43   C     C_R   0.779979 0.074543 0.749938 0.041247
C44   C     C_R   0.219758 0.592270 0.250575 0.062079
C45   C     C_R   0.821244 0.119751 0.811711 -0.104499
C46   C     C_R   0.179631 0.616570 0.186320 -0.115753
C47   C     C_R   0.719733 0.105500 0.742353 -0.064516
C48   C     C_R   0.280336 0.607248 0.257703 -0.098652
C49   C     C_R   0.703312 0.199194 0.795203 -0.264863
C50   C     C_R   0.298942 0.674639 0.201845 -0.280137
C51   C     C_R   0.745023 0.294130 0.844291 0.370480
C52   C     C_R   0.258996 0.760206 0.148301 0.370235
C53   C     C_R   0.803445 0.245626 0.855484 0.213303
C54   C     C_R   0.199860 0.718106 0.137244 0.217047
C55   C     C_R   0.674403 0.051969 0.684399 0.403021
C56   C     C_R   0.323636 0.565243 0.318653 0.443391
C57   C     C_R   0.604540 0.200640 0.731659 -0.224754
C58   C     C_R   0.397303 0.674352 0.267544 -0.182658
C59   C     C_R   0.880100 0.058846 0.822355 -0.341440
C60   C     C_R   0.120036 0.562627 0.178176 -0.330398
H11   H     H_    0.772135 0.008716 0.645697 0.231468
H12   H     H_    0.226593 0.606158 0.356911 0.213886
O11   O     O_R   0.053190 0.709680 0.082610 -0.575363
O12   O     O_R   0.946810 0.209680 0.917390 -0.558515
O13   O     O_R   0.057740 0.380240 0.950340 -0.544736
O14   O     O_R   0.942260 0.880240 0.049660 -0.550316
C61   C     C_R   0.072679 0.550612 0.933411 1.072413
C62   C     C_R   0.927333 0.050365 0.066530 1.037519
O15   O     O_R   0.060000 0.379940 0.084150 -0.535733
O16   O     O_R   0.940000 0.879940 0.915850 -0.544339
O17   O     O_R   0.949110 0.210100 0.052140 -0.533752
O18   O     O_R   0.050890 0.710100 0.947860 -0.539942
C63   C     C_R   0.076199 0.549838 0.109411 1.066865
C64   C     C_R   0.922999 0.049868 0.891528 1.070891
O19   O     O_3   0.963630 0.543720 0.989330 -0.220362
O20   O     O_3   0.036370 0.043720 0.010670 -0.223060
V3    V     V_3+5 0.006750 0.268680 0.001980 1.450613
V4    V     V_3+5 0.993250 0.768680 0.998020 1.445424
S1    S     S_3+6 0.726033 0.508116 0.876665 0.117634
O21   O     O_2   0.670202 0.581878 0.834096 -0.264624
O22   O     O_2   0.720642 0.475903 0.947274 -0.098195
O23   O     O_3   0.776091 0.671437 0.877663 -0.402187
H13   H     H_    0.772817 0.701002 0.829515 0.350903
S2    S     S_3+6 0.280453 0.966061 0.111967 0.117886
O24   O     O_2   0.337948 0.035403 0.151753 -0.223036
O25   O     O_2   0.283268 0.926701 0.040906 -0.131335
O26   O     O_3   0.233199 0.136978 0.111363 -0.391708
H14   H     H_    0.237850 0.168842 0.159513 0.346758
S3    S     S_3+6 0.618963 0.187939 0.867166 0.084503
O27   O     O_2   0.666255 0.127128 0.926398 -0.214551
O28   O     O_2   0.594557 0.369376 0.882608 -0.163407
O29   O     O_3   0.566538 0.027178 0.852711 -0.486778
H15   H     H_    0.552516 0.025529 0.894203 0.395144
S4    S     S_3+6 0.384395 0.629290 0.132927 0.081724
O30   O     O_2   0.336660 0.569030 0.074101 -0.215699
O31   O     O_2   0.412964 0.800150 0.114301 -0.169001
O32   O     O_3   0.433298 0.458666 0.152325 -0.480504
H16   H     H_    0.447059 0.441734 0.111070 0.396252
S5    S     S_3+6 0.674966 0.832271 0.644377 0.002213
O33   O     O_2   0.676053 0.862181 0.572016 -0.201599
O34   O     O_2   0.725359 0.715278 0.679316 -0.301581
O35   O     O_3   0.615397 0.712692 0.646318 -0.469288
H17   H     H_    0.618279 0.691285 0.694914 0.374816
S6    S     S_3+6 0.316901 0.367048 0.368690 0.003496
O36   O     O_2   0.320697 0.424230 0.440203 -0.242966
O37   O     O_2   0.261773 0.263467 0.340850 -0.288563
O38   O     O_3   0.371046 0.221673 0.367800 -0.476326
H18   H     H_    0.362065 0.106613 0.389615 0.389994
S7    S     S_3+6 0.972509 0.972909 0.771460 0.056488
O39   O     O_2   0.003776 0.122047 0.817512 -0.240026
O40   O     O_2   0.991745 0.785314 0.800623 -0.312407
O41   O     O_3   0.988940 0.998969 0.696870 -0.412929
H19   H     H_    0.023573 0.922325 0.700247 0.384041
S8    S     S_3+6 0.030114 0.457305 0.234202 0.042781
O42   O     O_2   0.993106 0.626934 0.218450 -0.181200
O43   O     O_2   0.010507 0.316352 0.179574 -0.330334
O44   O     O_3   0.021552 0.360417 0.305844 -0.420975
H20   H     H_    0.038124 0.234439 0.306964 0.371609
S9    S     S_3+6 0.872790 0.848813 0.633058 0.081794
O45   O     O_2   0.916589 0.698898 0.656590 -0.206023
O46   O     O_2   0.819114 0.762065 0.590023 -0.192668
O47   O     O_3   0.897462 0.005300 0.586027 -0.446485
H21   H     H_    0.905809 0.932731 0.548647 0.384217
S10   S     S_3+6 0.118254 0.596228 0.378576 0.066065
O48   O     O_2   0.115217 0.410752 0.411412 -0.211416
O49   O     O_2   0.161392 0.715202 0.426496 -0.234136
O50   O     O_3   0.054148 0.702082 0.363080 -0.436285
H22   H     H_    0.044201 0.703670 0.407152 0.390495
N1    N     N_R   0.844971 0.357063 0.900607 0.243686
O51   O     O_R   0.845597 0.362625 0.964210 -0.278998
O52   O     O_R   0.873310 0.481397 0.875761 -0.342773
N2    N     N_R   0.160488 0.818116 0.085683 0.243954
O53   O     O_R   0.164468 0.805643 0.023802 -0.341667
O54   O     O_R   0.133996 0.959293 0.103105 -0.329755
N3    N     N_R   0.811342 0.858986 0.028954 0.293922
O55   O     O_R   0.760661 0.783637 0.015628 -0.241601
O56   O     O_R   0.832116 0.902898 0.978193 -0.372524
N4    N     N_R   0.186332 0.345253 0.969167 0.293830
O57   O     O_R   0.234933 0.257729 0.980935 -0.220510
O58   O     O_R   0.166677 0.387740 0.020754 -0.375182
S11   S     S_3+6 0.875052 0.439551 0.132170 0.048952
O59   O     O_2   0.877088 0.559746 0.192647 -0.283098
O60   O     O_2   0.918261 0.510794 0.097030 -0.163669
O61   O     O_3   0.809511 0.457778 0.079328 -0.437216
H23   H     H_    0.782492 0.430468 0.107400 0.341719
S12   S     S_3+6 0.128154 0.937021 0.864849 0.046871
O62   O     O_2   0.111221 0.056163 0.802564 -0.258001
O63   O     O_2   0.097686 0.003153 0.915622 -0.161170
O64   O     O_3   0.199161 0.963189 0.896916 -0.467477
H24   H     H_    0.212826 0.843676 0.919145 0.369267
S13   S     S_3+6 0.540872 0.901621 0.303890 -0.025228
O65   O     O_2   0.541570 0.729306 0.345831 -0.327754
O66   O     O_2   0.491062 0.021282 0.308492 -0.258019
O67   O     O_3   0.532920 0.841526 0.222597 -0.475336
H25   H     H_    0.545654 0.710702 0.223782 0.365912
S14   S     S_3+6 0.457495 0.400325 0.695958 -0.027936
O68   O     O_2   0.458788 0.229177 0.654540 -0.320334
O69   O     O_2   0.506722 0.525386 0.692461 -0.287307
O70   O     O_3   0.464436 0.338717 0.777086 -0.474579
H26   H     H_    0.450986 0.208333 0.775617 0.366941
S15   S     S_3+6 0.686516 0.396118 0.479320 0.041858
O71   O     O_2   0.748699 0.450847 0.494448 -0.211245
O72   O     O_2   0.650262 0.567349 0.462081 -0.211600
O73   O     O_3   0.673860 0.294356 0.548096 -0.570505
H27   H     H_    0.684332 0.389090 0.584118 0.402282
S16   S     S_3+6 0.315557 0.910099 0.523939 0.031726
O74   O     O_2   0.254266 0.972828 0.510688 -0.218766
O75   O     O_2   0.354090 0.075809 0.543794 -0.215009
O76   O     O_3   0.326566 0.817501 0.453101 -0.581324
H28   H     H_    0.296150 0.869717 0.415673 0.372577

loop_
_geom_bond_atom_site_label_1
_geom_bond_atom_site_label_2
_geom_bond_distance
_ccdc_geom_bond_type
C44   C46   1.431853 A    
O64   H24   0.989798 S    
C41   C43   1.396349 A    
N3    O55   1.299801 A    
C13   H3    1.084114 S    
C23   C25   1.427124 A    
C35   C57   1.389441 A    
C47   C55   1.446779 A    
S11   O59   1.503884 D    
O1    C3    1.333862 A    
S7    O41   1.681215 S    
O2    C4    1.331097 A    
C10   C61   1.519938 S    
C2    O7    1.324195 A    
S14   O68   1.503924 D    
C45   C53   1.419012 A    
C29   H7    1.082795 S    
O70   H26   0.990590 S    
O5    C3    1.336736 A    
C12   S12   1.773213 S    
S1    O21   1.503491 D    
C52   C54   1.417775 A    
C1    C36   1.492520 S    
S16   O76   1.679784 S    
S16   O75   1.502470 D    
S11   O60   1.496387 D    
C10   C12   1.426944 A    
C22   C24   1.402831 A    
C4    C25   1.508214 S    
S15   O72   1.502825 D    
C21   C31   1.390957 A    
C48   C56   1.440975 A    
S2    O24   1.503331 D    
O16   C64   1.345237 A    
S4    O30   1.503422 D    
C38   C40   1.420373 A    
O6    V2    1.987206 S    
C54   N2    1.422945 S    
C61   O18   1.330296 A    
C47   C49   1.416862 A    
C42   H12   1.080430 S    
S5    O35   1.681072 S    
C40   C42   1.388184 A    
C5    H1    1.083210 S    
C38   C60   1.436334 A    
S12   O64   1.681158 S    
S3    O27   1.503364 D    
C53   N1    1.425038 S    
C43   C45   1.434297 A    
C34   S4    1.772460 S    
N1    O51   1.298724 A    
C15   C17   1.456185 S    
O17   V3    1.969605 S    
N2    O54   1.301123 A    
C20   C32   1.456000 S    
C27   S15   1.772876 S    
C36   C58   1.392258 A    
C33   S3    1.771854 S    
C30   H8    1.082721 S    
N3    O56   1.300130 A    
C51   C53   1.413673 A    
C2    C35   1.496104 S    
S9    O45   1.503364 D    
C24   C26   1.426487 A    
S8    O44   1.680401 S    
O23   H13   0.990749 S    
C26   C28   1.430139 A    
O29   H15   0.990508 S    
S10   O49   1.503643 D    
C27   C29   1.413617 A    
C28   S16   1.774394 S    
O44   H20   0.990825 S    
C28   C30   1.414418 A    
C37   C39   1.415829 A    
C13   C15   1.392469 A    
O76   H28   0.990426 S    
C35   C55   1.428111 A    
C14   C16   1.391332 A    
S11   O61   1.678640 S    
S8    O43   1.497328 D    
S9    O47   1.681582 S    
C49   C51   1.405850 A    
C59   C64   1.528193 S    
S8    O42   1.500882 D    
C29   C31   1.398565 A    
O5    V1    1.979922 S    
S6    O38   1.680539 S    
O3    C1    1.344499 A    
C16   C18   1.456016 S    
S13   O65   1.504039 D    
C5    C7    1.418321 A    
C41   H11   1.077553 S    
S16   O74   1.504230 D    
S9    O46   1.503824 D    
C42   C44   1.393360 A    
O4    V2    2.005075 S    
S15   O71   1.503488 D    
O12   V3    1.999708 S    
C52   S2    1.788873 S    
S10   O50   1.682201 S    
H9    C57   1.071736 S    
O18   V4    1.973661 S    
O6    C4    1.337785 A    
C37   S7    1.774938 S    
C39   C41   1.389734 A    
N2    O53   1.297622 A    
C9    C62   1.517925 S    
C34   C50   1.411917 A    
C3    C26   1.510701 S    
S3    O28   1.502709 D    
O1    V2    1.973742 S    
C46   C54   1.421810 A    
O2    V1    1.969686 S    
C25   C27   1.428451 A    
S5    O33   1.502454 D    
O14   V4    1.986970 S    
S13   O66   1.503452 D    
O12   C64   1.334523 A    
C50   C52   1.404359 A    
S12   O62   1.502687 D    
O14   C62   1.349280 A    
C45   C59   1.449544 A    
S1    O23   1.678819 S    
C7    C9    1.422407 A    
C34   C58   1.388604 A    
C19   C31   1.456182 S    
O61   H23   0.990565 S    
C5    C15   1.399297 A    
C8    C10   1.425496 A    
S15   O73   1.679157 S    
O4    C2    1.344775 A    
C6    C16   1.399106 A    
S7    O39   1.500881 D    
C56   S6    1.784456 S    
C51   S1    1.786749 S    
O19   V4    1.759852 S    
O3    V1    2.006637 S    
O16   V4    2.005177 S    
C62   O17   1.325765 A    
S10   O48   1.503045 D    
S13   O67   1.683928 S    
C39   S9    1.776745 S    
C23   S13   1.764651 S    
O67   H25   0.990601 S    
S6    O37   1.503367 D    
C60   C63   1.533677 S    
C33   C57   1.385693 A    
C6    C8    1.419021 A    
C7    N3    1.442108 S    
C37   C59   1.425214 A    
O47   H21   0.990552 S    
S7    O40   1.501817 D    
S14   O69   1.503371 D    
O32   H16   0.990511 S    
O41   H19   0.990424 S    
C24   S14   1.761764 S    
C11   C13   1.404511 A    
C12   C14   1.403268 A    
H10   C58   1.074905 S    
S4    O32   1.681808 S    
C38   S8    1.777303 S    
C46   C60   1.455522 A    
N4    O57   1.300055 A    
C14   H4    1.084750 S    
O38   H18   0.988895 S    
C1    O8    1.323465 A    
C21   H5    1.083330 S    
O11   V4    1.999054 S    
O8    V2    1.997738 S    
O50   H22   0.990490 S    
C22   H6    1.083367 S    
O11   C63   1.334140 A    
C44   C48   1.434349 A    
C8    N4    1.443752 S    
C11   S11   1.775080 S    
S6    O36   1.502269 D    
C43   C47   1.439434 A    
S12   O63   1.496803 D    
C17   C19   1.215428 T    
C18   C20   1.215309 T    
S4    O31   1.502607 D    
S3    O29   1.681853 S    
C6    H2    1.082941 S    
N1    O52   1.302178 A    
C21   C23   1.403685 A    
S2    O25   1.501220 D    
S5    O34   1.503431 D    
S14   O70   1.683872 S    
C55   S5    1.786685 S    
C36   C56   1.426746 A    
O15   C63   1.347924 A    
O13   V3    1.979694 S    
C30   C32   1.398773 A    
C9    C11   1.427048 A    
C22   C32   1.390054 A    
S1    O22   1.500466 D    
O20   V3    1.763525 S    
C40   S10   1.778376 S    
O9    V2    1.760143 S    
O13   C61   1.346335 A    
O10   V1    1.763818 S    
C48   C50   1.413459 A    
O15   V3    2.006739 S    
O73   H27   0.990643 S    
O26   H14   0.990937 S    
O7    V1    1.998383 S    
N4    O58   1.300189 A    
O35   H17   0.990734 S    
S2    O26   1.678631 S    
C33   C49   1.411427 A    
