data_mof_unit_23514.cif
_audit_creation_date              2012-12-10T20:37:31-0500
_audit_creation_method            fapswitch 2.2
_symmetry_space_group_name_H-M    P1
_symmetry_Int_Tables_number       1
_space_group_crystal_system       triclinic
_cell_length_a                    15.70657
_cell_length_b                    10.700676
_cell_length_c                    9.861171
_cell_angle_alpha                 89.983115
_cell_angle_beta                  90.241941
_cell_angle_gamma                 89.95008
_cell_volume                      1657.36057004

loop_
_atom_site_label
_atom_site_type_symbol
_atom_type_description
_atom_site_fract_x
_atom_site_fract_y
_atom_site_fract_z
_atom_type_partial_charge
C1    C     C_R   0.500264 0.260403 0.499913 0.892662
C2    C     C_3   0.082705 0.499789 0.498690 0.176823
C3    C     C_3   0.972013 0.613038 0.541391 -0.192813
C4    C     C_3   0.917243 0.500359 0.500772 0.188347
C5    C     C_3   0.027543 0.589323 0.414453 -0.192804
C6    C     C_3   0.970853 0.477002 0.373800 -0.156953
C7    C     C_1   0.173637 0.499775 0.498265 -0.095649
C8    C     C_1   0.826393 0.500205 0.501055 -0.089315
C9    C     C_R   0.457131 0.062324 0.596061 0.066115
C10   C     C_R   0.500284 0.128799 0.497385 -0.115547
C11   C     C_R   0.542101 0.067778 0.391682 -0.258954
C12   C     C_R   0.337894 0.500121 0.499698 0.913153
C13   C     C_R   0.548729 0.938509 0.391671 0.088781
C14   C     C_R   0.507479 0.871914 0.497465 -0.156914
C15   C     C_R   0.460086 0.934564 0.595448 0.073673
C16   C     C_3   0.467948 0.929435 0.747426 -0.096657
C17   C     C_3   0.463963 0.071335 0.746990 -0.486553
C18   C     C_R   0.426076 0.516545 0.070765 0.221109
C19   C     C_R   0.574155 0.492628 0.072339 -0.152504
C20   C     C_R   0.574165 0.492844 0.928576 -0.143445
C21   C     C_R   0.426076 0.516269 0.928218 0.195875
C22   C     C_3   0.349259 0.434745 0.921940 -0.503426
C23   C     C_R   0.504390 0.739626 0.499591 0.877139
C24   C     C_3   0.349178 0.435027 0.075864 -0.500833
C25   C     C_R   0.662114 0.499453 0.500286 0.896785
C26   C     C_3   0.972155 0.410471 0.585156 -0.189129
C27   C     C_3   0.027703 0.387503 0.458097 -0.187598
C28   C     C_1   0.248964 0.499951 0.498891 -0.202439
C29   C     C_1   0.751060 0.499829 0.500872 -0.196723
C30   C     C_3   0.028382 0.522804 0.624250 0.153479
H1    H     H_    0.052598 0.295774 0.423648 0.135656
H2    H     H_    0.531319 0.894133 0.781086 0.152797
H3    H     H_    0.405943 0.112252 0.793291 0.192693
H4    H     H_    0.524492 0.115440 0.780996 0.196190
H5    H     H_    0.633881 0.484366 0.126341 0.152515
H6    H     H_    0.633914 0.485098 0.875295 0.154977
H7    H     H_    0.293462 0.483906 0.877132 0.200464
H8    H     H_    0.362992 0.341463 0.877371 0.210297
H9    H     H_    0.293337 0.484444 0.119445 0.205555
H10   H     H_    0.362762 0.341848 0.121079 0.214316
H11   H     H_    0.947470 0.338018 0.655320 0.126487
H12   H     H_    0.944716 0.457923 0.271117 0.135912
H13   H     H_    0.052280 0.661798 0.344363 0.141580
H14   H     H_    0.947143 0.704819 0.575750 0.125821
H15   H     H_    0.574752 0.121660 0.314600 0.161221
N1    N     N_R   0.499430 0.499140 0.142800 -0.106517
N2    N     N_R   0.499430 0.499180 0.857150 -0.107431
O1    O     O_R   0.500010 0.316790 0.614690 -0.615621
O2    O     O_R   0.500000 0.316760 0.385350 -0.621616
O3    O     O_R   0.376780 0.500010 0.614650 -0.615695
O4    O     O_R   0.376770 0.499970 0.385310 -0.613947
O5    O     O_R   0.500000 0.683240 0.614650 -0.627120
O6    O     O_R   0.499990 0.683210 0.385310 -0.619425
O7    O     O_R   0.623230 0.500030 0.614690 -0.627499
O8    O     O_R   0.623220 0.499990 0.385350 -0.622033
Zn1   Zn    Zn3+2 0.500010 0.500020 0.653130 0.929431
Zn2   Zn    Zn3+2 0.499990 0.499980 0.346870 0.935212
C31   C     C_3   0.065111 0.548004 0.765309 -0.442475
C32   C     C_3   0.994667 0.572200 0.868970 -0.334709
C33   C     C_3   0.032046 0.598733 0.009157 -0.899810
H16   H     H_    0.068739 0.516683 0.046307 0.263307
H17   H     H_    0.074603 0.681533 0.005454 0.265915
H18   H     H_    0.979729 0.618261 0.081516 0.245719
H19   H     H_    0.955859 0.653918 0.836550 0.218912
H20   H     H_    0.952293 0.489275 0.875459 0.218185
H21   H     H_    0.103842 0.466072 0.797274 0.203045
H22   H     H_    0.107416 0.630713 0.759106 0.207283
C34   C     C_3   0.606511 0.878695 0.286346 -0.394843
C35   C     C_3   0.688090 0.827175 0.352065 -0.319961
C36   C     C_3   0.744851 0.763223 0.247725 -0.882133
H23   H     H_    0.803424 0.727777 0.298224 0.251012
H24   H     H_    0.710900 0.683102 0.200793 0.265652
H25   H     H_    0.763525 0.830406 0.167307 0.252168
H26   H     H_    0.724098 0.905191 0.399698 0.211718
H27   H     H_    0.672381 0.758811 0.432632 0.212394
H28   H     H_    0.572559 0.805650 0.227778 0.227511
H29   H     H_    0.625720 0.948932 0.209109 0.180845
C37   C     C_3   0.393970 0.863880 0.821885 -0.354869
C38   C     C_3   0.305340 0.882706 0.757812 -0.303403
C39   C     C_3   0.236727 0.819775 0.842893 -0.931022
H30   H     H_    0.248482 0.717537 0.848887 0.262477
H31   H     H_    0.236044 0.859414 0.946976 0.263212
H32   H     H_    0.173435 0.836006 0.795516 0.249002
H33   H     H_    0.290113 0.983746 0.749613 0.216513
H34   H     H_    0.303901 0.841317 0.654448 0.219712
H35   H     H_    0.407866 0.762214 0.824829 0.214465
H36   H     H_    0.393363 0.897447 0.928578 0.194271

loop_
_geom_bond_atom_site_label_1
_geom_bond_atom_site_label_2
_ccdc_geom_bond_type
C37   H36   S    
C18   C21   A    
C2    C7    S    
C4    C8    S    
C19   N1    A    
C32   H19   S    
C12   C28   S    
C33   H18   S    
C18   C24   S    
C8    C29   T    
C5    C6    S    
C15   C16   S    
C22   H8    S    
C24   H9    S    
O2    Zn2   S    
C33   H17   S    
C31   H21   S    
C19   C20   A    
C34   C35   S    
C36   H23   S    
O4    Zn2   S    
C9    C10   A    
C37   H35   S    
C5    H13   S    
C32   C33   S    
C21   C22   S    
C17   H3    S    
C39   H32   S    
C18   N1    A    
C23   O6    A    
C25   C29   S    
O7    Zn1   S    
C3    H14   S    
C27   H1    S    
C25   O7    A    
C39   H31   S    
O6    Zn2   S    
C37   C38   S    
C16   C17   S    
C31   C32   S    
C22   H7    S    
O3    Zn1   S    
C7    C28   T    
C33   H16   S    
C14   C23   S    
C3    C30   S    
C4    C26   S    
C6    C27   S    
C36   H25   S    
C26   C27   S    
C35   H26   S    
C2    C27   S    
C4    C6    S    
C26   C30   S    
O8    Zn2   S    
N1    Zn2   S    
C22   C24   S    
C11   H15   S    
C2    C5    S    
C16   H2    S    
C17   H4    S    
C3    C4    S    
C38   H34   S    
C12   O4    A    
C9    C17   S    
C34   H29   S    
O1    Zn1   S    
C1    C10   S    
C25   O8    A    
C39   H30   S    
C3    C5    S    
C12   O3    A    
C1    O1    A    
C34   H28   S    
C2    C30   S    
C9    C15   A    
C19   H5    S    
C32   H20   S    
C11   C13   A    
C23   O5    A    
C38   H33   S    
C30   C31   S    
C24   H10   S    
C35   H27   S    
C16   C37   S    
C35   C36   S    
C20   N2    A    
C10   C11   A    
C38   C39   S    
C20   H6    S    
C31   H22   S    
C6    H12   S    
C14   C15   A    
C36   H24   S    
C13   C14   A    
C1    O2    A    
O5    Zn1   S    
C26   H11   S    
N2    Zn1   S    
C21   N2    A    
C13   C34   S    
