data_mof_unit_56826.cif
_audit_creation_date              2013-03-05T15:52:54-0500
_audit_creation_method            fapswitch 2.2
_symmetry_space_group_name_H-M    P1
_symmetry_Int_Tables_number       1
_space_group_crystal_system       triclinic
_cell_length_a                    14.946381
_cell_length_b                    10.733013
_cell_length_c                    10.016479
_cell_angle_alpha                 90.975227
_cell_angle_beta                  89.625376
_cell_angle_gamma                 92.698913
_cell_volume                      1604.79924128

loop_
_atom_site_label
_atom_site_type_symbol
_atom_site_description
_atom_site_fract_x
_atom_site_fract_y
_atom_site_fract_z
_atom_type_partial_charge
O1    O     O_R   0.500000 0.316780 0.614690 -0.657241
O2    O     O_R   0.499990 0.316750 0.385360 -0.603114
C1    C     C_R   0.505219 0.260917 0.498797 0.918449
O3    O     O_R   0.367850 0.499980 0.614680 -0.649126
O4    O     O_R   0.367840 0.499960 0.385350 -0.649120
C2    C     C_R   0.327271 0.491925 0.499714 0.893742
Zn1   Zn    Zn3+2 0.500010 0.500020 0.653130 0.949216
Zn2   Zn    Zn3+2 0.499990 0.499980 0.346870 1.059359
O5    O     O_R   0.500010 0.683250 0.614640 -0.660158
O6    O     O_R   0.500000 0.683220 0.385310 -0.573813
O7    O     O_R   0.632160 0.500040 0.614650 -0.665053
O8    O     O_R   0.632150 0.500020 0.385320 -0.524431
C3    C     C_R   0.492023 0.739166 0.502747 0.919421
C4    C     C_R   0.672507 0.501493 0.499190 0.993172
C5    C     C_R   0.819850 0.609360 0.487359 0.244739
C6    C     C_R   0.767977 0.497261 0.493648 -0.158946
C7    C     C_R   0.806353 0.380792 0.483164 -0.068547
C8    C     C_R   0.899711 0.376826 0.481531 0.027028
C9    C     C_R   0.952741 0.488768 0.471044 0.062684
C10   C     C_R   0.912013 0.604472 0.459109 -0.087454
C11   C     C_R   0.940936 0.262795 0.482294 -0.214421
C12   C     C_R   0.033125 0.257198 0.481472 0.330672
C13   C     C_R   0.087850 0.368844 0.484982 -0.078412
C14   C     C_R   0.046404 0.484817 0.471105 0.012391
C15   C     C_R   0.098524 0.596960 0.456030 0.010001
C16   C     C_R   0.058196 0.707950 0.421352 0.311228
C17   C     C_R   0.964076 0.710478 0.416411 -0.139651
C18   C     C_R   0.181904 0.369916 0.500164 0.169074
C19   C     C_R   0.231197 0.484726 0.495435 -0.190247
C20   C     C_R   0.190817 0.594584 0.468307 -0.198198
H1    H     H_    0.902174 0.175116 0.480633 0.192438
H2    H     H_    0.233311 0.678120 0.456470 0.174368
H3    H     H_    0.435398 0.112602 0.312500 0.207272
C21   C     C_R   0.595197 0.126959 0.707372 -0.172892
H4    H     H_    0.627938 0.217422 0.691061 0.157750
C22   C     C_R   0.604983 0.074304 0.831966 -0.123156
H5    H     H_    0.643560 0.125692 0.907583 0.194439
C23   C     C_R   0.559013 0.961771 0.861486 0.362392
C24   C     C_R   0.513528 0.895622 0.758284 -0.217924
H6    H     H_    0.474265 0.813040 0.785462 0.202830
C25   C     C_R   0.512137 0.942104 0.626397 0.101153
C26   C     C_R   0.540786 0.066167 0.608667 0.111396
C27   C     C_R   0.509235 0.127619 0.496704 -0.098160
C28   C     C_R   0.463080 0.062511 0.394542 -0.023962
C29   C     C_R   0.447282 0.934718 0.401031 -0.065350
C30   C     C_R   0.479536 0.872599 0.512531 -0.191891
C31   C     C_R   0.358251 0.380887 0.137807 -0.190619
H7    H     H_    0.365839 0.346392 0.236501 0.213707
C32   C     C_R   0.275111 0.364460 0.075465 -0.026963
C33   C     C_R   0.271662 0.375955 0.935875 -0.100063
C34   C     C_R   0.353475 0.386361 0.865933 -0.129900
C35   C     C_R   0.428343 0.445324 0.929280 0.146747
C36   C     C_R   0.429720 0.443156 0.071983 0.099449
N1    N     N_R   0.499150 0.498800 0.142780 -0.183045
C37   C     C_R   0.569559 0.552370 0.072169 0.388870
C38   C     C_R   0.568779 0.555088 0.928665 -0.126210
N2    N     N_R   0.499120 0.498720 0.857170 -0.185024
N3    N     N_R   0.781234 0.725810 0.524077 0.164846
O9    O     O_R   0.707059 0.758751 0.470627 -0.381468
O10   O     O_R   0.820681 0.799502 0.612330 -0.334207
N4    N     N_R   0.556486 0.916327 0.995829 0.226342
O11   O     O_R   0.601703 0.975051 0.090145 -0.314303
O12   O     O_R   0.504143 0.820798 0.026858 -0.400982
C39   C     C_2   0.388745 0.870323 0.298958 0.635670
H8    H     H_    0.362573 0.775609 0.313681 0.039666
O13   O     O_2   0.366425 0.923878 0.198712 -0.475296
N5    N     N_R   0.643943 0.608510 0.143477 0.243866
O14   O     O_R   0.719047 0.552172 0.148315 -0.326471
O15   O     O_R   0.638664 0.719007 0.197134 -0.269534
C40   C     C_2   0.195505 0.334778 0.158996 0.546898
H9    H     H_    0.201753 0.276157 0.244354 0.126878
O16   O     O_2   0.123689 0.379926 0.137127 -0.510720
C41   C     C_2   0.188018 0.354346 0.858753 0.579288
H10   H     H_    0.179030 0.406553 0.768720 0.036699
O17   O     O_2   0.130600 0.275799 0.891307 -0.447649
C42   C     C_2   0.370528 0.273925 0.787297 0.567259
H11   H     H_    0.350461 0.266653 0.685150 0.132190
O18   O     O_2   0.406088 0.186529 0.838397 -0.543869
C43   C     C_2   0.749070 0.263856 0.474679 0.370147
H12   H     H_    0.757799 0.189613 0.544858 0.083298
O19   O     O_2   0.694581 0.247994 0.385125 -0.514055
C44   C     C_2   0.639821 0.627851 0.856516 0.553995
H13   H     H_    0.623450 0.679675 0.769369 0.114715
O20   O     O_2   0.717761 0.630694 0.892423 -0.482533
N6    N     N_R   0.068067 0.136057 0.468977 0.280547
O21   O     O_R   0.109258 0.104540 0.359656 -0.257976
O22   O     O_R   0.042342 0.050349 0.553178 -0.249341
N7    N     N_R   0.227372 0.257088 0.522381 0.174435
O23   O     O_R   0.205209 0.186643 0.622944 -0.342695
O24   O     O_R   0.293662 0.226745 0.445653 -0.468555
N8    N     N_R   0.113115 0.814285 0.381546 0.245115
O25   O     O_R   0.162339 0.875695 0.469389 -0.294870
O26   O     O_R   0.125940 0.835439 0.255202 -0.287456
C45   C     C_2   0.919872 0.814596 0.349988 0.622235
H14   H     H_    0.854572 0.797861 0.304735 0.115716
O27   O     O_2   0.955107 0.919058 0.343500 -0.458724

loop_
_geom_bond_atom_site_label_1
_geom_bond_atom_site_label_2
_geom_bond_distance
_ccdc_geom_bond_type
C37   C38   1.438334 A    
C8    C11   1.396078 A    
C41   H10   1.082211 S    
C9    C10   1.415707 A    
C21   C26   1.415332 A    
C31   C32   1.396764 A    
C36   N1    1.368680 A    
C35   C36   1.430269 A    
Zn1   O7    2.009935 S    
C11   H1    1.081551 S    
C1    C27   1.434556 S    
C16   C17   1.409505 A    
C22   H5    1.082535 S    
C42   O18   1.221151 D    
C8    C9    1.412912 A    
O4    C2    1.294876 A    
O7    C4    1.300775 A    
N3    O10   1.301429 A    
C5    C6    1.402411 A    
C7    C43   1.487136 S    
C38   N2    1.377880 A    
C21   H4    1.080968 S    
C25   C26   1.393317 A    
C12   N6    1.427067 S    
N4    O12   1.300792 A    
O5    C3    1.289165 A    
C6    C7    1.401764 A    
C18   N7    1.437528 S    
C25   C30   1.427878 A    
C40   H9    1.077252 S    
C31   C36   1.400358 A    
C23   N4    1.438762 S    
C11   C12   1.381988 A    
C41   O17   1.221113 D    
C45   H14   1.084819 S    
O3    Zn1   2.014956 S    
C33   C34   1.406106 A    
N6    O22   1.301634 A    
C5    C10   1.407684 A    
N5    O14   1.301411 A    
C23   C24   1.404837 A    
C14   C15   1.412352 A    
O3    C2    1.304690 A    
C33   C41   1.480771 S    
Zn2   N1    2.044204 S    
C24   H6    1.077619 S    
C43   O19   1.219912 D    
C16   N8    1.434673 S    
N6    O21   1.300260 A    
C34   C35   1.408622 A    
O1    C1    1.301020 A    
C39   O13   1.221487 D    
C27   C28   1.396737 A    
C19   C20   1.381469 A    
N8    O26   1.300906 A    
C31   H7    1.070073 S    
Zn2   O8    2.014958 S    
C7    C8    1.398009 A    
C13   C18   1.414457 A    
C42   H11   1.068625 S    
C45   O27   1.218625 D    
O8    C4    1.293250 A    
C44   H13   1.078599 S    
C44   O20   1.220287 D    
C32   C40   1.475656 S    
C5    N3    1.442230 S    
C4    C6    1.430473 S    
N3    O9    1.300723 A    
C26   C27   1.405882 A    
N8    O25   1.301142 A    
C28   C29   1.383341 A    
C15   C20   1.387189 A    
Zn1   O5    2.010472 S    
N1    C37   1.373110 A    
C18   C19   1.406956 A    
O1    Zn1   1.997605 S    
H3    C28   1.084414 S    
O2    Zn2   2.010472 S    
N7    O24   1.300123 A    
O6    C3    1.318839 A    
O4    Zn2   2.009935 S    
C37   N5    1.428948 S    
C38   C44   1.480101 S    
C10   C17   1.418366 A    
C29   C39   1.489695 S    
C39   H8    1.084000 S    
C22   C23   1.396314 A    
O2    C1    1.298082 A    
C15   C16   1.409786 A    
C20   H2    1.081820 S    
C3    C30   1.454517 S    
C9    C14   1.402554 A    
C21   C22   1.390129 A    
N4    O11   1.301707 A    
C35   N2    1.384271 A    
C13   C14   1.425503 A    
C43   H12   1.084523 S    
C29   C30   1.409571 A    
C2    C19   1.435269 S    
N7    O23   1.301538 A    
C24   C25   1.420658 A    
Zn2   O6    1.997605 S    
C32   C33   1.407214 A    
C34   C42   1.461398 S    
C12   C13   1.418740 A    
C17   C45   1.492832 S    
C40   O16   1.220924 D    
N5    O15   1.299295 A    
Zn1   N2    2.044000 S    
