data_mof_unit_67228.cif
_audit_creation_date              2013-03-05T16:01:26-0500
_audit_creation_method            fapswitch 2.2
_symmetry_space_group_name_H-M    P1
_symmetry_Int_Tables_number       1
_space_group_crystal_system       triclinic
_cell_length_a                    20.217027
_cell_length_b                    20.48005
_cell_length_c                    8.926023
_cell_angle_alpha                 90.159237
_cell_angle_beta                  92.614765
_cell_angle_gamma                 89.983625
_cell_volume                      3691.91947341

loop_
_atom_site_label
_atom_site_type_symbol
_atom_site_description
_atom_site_fract_x
_atom_site_fract_y
_atom_site_fract_z
_atom_type_partial_charge
P1    P     P_3+3 0.136530 0.426510 0.931350 0.607889
P2    P     P_3+3 0.136530 0.573490 0.431350 0.610496
P3    P     P_3+3 0.636530 0.926510 0.931350 0.595508
P4    P     P_3+3 0.636530 0.073490 0.431350 0.555645
O1    O     O_2   0.130070 0.404060 0.104920 -0.373127
O2    O     O_2   0.130070 0.595940 0.604920 -0.279551
O3    O     O_2   0.630070 0.904060 0.104920 -0.364959
O4    O     O_2   0.630070 0.095940 0.604920 -0.311257
O5    O     O_3   0.075780 0.466370 0.861070 -0.284933
O6    O     O_3   0.075780 0.533630 0.361070 -0.338750
O7    O     O_3   0.575780 0.966370 0.861070 -0.277541
O8    O     O_3   0.575780 0.033630 0.361070 -0.344793
O9    O     O_3   0.022320 0.344950 0.359800 -0.366814
O10   O     O_3   0.022320 0.655050 0.859800 -0.272149
O11   O     O_3   0.522320 0.844950 0.359800 -0.383621
O12   O     O_3   0.522320 0.155050 0.859800 -0.267153
O13   O     O_2   0.139337 0.305097 0.267585 -0.276712
O14   O     O_2   0.137065 0.701023 0.779488 -0.269429
O15   O     O_2   0.636658 0.803943 0.271955 -0.273004
O16   O     O_2   0.633212 0.204506 0.767080 -0.242469
O17   O     O_3   0.211747 0.468788 0.916551 -0.623398
O18   O     O_3   0.193009 0.507621 0.438036 -0.568378
O19   O     O_3   0.712478 0.969291 0.939037 -0.659733
O20   O     O_3   0.708426 0.024265 0.428457 -0.604483
O21   O     O_3   0.059073 0.213117 0.340742 -0.461837
O22   O     O_3   0.053822 0.791339 0.838561 -0.497576
O23   O     O_3   0.557342 0.710344 0.334954 -0.478279
O24   O     O_3   0.552538 0.292290 0.854097 -0.488575
C1    C     C_3   0.007586 0.121399 0.452144 0.207761
C2    C     C_3   0.995898 0.884146 0.918785 0.181898
C3    C     C_3   0.484312 0.619597 0.356144 0.271940
C4    C     C_3   0.493367 0.377522 0.973922 0.093945
H1    H     H_    0.997572 0.092578 0.349235 0.171255
H2    H     H_    0.998630 0.907069 0.807275 0.148884
H3    H     H_    0.447950 0.599220 0.432779 0.195789
H4    H     H_    0.497219 0.412414 0.881767 0.210810
P5    P     P_3+3 0.863410 0.426100 0.379280 0.579589
P6    P     P_3+3 0.863410 0.573900 0.879280 0.581263
P7    P     P_3+3 0.363410 0.926100 0.379280 0.564698
P8    P     P_3+3 0.363410 0.073900 0.879280 0.584489
P9    P     P_3+3 0.913117 0.288887 0.914594 0.623707
P10   P     P_3+3 0.911481 0.708947 0.408209 0.667970
P11   P     P_3+3 0.417596 0.784920 0.904726 0.620753
P12   P     P_3+3 0.412057 0.210442 0.416916 0.679220
O25   O     O_2   0.869860 0.403670 0.205810 -0.333095
O26   O     O_2   0.869860 0.596330 0.705810 -0.338551
O27   O     O_2   0.369860 0.903670 0.205810 -0.319473
O28   O     O_2   0.369860 0.096330 0.705810 -0.330875
O29   O     O_3   0.977590 0.344880 0.951200 -0.303055
O30   O     O_3   0.977590 0.655120 0.451200 -0.372809
O31   O     O_3   0.477590 0.844880 0.951200 -0.336425
O32   O     O_3   0.477590 0.155120 0.451200 -0.360935
O33   O     O_2   0.859798 0.306866 0.026224 -0.315938
O34   O     O_2   0.856887 0.691678 0.517115 -0.256448
O35   O     O_2   0.362152 0.797195 0.015894 -0.261214
O36   O     O_2   0.358971 0.193416 0.529519 -0.259681
O37   O     O_3   0.789348 0.470868 0.374487 -0.592941
O38   O     O_3   0.788794 0.530132 0.875138 -0.596112
O39   O     O_3   0.288843 0.969491 0.376881 -0.630037
O40   O     O_3   0.289228 0.029624 0.875322 -0.610266
O41   O     O_3   0.941330 0.211808 0.981796 -0.531289
O42   O     O_3   0.930601 0.789953 0.460137 -0.452036
O43   O     O_3   0.449213 0.706826 0.960483 -0.536552
O44   O     O_3   0.438712 0.289249 0.475992 -0.458494
C5    C     C_3   0.984293 0.182169 0.880311 1.062556
C6    C     C_3   0.996668 0.810165 0.439011 1.023904
C7    C     C_3   0.516506 0.695435 0.923785 1.062327
C8    C     C_3   0.506089 0.302079 0.445184 1.024961
C9    C     C_3   0.017499 0.118920 0.951194 0.412620
C10   C     C_3   0.998877 0.887435 0.431074 0.477865
C11   C     C_3   0.527297 0.619332 0.884536 0.536674
C12   C     C_3   0.518776 0.378320 0.444771 0.524806
C13   C     C_3   0.791339 0.470294 0.800498 1.066931
C14   C     C_3   0.792984 0.530041 0.298085 1.059305
C15   C     C_3   0.293786 0.967038 0.813691 1.084360
C16   C     C_3   0.292374 0.030345 0.308203 1.057831
C17   C     C_3   0.720699 0.442792 0.791743 -0.023793
C18   C     C_3   0.722863 0.558623 0.286723 -0.040562
C19   C     C_3   0.224746 0.936559 0.819888 -0.053476
C20   C     C_3   0.221844 0.057273 0.297730 -0.045906
H5    H     H_    0.685090 0.481381 0.753365 0.159440
H6    H     H_    0.687626 0.520454 0.244756 0.160970
H7    H     H_    0.188636 0.967118 0.753871 0.156318
H8    H     H_    0.186972 0.018732 0.255154 0.142377
H9    H     H_    0.706585 0.427653 0.905147 0.100099
H10   H     H_    0.707597 0.573508 0.399595 0.118080
H11   H     H_    0.208884 0.936335 0.937351 0.088323
H12   H     H_    0.206412 0.071347 0.411057 0.127333
Ba1   Ba    Ba6+2 0.999980 0.452130 0.155200 1.795233
Ba2   Ba    Ba6+2 0.999980 0.547870 0.655200 1.786071
Ba3   Ba    Ba6+2 0.499980 0.952130 0.155200 1.764817
Ba4   Ba    Ba6+2 0.499980 0.047870 0.655200 1.768079
C21   C     C_3   0.228305 0.518268 0.020529 0.888939
C22   C     C_3   0.248010 0.506635 0.541864 0.908133
C23   C     C_3   0.714005 0.026850 0.024737 0.810132
C24   C     C_3   0.731863 0.991159 0.558715 0.841038
C25   C     C_3   0.305112 0.522277 0.030017 0.634302
C26   C     C_3   0.310956 0.523596 0.457731 0.517423
C27   C     C_3   0.786815 0.041684 0.077511 0.694391
C28   C     C_3   0.796314 0.025570 0.618926 0.715977
H13   H     H_    0.322382 0.530821 0.915489 0.081880
H14   H     H_    0.311514 0.493806 0.353958 0.156951
H15   H     H_    0.815859 0.054849 0.978535 0.033175
H16   H     H_    0.782953 0.070044 0.682858 0.006013
O45   O     O_3   0.924190 0.533610 0.949240 -0.362895
O46   O     O_3   0.924190 0.466390 0.449240 -0.360997
O47   O     O_3   0.424190 0.033610 0.949240 -0.358854
O48   O     O_3   0.424190 0.966390 0.449240 -0.369653
P13   P     P_3+3 0.083776 0.714344 0.894946 0.764519
P14   P     P_3+3 0.089349 0.291202 0.389129 0.679570
P15   P     P_3+3 0.584337 0.214013 0.893779 0.777919
P16   P     P_3+3 0.586136 0.788503 0.391601 0.625984
C29   C     C_3   0.002084 0.194884 0.418025 0.994805
C30   C     C_3   0.993134 0.809612 0.900061 0.937256
C31   C     C_3   0.494476 0.692528 0.388341 0.966759
C32   C     C_3   0.491184 0.306109 0.917958 0.950472
H17   H     H_    0.969615 0.105876 0.529892 0.195272
H18   H     H_    0.950186 0.902681 0.967747 0.184920
H19   H     H_    0.531594 0.592583 0.374551 0.186210
H20   H     H_    0.446676 0.390259 0.026789 0.173584
C33   C     C_R   0.237494 0.302186 0.002202 0.047472
C34   C     C_R   0.235695 0.700481 0.499642 0.047983
C35   C     C_R   0.739587 0.802748 0.998119 0.043083
C36   C     C_R   0.740337 0.196950 0.496380 0.008525
C37   C     C_R   0.149257 0.347883 0.823676 0.215138
C38   C     C_R   0.151716 0.650938 0.317929 0.077990
C39   C     C_R   0.650088 0.847774 0.823476 0.183616
C40   C     C_R   0.651032 0.151628 0.320875 0.165143
C41   C     C_R   0.118430 0.344759 0.678706 0.168170
C42   C     C_R   0.114505 0.658864 0.180389 0.118151
C43   C     C_R   0.614268 0.841467 0.684555 0.114358
C44   C     C_R   0.613866 0.159942 0.183543 0.115401
C45   C     C_R   0.132151 0.293650 0.579667 0.095373
C46   C     C_R   0.123854 0.713090 0.088248 0.251209
C47   C     C_R   0.631469 0.793801 0.578779 0.092674
C48   C     C_R   0.629813 0.208981 0.081439 0.215936
C49   C     C_R   0.176214 0.243605 0.625532 0.434764
C50   C     C_R   0.165543 0.764304 0.137525 0.427458
C51   C     C_R   0.681295 0.748017 0.616422 0.459843
C52   C     C_R   0.679311 0.254737 0.120348 0.390186
C53   C     C_R   0.211849 0.246833 0.766773 -0.091131
C54   C     C_R   0.206038 0.758084 0.271197 -0.084023
C55   C     C_R   0.716148 0.750008 0.758637 -0.063219
C56   C     C_R   0.715883 0.250747 0.259820 -0.064141
C57   C     C_R   0.199060 0.299367 0.865880 -0.082662
C58   C     C_R   0.197933 0.702252 0.363577 -0.121179
C59   C     C_R   0.701869 0.800897 0.861233 -0.125701
C60   C     C_R   0.702589 0.198742 0.359682 -0.167386
C61   C     C_R   0.802537 0.703537 0.935970 -0.031626
C62   C     C_R   0.802135 0.297130 0.438129 -0.058463
C63   C     C_R   0.299923 0.202277 0.943437 -0.026116
C64   C     C_R   0.297146 0.800768 0.442558 -0.031950
C65   C     C_R   0.789208 0.755302 0.037210 -0.081663
C66   C     C_R   0.789112 0.244995 0.537019 0.062557
C67   C     C_R   0.286850 0.254657 0.043836 -0.101346
C68   C     C_R   0.285896 0.747020 0.538486 0.036361
C69   C     C_R   0.851425 0.654230 0.978606 0.315511
C70   C     C_R   0.850386 0.346547 0.482830 0.309425
C71   C     C_R   0.349538 0.153455 0.984920 0.316851
C72   C     C_R   0.349647 0.846592 0.481642 0.301550
C73   C     C_R   0.886418 0.660235 0.116449 -0.469304
C74   C     C_R   0.883982 0.340644 0.623622 -0.489610
C75   C     C_R   0.383699 0.159384 0.124835 -0.434670
C76   C     C_R   0.387618 0.836894 0.615731 -0.492180
C77   C     C_R   0.870439 0.708120 0.219108 0.178190
C78   C     C_R   0.870520 0.289994 0.723104 0.136299
C79   C     C_R   0.368466 0.208245 0.227709 0.174519
C80   C     C_R   0.374799 0.785612 0.714156 0.130739
C81   C     C_R   0.823002 0.756121 0.180593 0.426875
C82   C     C_R   0.822439 0.242479 0.679516 0.464652
C83   C     C_R   0.320798 0.256153 0.188092 0.434478
C84   C     C_R   0.324499 0.739455 0.673466 0.479161
C85   C     C_R   0.765557 0.702379 0.798050 0.149813
C86   C     C_R   0.765213 0.298442 0.300282 0.101714
C87   C     C_R   0.261702 0.199675 0.807013 0.112297
C88   C     C_R   0.255741 0.805771 0.310959 0.073870
H21   H     H_    0.923734 0.624508 0.148942 0.191713
H22   H     H_    0.920707 0.376776 0.657574 0.187314
H23   H     H_    0.420784 0.123489 0.157499 0.196335
H24   H     H_    0.425674 0.871886 0.648154 0.203167
H25   H     H_    0.228396 0.341984 0.076211 0.124426
H26   H     H_    0.227772 0.661026 0.575067 0.206862
H27   H     H_    0.728922 0.840821 0.076015 0.157735
H28   H     H_    0.730796 0.158595 0.574270 0.174980
H29   H     H_    0.775008 0.663544 0.721306 0.133937
H30   H     H_    0.774366 0.337622 0.224739 0.144278
H31   H     H_    0.271649 0.160720 0.730705 0.135976
H32   H     H_    0.264141 0.845728 0.236127 0.135044
N1    N     N_R   0.941778 0.207131 0.324569 0.176038
O49   O     O_R   0.888996 0.172561 0.344137 -0.442218
O50   O     O_R   0.934384 0.263248 0.259277 -0.340793
N2    N     N_R   0.937056 0.791511 0.798419 0.181660
O51   O     O_R   0.882611 0.825439 0.798817 -0.409166
O52   O     O_R   0.933111 0.731919 0.749900 -0.317234
N3    N     N_R   0.439189 0.727513 0.312696 0.199761
O53   O     O_R   0.379234 0.705283 0.319700 -0.409556
O54   O     O_R   0.449939 0.773628 0.219201 -0.298114
N4    N     N_R   0.437796 0.296593 0.804226 0.184694
O55   O     O_R   0.399547 0.344351 0.758734 -0.387456
O56   O     O_R   0.421846 0.237369 0.766117 -0.338958
N5    N     N_R   0.715376 0.387940 0.687866 0.259292
O57   O     O_R   0.710230 0.399146 0.544926 -0.339166
O58   O     O_R   0.703954 0.329516 0.736258 -0.308659
N6    N     N_R   0.718903 0.613612 0.183664 0.258706
O59   O     O_R   0.705195 0.671547 0.232495 -0.270489
O60   O     O_R   0.712236 0.602151 0.040813 -0.333187
N7    N     N_R   0.223980 0.870143 0.761557 0.260325
O61   O     O_R   0.193339 0.856650 0.634274 -0.356536
O62   O     O_R   0.247362 0.822888 0.844608 -0.331883
N8    N     N_R   0.217590 0.112845 0.197087 0.270962
O63   O     O_R   0.210916 0.171318 0.250471 -0.265906
O64   O     O_R   0.209288 0.102981 0.053686 -0.331877
O65   O     O_3   0.204762 0.505203 0.161254 -0.759156
H33   H     H_    0.224906 0.463290 0.195273 0.325388
O66   O     O_3   0.239423 0.548036 0.664935 -0.726930
H34   H     H_    0.283048 0.564695 0.701977 0.325311
O67   O     O_3   0.676374 0.020380 0.148924 -0.738483
H35   H     H_    0.695630 0.982282 0.201900 0.389240
O68   O     O_3   0.685585 0.991240 0.668109 -0.768204
H36   H     H_    0.645908 0.969328 0.623546 0.314201
N9    N     N_R   0.199827 0.579429 0.964702 0.194700
O69   O     O_R   0.143458 0.578170 0.889725 -0.321596
O70   O     O_R   0.230704 0.634776 0.982351 -0.438770
N10   N     N_R   0.254603 0.439195 0.595477 0.191241
O71   O     O_R   0.290558 0.426330 0.716182 -0.385768
O72   O     O_R   0.239457 0.391360 0.504057 -0.435219
N11   N     N_R   0.686979 0.079585 0.933446 0.187480
O73   O     O_R   0.625933 0.076845 0.884667 -0.317102
O74   O     O_R   0.721049 0.131550 0.908879 -0.489635
N12   N     N_R   0.745754 0.923098 0.518411 0.237766
O75   O     O_R   0.766273 0.881876 0.620789 -0.344712
O76   O     O_R   0.724097 0.900252 0.389565 -0.388104
O77   O     O_3   0.333051 0.463607 0.083909 -0.727061
H37   H     H_    0.329219 0.431176 0.001234 0.333185
O78   O     O_3   0.310581 0.589338 0.415872 -0.677951
H38   H     H_    0.334418 0.614259 0.496913 0.368183
O79   O     O_3   0.815769 0.986877 0.148176 -0.612575
H39   H     H_    0.828572 0.956448 0.067782 0.321307
O80   O     O_3   0.835020 0.985662 0.715098 -0.606484
H40   H     H_    0.808080 0.973485 0.799746 0.307959
O81   O     O_3   0.326391 0.573011 0.126172 -0.627478
H41   H     H_    0.347852 0.606594 0.064845 0.376589
O82   O     O_3   0.368173 0.509479 0.546459 -0.661944
H42   H     H_    0.374862 0.461724 0.537731 0.389579
O83   O     O_3   0.788071 0.093442 0.181164 -0.670194
H43   H     H_    0.802472 0.133324 0.128861 0.351589
O84   O     O_3   0.835140 0.042860 0.498989 -0.593716
H44   H     H_    0.820904 0.087100 0.466942 0.346463
O85   O     O_3   0.998297 0.227986 0.554251 -0.794216
H45   H     H_    0.975293 0.269821 0.536594 0.308709
O86   O     O_3   0.984791 0.780407 0.038804 -0.747467
H46   H     H_    0.940137 0.792760 0.069707 0.298344
O87   O     O_3   0.492919 0.701970 0.542352 -0.785277
H47   H     H_    0.481319 0.748371 0.558251 0.311509
O88   O     O_3   0.479267 0.265394 0.038737 -0.742507
H48   H     H_    0.437850 0.281579 0.080005 0.280019
N13   N     N_R   0.059620 0.085394 0.843003 0.244493
O89   O     O_R   0.116701 0.110383 0.813388 -0.386995
O90   O     O_R   0.050422 0.024386 0.808320 -0.301462
N14   N     N_R   0.974212 0.910607 0.284006 0.270671
O91   O     O_R   0.993621 0.967424 0.238099 -0.253404
O92   O     O_R   0.918066 0.888367 0.229297 -0.417083
N15   N     N_R   0.573360 0.612041 0.762575 0.219915
O93   O     O_R   0.635538 0.625418 0.789544 -0.445366
O94   O     O_R   0.557527 0.576233 0.645936 -0.318747
N16   N     N_R   0.581752 0.395689 0.377833 0.275269
O95   O     O_R   0.622665 0.351914 0.331945 -0.421106
O96   O     O_R   0.599468 0.456716 0.373638 -0.300033
O97   O     O_3   0.076708 0.394391 0.631650 -0.701480
H49   H     H_    0.093102 0.410982 0.535954 0.349569
O98   O     O_3   0.066171 0.615058 0.135163 -0.706769
H50   H     H_    0.088375 0.572530 0.123052 0.371161
O99   O     O_3   0.559461 0.880049 0.657595 -0.721066
H51   H     H_    0.565471 0.902836 0.561894 0.328282
O100  O     O_3   0.556476 0.125302 0.155649 -0.713516
H52   H     H_    0.569626 0.082296 0.116724 0.382998
O101  O     O_3   0.183506 0.192140 0.528826 -0.631706
H53   H     H_    0.186466 0.151587 0.588396 0.343934
O102  O     O_3   0.163657 0.820568 0.053956 -0.674524
H54   H     H_    0.170852 0.858365 0.121739 0.341721
O103  O     O_3   0.694112 0.701014 0.511854 -0.641349
H55   H     H_    0.694475 0.658238 0.562523 0.329336
O104  O     O_3   0.689603 0.304253 0.020741 -0.674520
H56   H     H_    0.690430 0.345758 0.077557 0.321151
O105  O     O_3   0.809110 0.801660 0.288324 -0.597368
H57   H     H_    0.806423 0.844697 0.239033 0.368060
O106  O     O_3   0.806480 0.192435 0.773301 -0.740004
H58   H     H_    0.819585 0.203247 0.878118 0.361340
O107  O     O_3   0.305855 0.300935 0.297214 -0.620922
H59   H     H_    0.299093 0.344094 0.250095 0.343560
O108  O     O_3   0.308717 0.688000 0.765201 -0.712664
H60   H     H_    0.336553 0.687940 0.858275 0.377265
O109  O     O_3   0.070657 0.106545 0.513417 -0.667961
H61   H     H_    0.075672 0.058472 0.506190 0.392370
O110  O     O_3   0.050678 0.902415 0.011294 -0.605578
H62   H     H_    0.087097 0.912941 0.944569 0.373998
O111  O     O_3   0.459957 0.611542 0.207778 -0.694619
H63   H     H_    0.453795 0.564397 0.189556 0.413615
O112  O     O_3   0.546282 0.386545 0.077805 -0.615761
H64   H     H_    0.586376 0.392728 0.019445 0.377315
O113  O     O_3   0.033106 0.227944 0.843966 -0.719174
H65   H     H_    0.062321 0.207928 0.771486 0.343523
O114  O     O_3   0.036563 0.788106 0.561079 -0.739870
H66   H     H_    0.083631 0.790438 0.534280 0.339982
O115  O     O_3   0.558227 0.715116 0.045387 -0.678551
H67   H     H_    0.557191 0.763414 0.050721 0.363308
O116  O     O_3   0.546925 0.271525 0.556140 -0.708682
H68   H     H_    0.593542 0.275671 0.527624 0.337962
O117  O     O_3   0.947107 0.163680 0.750960 -0.789594
H69   H     H_    0.911075 0.134420 0.780564 0.338064
O118  O     O_3   0.020649 0.785524 0.305209 -0.775698
H70   H     H_    0.039099 0.741489 0.324546 0.301215
O119  O     O_3   0.532387 0.732756 0.800041 -0.798592
H71   H     H_    0.580986 0.732084 0.797868 0.283052
O120  O     O_3   0.520194 0.278919 0.302577 -0.758166
H72   H     H_    0.538357 0.234567 0.313508 0.325803
N17   N     N_R   0.060581 0.135645 0.081376 0.239226
O121  O     O_R   0.080303 0.088284 0.169169 -0.339062
O122  O     O_R   0.097718 0.187416 0.076558 -0.274345
N18   N     N_R   0.068095 0.908869 0.455604 0.212436
O123  O     O_R   0.110846 0.897475 0.354112 -0.386432
O124  O     O_R   0.088792 0.934295 0.582828 -0.364782
N19   N     N_R   0.555731 0.579536 0.009898 0.251485
O125  O     O_R   0.567210 0.518027 0.985486 -0.325810
O126  O     O_R   0.583742 0.605224 0.129514 -0.299154
N20   N     N_R   0.522484 0.403711 0.598675 0.201190
O127  O     O_R   0.575787 0.392702 0.681458 -0.362099
O128  O     O_R   0.485176 0.452117 0.636309 -0.291586
N21   N     N_R   0.964387 0.075238 0.000063 0.223960
O129  O     O_R   0.938307 0.030963 0.910911 -0.344634
O130  O     O_R   0.932663 0.090512 0.118370 -0.349484
N22   N     N_R   0.956882 0.918395 0.541530 0.219326
O131  O     O_R   0.896235 0.898538 0.550049 -0.205269
O132  O     O_R   0.968420 0.978912 0.578595 -0.294740
N23   N     N_R   0.462862 0.591114 0.834665 0.235879
O133  O     O_R   0.428794 0.616872 0.722866 -0.378885
O134  O     O_R   0.441886 0.537005 0.891760 -0.348066
N24   N     N_R   0.465243 0.411691 0.357470 0.243561
O135  O     O_R   0.417549 0.380127 0.287057 -0.410226
O136  O     O_R   0.467549 0.474469 0.341794 -0.339874
O137  O     O_3   0.813038 0.479754 0.656727 -0.740098
H73   H     H_    0.785330 0.515870 0.614178 0.325535
O138  O     O_3   0.814899 0.519104 0.155007 -0.743496
H74   H     H_    0.786490 0.483320 0.112994 0.322472
O139  O     O_3   0.310852 0.971484 0.664900 -0.768014
H75   H     H_    0.282858 0.007080 0.621163 0.324805
O140  O     O_3   0.315892 0.023521 0.164893 -0.751289
H76   H     H_    0.288919 0.987906 0.117975 0.323389
O141  O     O_3   0.832203 0.426169 0.881147 -0.742767
H77   H     H_    0.878290 0.433379 0.852430 0.340438
O142  O     O_3   0.834411 0.573887 0.378225 -0.743707
H78   H     H_    0.880197 0.566961 0.346752 0.337566
O143  O     O_3   0.339192 0.928385 0.897906 -0.707162
H79   H     H_    0.382241 0.929966 0.849398 0.338114
O144  O     O_3   0.332075 0.073187 0.395816 -0.736432
H80   H     H_    0.378154 0.069047 0.364091 0.340711

loop_
_geom_bond_atom_site_label_1
_geom_bond_atom_site_label_2
_geom_bond_distance
_ccdc_geom_bond_type
O10   P13   1.754974 S    
C27   H15   1.116571 S    
C45   C49   1.407187 A    
N5    O58   1.297577 A    
C54   C58   1.425465 A    
C8    O116  1.408047 S    
O108  H60   0.981966 S    
P9    O41   1.775006 S    
C48   C52   1.402562 A    
C19   H11   1.110345 S    
P11   O43   1.785798 S    
P11   C80   1.873008 S    
P12   O44   1.772898 S    
C47   C51   1.406111 A    
C13   O137  1.389126 S    
C20   N8    1.451997 S    
C43   O99   1.373405 S    
O20   C24   1.410659 S    
C2    C30   1.535882 S    
C23   C27   1.554711 S    
O98   H50   0.987664 S    
C1    H1    1.101470 S    
C28   H16   1.113225 S    
C66   C82   1.413005 A    
C28   O80   1.399813 S    
P8    O28   1.627257 D    
C9    N17   1.460072 S    
P2    Ba2   3.521180 S    
C61   C65   1.424729 A    
O10   Ba2   2.874110 S    
C35   H27   1.071679 S    
C3    O111  1.401006 S    
O30   Ba2   2.879518 S    
C64   C68   1.421172 A    
Ba1   O46   3.111922 S    
P2    O18   1.766503 S    
N20   O127  1.298568 A    
O4    Ba4   2.863446 S    
C63   C67   1.428227 A    
P4    O8    1.579808 S    
C33   C67   1.431409 A    
C53   C57   1.422112 A    
O83   H43   0.992225 S    
C42   C46   1.401730 A    
C34   C68   1.423141 A    
P7    Ba3   3.524025 S    
C4    O112  1.395379 S    
C2    O110  1.401222 S    
C88   H32   1.076169 S    
O24   P15   1.757995 S    
C77   C81   1.405562 A    
C6    O114  1.401483 S    
C51   O103  1.371833 S    
N19   O125  1.300430 A    
Ba3   O47   2.875879 S    
C76   C80   1.402899 A    
Ba2   O45   3.113373 S    
N23   O134  1.300272 A    
O42   C6    1.419391 S    
C79   C83   1.409530 A    
C26   H14   1.108213 S    
O66   H34   0.988195 S    
O22   C30   1.416610 S    
O16   P15   1.547224 D    
C18   H6    1.110504 S    
N11   O73   1.291037 A    
C31   O87   1.389485 S    
C8    C12   1.582470 S    
C12   N16   1.474919 S    
C49   C53   1.424605 A    
C4    C32   1.544174 S    
C16   O144  1.401773 S    
N12   O76   1.297885 A    
P8    O47   1.585249 S    
C41   C45   1.403970 A    
C83   O107  1.379437 S    
C81   O105  1.375825 S    
C55   C85   1.429114 A    
C73   H21   1.081462 S    
P7    O27   1.624805 D    
N15   O94   1.299871 A    
C1    C29   1.539310 S    
P6    C69   1.887478 S    
O5    Ba2   2.875726 S    
P6    Ba2   3.522104 S    
C11   N19   1.480866 S    
C10   N18   1.473356 S    
C20   H12   1.109408 S    
C28   O84   1.402356 S    
C5    O117  1.400068 S    
C6    C10   1.585010 S    
O17   C21   1.402480 S    
C19   N7    1.454929 S    
C30   O86   1.393960 S    
C23   O67   1.379471 S    
O19   C23   1.403063 S    
C34   C58   1.405286 A    
C39   C43   1.412788 A    
P3    O7    1.581250 S    
O11   Ba3   2.881656 S    
N23   O133  1.299426 A    
O41   C5    1.418415 S    
C56   C86   1.430003 A    
C38   C42   1.419945 A    
N4    O56   1.295685 A    
C15   C19   1.532553 S    
O1    Ba1   2.862071 S    
O12   P15   1.756797 S    
N18   O124  1.299745 A    
O23   C31   1.425501 S    
O37   C14   1.395818 S    
O141  H77   0.988793 S    
P8    O40   1.751705 S    
P7    C72   1.896161 S    
P8    C71   1.907283 S    
C82   O106  1.372918 S    
O14   P13   1.548157 D    
C49   O101  1.372677 S    
O85   H45   0.984398 S    
N9    O69   1.295226 A    
O44   C8    1.426496 S    
C36   H28   1.073770 S    
C10   N22   1.472238 S    
O87   H47   0.990121 S    
P15   C48   1.876728 S    
C29   O85   1.395664 S    
O81   H41   0.992415 S    
N1    O50   1.295572 A    
C51   C55   1.423972 A    
Ba4   O48   2.870455 S    
O6    Ba1   2.870303 S    
O24   C32   1.416703 S    
O77   H37   0.991880 S    
P10   O42   1.759640 S    
P10   C77   1.846587 S    
P12   O32   1.759759 S    
C17   H9    1.109207 S    
C74   C78   1.402125 A    
O79   H39   0.992306 S    
C22   N10   1.467022 S    
O18   C22   1.414859 S    
N1    O49   1.299455 A    
C3    C31   1.532371 S    
C23   N11   1.446692 S    
P7    O48   1.583807 S    
C2    H2    1.105342 S    
N22   O131  1.297497 A    
C1    O109  1.398075 S    
Ba3   Ba4   4.869743 S    
C2    H18   1.106756 S    
C5    O113  1.410481 S    
O67   H35   0.984384 S    
O2    Ba2   2.863446 S    
C68   C84   1.414180 A    
N3    O53   1.299129 A    
N19   O126  1.295888 A    
C63   C71   1.452779 A    
O109  H61   0.991942 S    
C37   C41   1.411721 A    
C44   C48   1.405449 A    
P9    C78   1.878712 S    
O107  H59   0.986707 S    
O8    Ba3   2.870303 S    
O22   P13   1.755726 S    
P9    O33   1.544709 D    
N16   O96   1.301348 A    
P10   O30   1.761681 S    
P11   O35   1.550563 D    
N11   O74   1.292526 A    
C78   C82   1.416736 A    
N24   O136  1.294761 A    
C75   H23   1.080956 S    
C21   C25   1.553445 S    
C9    N13   1.483321 S    
C7    O115  1.402235 S    
O144  H80   0.989502 S    
C74   H22   1.081293 S    
C13   C17   1.533917 S    
O11   P16   1.746159 S    
C16   C20   1.527657 S    
C35   C59   1.410868 A    
N14   O91   1.301328 A    
C17   N5    1.455497 S    
C4    H4    1.096578 S    
N18   O123  1.300881 A    
N8    O64   1.298606 A    
N5    O57   1.296493 A    
P6    O45   1.585249 S    
C37   C57   1.452520 A    
C42   O98   1.373037 S    
C24   C28   1.554926 S    
C71   C75   1.404266 A    
P5    O37   1.754419 S    
P6    O26   1.627257 D    
C87   H31   1.072506 S    
N6    O59   1.297130 A    
O28   Ba4   2.865969 S    
Ba1   O45   2.875879 S    
O104  H56   0.988355 S    
N7    O62   1.296677 A    
N20   O128  1.298206 A    
C52   O104  1.372651 S    
O39   C16   1.393711 S    
N3    O54   1.287132 A    
O80   H40   0.984061 S    
C20   H8    1.112975 S    
N10   O71   1.299475 A    
O143  H79   0.990182 S    
N15   O93   1.298247 A    
O65   H33   0.992399 S    
C36   C60   1.409901 A    
C22   O66   1.402849 S    
P1    O1    1.628251 D    
C72   C76   1.406659 A    
P3    O3    1.628251 D    
P4    O20   1.769804 S    
C22   C26   1.546925 S    
C12   N20   1.466251 S    
O82   H42   0.990641 S    
P3    Ba3   3.519292 S    
N21   O129  1.300553 A    
P9    O29   1.755184 S    
N17   O122  1.301300 A    
O31   Ba3   2.871985 S    
P6    O38   1.753836 S    
C14   O142  1.400599 S    
O142  H78   0.989614 S    
O78   H38   0.991107 S    
C27   O83   1.404524 S    
O25   Ba1   2.867355 S    
C76   H24   1.080794 S    
C56   C60   1.424229 A    
C10   N14   1.463126 S    
O120  H72   0.983083 S    
O97   H49   0.991190 S    
C11   N15   1.471774 S    
C63   C87   1.413010 A    
P4    C40   1.911715 S    
C21   O65   1.390127 S    
N7    O61   1.298079 A    
P1    O5    1.581250 S    
Ba2   O46   2.870455 S    
O86   H46   0.988587 S    
C50   C54   1.421887 A    
O110  H62   0.992038 S    
C40   C60   1.450255 A    
C54   C88   1.433728 A    
O137  H73   0.993513 S    
C44   O100  1.372817 S    
C12   N24   1.473508 S    
O116  H68   0.991102 S    
C8    O120  1.398670 S    
P12   C79   1.869418 S    
O112  H64   0.991665 S    
O105  H57   0.986582 S    
O21   C29   1.420190 S    
C32   N4    1.460334 S    
P12   O36   1.544094 D    
O106  H58   0.985315 S    
C13   O141  1.402257 S    
O84   H44   0.989627 S    
P7    O39   1.749043 S    
O15   P16   1.544473 D    
C3    H19   1.110269 S    
C26   O82   1.402291 S    
O12   Ba4   2.874110 S    
C73   C77   1.388382 A    
C3    H3    1.109127 S    
O32   Ba4   2.879518 S    
C69   C73   1.396158 A    
O68   H36   0.986494 S    
C33   H25   1.068913 S    
C35   C65   1.428894 A    
C31   N3    1.466973 S    
C62   C70   1.448401 A    
P13   C46   1.872687 S    
O27   Ba3   2.867355 S    
Ba3   O48   3.111922 S    
O113  H65   0.984224 S    
C52   C56   1.421187 A    
C18   N6    1.455983 S    
O26   Ba2   2.865969 S    
C24   O68   1.382814 S    
C29   N1    1.467469 S    
O40   C15   1.398089 S    
P5    Ba1   3.524025 S    
C85   H29   1.071053 S    
O102  H54   0.987861 S    
P10   O34   1.545421 D    
C19   H7    1.111050 S    
P11   O31   1.761606 S    
O119  H71   0.983709 S    
C5    C9    1.579311 S    
C7    C11   1.613475 S    
N12   O75   1.299772 A    
C25   O81   1.401028 S    
C27   O79   1.403676 S    
C80   C84   1.422878 A    
O115  H67   0.990416 S    
C14   C18   1.532781 S    
C65   C81   1.423083 A    
Ba1   Ba2   4.869743 S    
C61   C69   1.452135 A    
P4    Ba4   3.521180 S    
C32   O88   1.394414 S    
O138  H74   0.993292 S    
C64   C72   1.447064 A    
P1    O17   1.760488 S    
C36   C66   1.427612 A    
C50   O102  1.373972 S    
O111  H63   0.985677 S    
P3    O19   1.766563 S    
P4    O4    1.625796 D    
O13   P14   1.543124 D    
C38   C58   1.451526 A    
O117  H69   0.989070 S    
C55   C59   1.423655 A    
P1    C37   1.896490 S    
N13   O89   1.300940 A    
C43   C47   1.410660 A    
P3    C39   1.902024 S    
O7    Ba4   2.875726 S    
C26   O78   1.398196 S    
C7    O119  1.394444 S    
N4    O55   1.301004 A    
C17   H5    1.113047 S    
C18   H10   1.108983 S    
O3    Ba3   2.862071 S    
O114  H66   0.992912 S    
P2    O2    1.625796 D    
C4    H20   1.105248 S    
C40   C44   1.418898 A    
O43   C7    1.432711 S    
C30   N2    1.466412 S    
C15   O139  1.390579 S    
C16   O140  1.391535 S    
N14   O92   1.297260 A    
O118  H70   0.988444 S    
O103  H55   0.986892 S    
C1    H17   1.105423 S    
N13   O90   1.297783 A    
P5    C70   1.899719 S    
C75   C79   1.399958 A    
O9    P14   1.756404 S    
Ba4   O47   3.113373 S    
C34   H26   1.069946 S    
C25   O77   1.404379 S    
C11   N23   1.474869 S    
O99   H51   0.986890 S    
N21   O130  1.297771 A    
P8    Ba4   3.522104 S    
O21   P14   1.758178 S    
P2    C38   1.916413 S    
C62   C86   1.410051 A    
O100  H52   0.986771 S    
N6    O60   1.296841 A    
O23   P16   1.768042 S    
N24   O135  1.298239 A    
C24   N12   1.468818 S    
C33   C57   1.414603 A    
P16   C47   1.871502 S    
O88   H48   0.986923 S    
P2    O6    1.579808 S    
C15   O143  1.405099 S    
P1    Ba1   3.519292 S    
O9    Ba1   2.881656 S    
O29   Ba1   2.871985 S    
N10   O72   1.300891 A    
C46   C50   1.402865 A    
C6    O118  1.401952 S    
C9    N21   1.479546 S    
C84   O108  1.382608 S    
C14   O138  1.388330 S    
N2    O51   1.301668 A    
P5    O46   1.583807 S    
N9    O70   1.299896 A    
O140  H76   0.991194 S    
C86   H30   1.071100 S    
C61   C85   1.410998 A    
N17   O121  1.299756 A    
C41   O97   1.375018 S    
N16   O95   1.297724 A    
C70   C74   1.406477 A    
C64   C88   1.414901 A    
C67   C83   1.431487 A    
N22   O132  1.300308 A    
N8    O63   1.296892 A    
C62   C66   1.419535 A    
C53   C87   1.430366 A    
P14   C45   1.873260 S    
C21   N9    1.457949 S    
O139  H75   0.992658 S    
O101  H53   0.987734 S    
P5    O25   1.624805 D    
C25   H13   1.109579 S    
O38   C13   1.395313 S    
C39   C59   1.449223 A    
N2    O52   1.295135 A    
