data_mof_unit_43841.cif
_audit_creation_date              2012-12-11T17:10:26-0500
_audit_creation_method            fapswitch 2.2
_symmetry_space_group_name_H-M    P1
_symmetry_Int_Tables_number       1
_space_group_crystal_system       triclinic
_cell_length_a                    14.901074
_cell_length_b                    15.190231
_cell_length_c                    14.963509
_cell_angle_alpha                 110.340216
_cell_angle_beta                  109.541687
_cell_angle_gamma                 109.456971
_cell_volume                      2576.97440889

loop_
_atom_site_label
_atom_site_type_symbol
_atom_type_description
_atom_site_fract_x
_atom_site_fract_y
_atom_site_fract_z
_atom_type_partial_charge
C1    C     C_R   0.184701 0.278863 0.252303 -0.119823
C2    C     C_R   0.472619 0.559391 0.245633 -0.051858
C3    C     C_R   0.527166 0.811114 0.596385 -0.042013
C4    C     C_R   0.596786 0.504624 0.803200 -0.242927
C5    C     C_R   0.728395 0.450269 0.413533 -0.129673
C6    C     C_R   0.479451 0.817238 0.505459 -0.013109
C7    C     C_R   0.833036 0.524774 0.508703 0.059195
C8    C     C_R   0.544436 0.537354 0.214842 0.033586
C9    C     C_R   0.803136 0.804478 0.869393 0.062392
C10   C     C_R   0.077642 0.651866 0.203029 -0.067693
C11   C     C_R   0.094012 0.657286 0.302911 -0.109593
C12   C     C_R   0.566843 0.563294 0.868127 -0.073578
C13   C     C_R   0.024792 0.567526 0.302369 0.101606
C14   C     C_R   0.940782 0.471579 0.200319 -0.189494
C15   C     C_R   0.926984 0.465510 0.100891 -0.086282
C16   C     C_R   0.461498 0.186783 0.407258 -0.150988
C17   C     C_R   0.994739 0.555874 0.102183 -0.132538
C18   C     C_R   0.935875 0.554186 0.413479 -0.232147
C19   C     C_R   0.938911 0.569284 0.512654 0.065636
C20   C     C_R   0.043062 0.631349 0.612031 0.019780
C21   C     C_R   0.138069 0.666457 0.606021 -0.218886
C22   C     C_R   0.131315 0.621360 0.503580 0.044398
C23   C     C_R   0.485791 0.177941 0.499144 0.067684
C24   C     C_R   0.031536 0.578987 0.407203 0.028553
C25   C     C_R   0.106202 0.756472 0.808940 -0.150053
C26   C     C_R   0.122852 0.774664 0.912879 -0.104463
C27   C     C_R   0.093869 0.687296 0.930439 -0.112715
C28   C     C_R   0.298047 0.604523 0.591088 -0.136969
C29   C     C_R   0.049052 0.581603 0.844331 -0.140760
C30   C     C_R   0.033173 0.563108 0.740450 -0.157759
C31   C     C_R   0.059735 0.650314 0.721612 0.095679
C32   C     C_R   0.648313 0.536323 0.022339 0.169343
C33   C     C_R   0.608862 0.595601 0.984556 0.042857
C34   C     C_R   0.208755 0.582268 0.499929 0.038180
C35   C     C_R   0.595497 0.672343 0.056356 -0.177016
C36   C     C_R   0.586455 0.662976 0.143343 -0.208566
C37   C     C_R   0.594947 0.579487 0.159503 0.031918
C38   C     C_R   0.641546 0.528318 0.108869 0.158170
C39   C     C_3   0.613894 0.411806 0.056418 -0.511600
C40   C     C_R   0.546786 0.279253 0.593088 -0.120878
C41   C     C_3   0.621411 0.420769 0.961861 -0.493999
C42   C     C_R   0.408222 0.936208 0.519970 0.055729
C43   C     C_R   0.487588 0.912251 0.508808 0.023348
C44   C     C_R   0.555073 0.964726 0.474747 -0.038786
C45   C     C_R   0.423738 0.716780 0.410579 -0.051042
C46   C     C_R   0.551094 0.052677 0.469393 -0.249291
C47   C     C_R   0.481845 0.084641 0.496840 0.049220
C48   C     C_R   0.404363 0.021633 0.512469 0.177372
C49   C     C_3   0.373373 0.052452 0.598943 -0.573707
C50   C     C_3   0.377856 0.957063 0.608399 -0.286017
C51   C     C_R   0.963153 0.065279 0.141817 0.040824
C52   C     C_R   0.204709 0.511835 0.408565 -0.159984
C53   C     C_R   0.067604 0.074108 0.174955 -0.007634
C54   C     C_R   0.068045 0.975141 0.139542 -0.157249
C55   C     C_R   0.974339 0.879474 0.045351 -0.202557
C56   C     C_R   0.816543 0.555065 0.597103 -0.126265
C57   C     C_R   0.880264 0.882889 0.988101 0.058597
C58   C     C_R   0.872260 0.971945 0.046271 0.121095
C59   C     C_3   0.818993 0.031539 0.013513 -0.578216
C60   C     C_3   0.914306 0.133899 0.122063 0.396168
C61   C     C_R   0.500617 0.589479 0.803590 0.517080
C62   C     C_R   0.272946 0.185669 0.244475 -0.103952
C63   C     C_R   0.170518 0.176002 0.223160 0.038485
C64   C     C_2   0.631918 0.933092 0.448466 0.992803
C65   C     C_2   0.467221 0.991514 0.719866 1.054630
C66   C     C_3   0.960016 0.264111 0.293989 0.280294
C67   C     C_R   0.558067 0.463692 0.242727 -0.137305
C68   C     C_3   0.915150 0.296831 0.369681 -0.851477
C69   C     C_3   0.372935 0.611233 0.842644 0.161708
C70   C     C_3   0.348252 0.695660 0.902227 -0.811535
C71   C     C_2   0.335411 0.679467 0.300232 0.913689
C72   C     C_R   0.709137 0.800428 0.804141 -0.104723
C73   C     C_R   0.801248 0.711427 0.805648 -0.135375
H1    H     H_    0.125073 0.303719 0.248339 0.068165
H2    H     H_    0.128933 0.722308 0.203768 0.139652
H3    H     H_    0.157724 0.732668 0.380309 0.102821
H4    H     H_    0.661463 0.486426 0.830921 0.137544
H5    H     H_    0.884992 0.402009 0.197624 0.123797
H6    H     H_    0.862428 0.391339 0.022767 0.116041
H7    H     H_    0.858643 0.521007 0.339810 0.125244
H8    H     H_    0.216497 0.712282 0.682217 0.141300
H9    H     H_    0.128618 0.824707 0.796129 0.128354
H10   H     H_    0.158099 0.856494 0.979803 0.115910
H11   H     H_    0.106869 0.701728 0.010994 0.112985
H12   H     H_    0.874813 0.613192 0.683278 0.127730
H13   H     H_    0.027427 0.514173 0.858324 0.117003
H14   H     H_    0.999063 0.481085 0.674420 0.122050
H15   H     H_    0.579361 0.730374 0.038820 0.193971
H16   H     H_    0.432647 0.124601 0.324678 0.109421
H17   H     H_    0.561213 0.712419 0.188731 0.158620
H18   H     H_    0.680223 0.401099 0.104762 0.193019
H19   H     H_    0.528591 0.353266 0.030803 0.204409
H20   H     H_    0.692024 0.415394 0.956044 0.192850
H21   H     H_    0.540515 0.367404 0.882835 0.201721
H22   H     H_    0.605594 0.099909 0.449794 0.168955
H23   H     H_    0.604322 0.426116 0.226576 0.106161
H24   H     H_    0.437570 0.134662 0.673295 0.211751
H25   H     H_    0.288280 0.039186 0.563432 0.195308
H26   H     H_    0.336991 0.668732 0.675517 0.157957
H27   H     H_    0.295428 0.889902 0.579403 0.137176
H28   H     H_    0.143290 0.973080 0.172967 0.119328
H29   H     H_    0.981894 0.808733 0.011094 0.123761
H30   H     H_    0.819522 0.034239 0.940329 0.160109
H31   H     H_    0.737443 0.004914 0.008591 0.237711
H32   H     H_    0.958693 0.197374 0.107336 0.022210
H33   H     H_    0.589249 0.301071 0.678550 0.109219
H34   H     H_    0.673536 0.847825 0.831356 0.121720
H35   H     H_    0.153973 0.486902 0.323628 0.147110
H36   H     H_    0.289708 0.120277 0.223496 0.089758
H37   H     H_    0.718291 0.855742 0.462525 0.325085
H38   H     H_    0.627571 0.089450 0.841286 0.315496
H39   H     H_    0.990403 0.330548 0.277398 0.075826
H40   H     H_    0.029186 0.253968 0.337714 0.095323
H41   H     H_    0.883635 0.232196 0.388325 0.265587
H42   H     H_    0.982025 0.374054 0.448547 0.207633
H43   H     H_    0.846854 0.309264 0.329174 0.247896
H44   H     H_    0.381205 0.565773 0.886608 0.107380
H45   H     H_    0.852123 0.679937 0.835521 0.099660
H46   H     H_    0.301522 0.552672 0.756569 0.106640
H47   H     H_    0.335024 0.740226 0.858718 0.254872
H48   H     H_    0.272840 0.654530 0.904537 0.225113
H49   H     H_    0.418153 0.755026 0.988612 0.254467
H50   H     H_    0.205005 0.551710 0.152095 0.323190
H51   H     H_    0.445003 0.613225 0.233700 0.105395
H52   H     H_    0.569654 0.872621 0.682894 0.113780
H53   H     H_    0.711485 0.400190 0.331666 0.087733
H54   H     H_    0.982523 0.551615 0.025019 0.098270
N1    N     N_R   0.291070 0.347930 0.293870 -0.031307
N2    N     N_R   0.497240 0.291100 0.443210 -0.041367
N3    N     N_R   0.347890 0.554050 0.556810 -0.051637
N4    N     N_R   0.554050 0.347900 0.556830 -0.041099
N5    N     N_R   0.291070 0.497250 0.443190 -0.042857
N6    N     N_R   0.497240 0.554030 0.706140 -0.091335
N7    N     N_R   0.347890 0.291110 0.293870 -0.047829
N8    N     N_R   0.445950 0.652100 0.443170 -0.052706
N9    N     N_R   0.708930 0.502750 0.556810 -0.042935
N10   N     N_R   0.502760 0.445970 0.293860 -0.046802
N11   N     N_R   0.652110 0.708890 0.706130 -0.042492
N12   N     N_R   0.708930 0.652070 0.706130 -0.042084
N13   N     N_R   0.445950 0.502780 0.293850 -0.031465
N14   N     N_R   0.502760 0.708900 0.556790 -0.051461
N15   N     N_R   0.652110 0.445950 0.443190 -0.038967
N16   N     N_R   0.554050 0.497220 0.706150 -0.065575
Ni1   Ni    Ni4+2 0.369690 0.500010 0.369700 0.263282
Ni2   Ni    Ni4+2 0.630310 0.499990 0.630300 0.203973
Ni3   Ni    Ni4+2 0.500000 0.369720 0.369720 0.219497
Ni4   Ni    Ni4+2 0.500000 0.630280 0.630280 0.246966
O1    O     O_2   0.665523 0.961532 0.393356 -0.647710
O2    O     O_R   0.667373 0.872439 0.487273 -0.808841
O3    O     O_2   0.444496 0.946064 0.768961 -0.670525
O4    O     O_R   0.575440 0.074642 0.766732 -0.810904
O5    O     O_3   0.874807 0.166021 0.194447 -0.593556
O6    O     O_3   0.470195 0.664552 0.841666 -0.647892
O7    O     O_2   0.329665 0.745286 0.272832 -0.674192
O8    O     O_R   0.259319 0.568041 0.226473 -0.817897

loop_
_geom_bond_atom_site_label_1
_geom_bond_atom_site_label_2
_ccdc_geom_bond_type
C25   C31   A    
C66   C68   S    
N5    Ni1   S    
C26   H10   S    
C66   H40   S    
C45   C71   S    
C53   C63   S    
N15   Ni3   S    
C54   H28   S    
C35   C36   A    
C3    N14   A    
C9    C72   A    
H37   O2    S    
C4    N16   A    
C57   C58   A    
C61   N6    A    
C39   C41   S    
H50   O8    S    
C53   C54   A    
C44   C64   S    
C55   H29   S    
C26   C27   A    
C37   C38   A    
C18   C24   A    
C1    H1    S    
C36   C37   A    
C6    C45   A    
C11   H3    S    
N8    Ni1   S    
C30   C31   A    
C27   C29   A    
C10   C17   A    
C23   C40   A    
C15   C17   A    
C18   C19   A    
C60   O5    S    
C65   O3    D    
N9    N15   A    
C49   H25   S    
C46   C47   A    
C15   H6    S    
C46   H22   S    
C41   H21   S    
C70   H47   S    
C5    H53   S    
C32   C41   S    
C1    N1    A    
N6    Ni4   S    
C32   C38   A    
C4    C12   A    
C29   C30   A    
C28   N3    A    
N9    Ni2   S    
C5    N15   A    
C3    C6    A    
C72   N11   A    
C28   C34   A    
C59   C60   S    
C13   C14   A    
C64   O1    D    
C9    C73   A    
C7    C56   A    
N7    Ni3   S    
C1    C63   A    
C39   H18   S    
C56   N9    A    
C44   C46   A    
C16   H16   S    
C38   C39   S    
C22   C34   S    
N10   N13   A    
C41   H20   S    
C45   N8    A    
C23   C47   S    
C52   N5    A    
N10   Ni3   S    
C35   H15   S    
N11   N12   A    
C5    C7    A    
C17   H54   S    
C73   N12   A    
C25   C26   A    
C71   O7    D    
C69   H46   S    
C69   O6    S    
C13   C24   S    
C61   O6    S    
C51   C53   A    
C65   O4    S    
N6    N16   A    
N3    N5    A    
C43   C44   A    
C66   O5    S    
C62   C63   A    
N1    N7    A    
C10   H2    S    
C70   H49   S    
C47   C48   A    
C72   H34   S    
N11   Ni4   S    
C71   O8    S    
C29   H13   S    
C51   C58   A    
C42   C48   A    
C16   N2    A    
N1    Ni1   S    
N2    Ni3   S    
C42   C50   S    
C28   H26   S    
C48   C49   S    
C40   N4    A    
C68   H43   S    
C16   C23   A    
C7    C19   S    
C6    C43   S    
C55   C57   A    
C67   H23   S    
C22   C24   A    
C42   C43   A    
C59   H31   S    
C39   H19   S    
C40   H33   S    
C36   H17   S    
N16   Ni2   S    
C54   C55   A    
C27   H11   S    
C73   H45   S    
N3    Ni4   S    
C34   C52   A    
C2    C8    A    
N13   Ni1   S    
C21   H8    S    
H38   O4    S    
C3    H52   S    
C2    H51   S    
C50   H27   S    
C64   O2    S    
C59   H30   S    
C32   C33   A    
C62   N7    A    
C19   C20   A    
C58   C59   S    
C2    N13   A    
C4    H4    S    
C12   C61   A    
C11   C13   A    
C70   H48   S    
C56   H12   S    
C25   H9    S    
C62   H36   S    
C12   C33   S    
C69   H44   S    
C33   C35   A    
N4    Ni2   S    
C9    C57   S    
C14   H5    S    
C69   C70   S    
C67   N10   A    
C50   C65   S    
C10   C11   A    
N14   Ni4   S    
C68   H42   S    
C49   H24   S    
N8    N14   A    
C20   C21   A    
C52   H35   S    
C8    C67   A    
C18   H7    S    
C49   C50   S    
C8    C37   S    
C68   H41   S    
C14   C15   A    
C51   C60   S    
C66   H39   S    
C30   H14   S    
C21   C22   A    
C60   H32   S    
N12   Ni2   S    
N2    N4    A    
C20   C31   S    
