data_mof_unit_8738.cif
_audit_creation_date              2012-12-10T17:22:01-0500
_audit_creation_method            fapswitch 2.2
_symmetry_space_group_name_H-M    P1
_symmetry_Int_Tables_number       1
_space_group_crystal_system       triclinic
_cell_length_a                    10.23888
_cell_length_b                    10.374269
_cell_length_c                    15.745658
_cell_angle_alpha                 91.714768
_cell_angle_beta                  81.378798
_cell_angle_gamma                 95.032435
_cell_volume                      1647.00676074

loop_
_atom_site_label
_atom_site_type_symbol
_atom_type_description
_atom_site_fract_x
_atom_site_fract_y
_atom_site_fract_z
_atom_type_partial_charge
C1    C     C_R   0.554973 0.735873 0.496220 0.891705
C2    C     C_2   0.495702 0.931111 0.569399 -0.116580
C3    C     C_2   0.418114 0.128373 0.528124 -0.468671
C4    C     C_R   0.500492 0.502492 0.661307 0.882528
C5    C     C_2   0.491068 0.070612 0.578127 -0.016546
C6    C     C_2   0.925420 0.496621 0.516933 -0.077734
C7    C     C_2   0.068602 0.470042 0.505716 -0.010594
C8    C     C_R   0.445317 0.265245 0.509655 0.910578
C9    C     C_R   0.499498 0.497800 0.338669 0.916602
C10   C     C_3   0.374462 0.575577 0.966125 -0.079070
C11   C     C_3   0.628725 0.543455 0.939271 -0.249535
C12   C     C_3   0.396960 0.584623 0.063131 -0.257547
C13   C     C_3   0.635729 0.522022 0.036459 -0.182088
C14   C     C_1   0.496894 0.488738 0.250370 -0.181668
C15   C     C_3   0.487406 0.491972 0.917680 0.027811
C16   C     C_2   0.236573 0.517856 0.952316 0.406657
C17   C     C_2   0.272551 0.598210 0.128241 0.452219
C18   C     C_2   0.540941 0.241080 0.073454 0.349133
C19   C     C_2   0.569032 0.141855 0.639655 0.438796
C20   C     C_3   0.692110 0.956859 0.453090 -0.415564
C21   C     C_3   0.778892 0.880567 0.384709 -0.318808
C22   C     C_3   0.878332 0.971582 0.328211 -0.886968
C23   C     C_3   0.490328 0.479758 0.083830 0.063878
C24   C     C_2   0.103314 0.343585 0.467589 0.545814
C25   C     C_2   0.876886 0.567862 0.596296 0.494206
C26   C     C_2   0.381227 0.712138 0.931147 0.387593
C27   C     C_2   0.889155 0.413075 0.378744 0.537257
C28   C     C_2   0.671847 0.680373 0.908501 0.418690
C29   C     C_3   0.717012 0.632908 0.081159 -0.391915
C30   C     C_3   0.866771 0.638383 0.047642 -0.367188
C31   C     C_3   0.943268 0.746902 0.091967 -0.781998
C32   C     C_3   0.358153 0.258833 0.900521 -0.408133
C33   C     C_3   0.388844 0.116290 0.886664 -0.321964
C34   C     C_3   0.446953 0.337081 0.049447 0.075672
C35   C     C_3   0.296925 0.043713 0.830027 -0.795395
C36   C     C_3   0.303590 0.280861 0.089635 -0.427630
C37   C     C_3   0.275580 0.262998 0.187879 -0.313019
C38   C     C_3   0.147632 0.176854 0.213578 -0.804124
C39   C     C_3   0.463058 0.344807 0.946714 -0.104603
C40   C     C_1   0.493419 0.481705 0.175494 -0.091846
C41   C     C_1   0.495067 0.498477 0.825282 -0.009123
C42   C     C_1   0.499508 0.501640 0.749861 -0.127478
C43   C     C_2   0.581605 0.875730 0.508378 -0.031805
H1    H     H_    0.456301 0.678386 0.070807 0.206525
H2    H     H_    0.598570 0.263544 0.125295 0.070593
H3    H     H_    0.557469 0.242900 0.654741 0.053214
H4    H     H_    0.825856 0.037278 0.293122 0.258800
H5    H     H_    0.942794 0.030254 0.368206 0.261852
H6    H     H_    0.941699 0.914261 0.280550 0.272918
H7    H     H_    0.835346 0.814179 0.416408 0.274957
H8    H     H_    0.715770 0.823044 0.343198 0.215740
H9    H     H_    0.646283 0.030473 0.419906 0.214609
H10   H     H_    0.756864 0.008840 0.495995 0.242734
H11   H     H_    0.047795 0.255675 0.492978 -0.022905
H12   H     H_    0.419388 0.872995 0.610584 0.150380
H13   H     H_    0.897948 0.536484 0.657601 0.056750
H14   H     H_    0.429982 0.734406 0.866629 0.088926
H15   H     H_    0.832848 0.337571 0.347200 0.030690
H16   H     H_    0.630778 0.763341 0.942499 0.089844
H17   H     H_    0.907294 0.841924 0.080553 0.260043
H18   H     H_    0.931220 0.730326 0.162187 0.267410
H19   H     H_    0.050297 0.749238 0.065683 0.291284
H20   H     H_    0.905319 0.544979 0.060251 0.215389
H21   H     H_    0.886744 0.653904 0.977420 0.269593
H22   H     H_    0.678902 0.728422 0.074963 0.207811
H23   H     H_    0.352168 0.071059 0.490825 0.177075
H24   H     H_    0.708005 0.616114 0.151015 0.224051
H25   H     H_    0.192115 0.043819 0.861110 0.272516
H26   H     H_    0.308219 0.089330 0.766113 0.243781
H27   H     H_    0.322382 0.941971 0.820296 0.270011
H28   H     H_    0.492803 0.110805 0.854937 0.258932
H29   H     H_    0.375938 0.066005 0.948709 0.295654
H30   H     H_    0.255360 0.263124 0.933527 0.216267
H31   H     H_    0.355441 0.295155 0.835580 0.239099
H32   H     H_    0.062110 0.220946 0.193741 0.253102
H33   H     H_    0.155344 0.079158 0.183321 0.270430
H34   H     H_    0.127066 0.638279 0.559553 0.167430
H35   H     H_    0.129571 0.165673 0.284276 0.274931
H36   H     H_    0.357876 0.217991 0.211043 0.229383
H37   H     H_    0.262755 0.357402 0.221332 0.263092
H38   H     H_    0.226944 0.337365 0.070982 0.161418
H39   H     H_    0.285552 0.182870 0.061535 0.244894
H40   H     H_    0.702559 0.482008 0.902259 0.174390
H41   H     H_    0.695498 0.438120 0.038184 0.153991
H42   H     H_    0.558171 0.303687 0.920588 0.176009
H43   H     H_    0.157245 0.499052 0.004991 0.030870
H44   H     H_    0.196455 0.519651 0.141368 0.068159
N1    N     N_2   0.842720 0.448890 0.465540 -0.182030
N2    N     N_2   0.157250 0.551040 0.534500 -0.207297
O1    O     O_R   0.431050 0.692470 0.506940 -0.625276
O2    O     O_2   0.257076 0.699804 0.168229 -0.527221
O3    O     O_2   0.548612 0.135082 0.038186 -0.581464
O4    O     O_2   0.645267 0.086639 0.675741 -0.561508
O5    O     O_2   0.185309 0.337068 0.403297 -0.549653
O6    O     O_2   0.822981 0.667497 0.593430 -0.515845
O7    O     O_2   0.324388 0.797139 0.973149 -0.571228
O8    O     O_2   0.984823 0.472509 0.337135 -0.568899
O9    O     O_2   0.754826 0.698849 0.844816 -0.544932
O10   O     O_R   0.651130 0.659650 0.484820 -0.557474
O11   O     O_R   0.389910 0.516410 0.633920 -0.602441
O12   O     O_R   0.609990 0.483590 0.611800 -0.606408
O13   O     O_R   0.348870 0.340350 0.515180 -0.573938
O14   O     O_R   0.568950 0.307530 0.493060 -0.636131
O15   O     O_R   0.390010 0.516410 0.388200 -0.526646
O16   O     O_R   0.610090 0.483590 0.366080 -0.648193
O17   O     O_2   0.209048 0.500123 0.879748 -0.581349
Zn1   Zn    Zn3+2 0.353060 0.521920 0.514770 1.002900
Zn2   Zn    Zn3+2 0.646940 0.478080 0.485230 0.960851

loop_
_geom_bond_atom_site_label_1
_geom_bond_atom_site_label_2
_ccdc_geom_bond_type
C22   H5    S    
C1    O1    A    
C30   H21   S    
C41   C42   T    
C31   H18   S    
C17   O2    D    
C25   H13   S    
C1    O10   A    
C19   H3    S    
C38   H33   S    
O10   Zn2   S    
C37   H36   S    
C12   C23   S    
H34   N2    S    
C37   C38   S    
C11   C28   S    
C13   C29   S    
C36   C37   S    
O1    Zn1   S    
C2    H12   S    
C32   H31   S    
C30   C31   S    
N1    Zn2   S    
C6    C25   S    
C24   H11   S    
C7    C24   S    
C7    N2    D    
C6    N1    D    
C13   C23   S    
C32   C39   S    
C33   H29   S    
C29   H24   S    
C11   C15   S    
C1    C43   S    
C35   H27   S    
C36   H39   S    
C12   C17   S    
O14   Zn2   S    
C36   H38   S    
C19   O4    D    
C16   O17   D    
C10   C26   S    
O12   Zn2   S    
C22   H4    S    
C30   H20   S    
C16   H43   S    
C31   H19   S    
C21   H7    S    
O16   Zn2   S    
C38   H32   S    
C26   O7    D    
C37   H37   S    
C34   C39   S    
C15   C41   S    
C3    C8    S    
C32   H30   S    
C38   H35   S    
C11   H40   S    
C8    O13   A    
C31   H17   S    
C9    C14   S    
C29   C30   S    
C24   O5    D    
C13   H41   S    
C2    C43   D    
C23   C34   S    
C4    O12   A    
N2    Zn1   S    
O13   Zn1   S    
C18   C34   S    
C15   C39   S    
C10   C12   S    
C22   H6    S    
C29   H22   S    
C25   O6    D    
C4    O11   A    
C2    C5    S    
C39   H42   S    
C18   H2    S    
C21   H8    S    
C20   C43   S    
C28   H16   S    
C28   O9    D    
C27   O8    D    
O11   Zn1   S    
C17   H44   S    
C20   H10   S    
C3    C5    D    
C27   H15   S    
C6    C7    S    
C5    C19   S    
C10   C15   S    
C18   O3    D    
C32   C33   S    
C20   H9    S    
C10   C16   S    
C11   C13   S    
C4    C42   S    
C35   H25   S    
C9    O15   A    
C26   H14   S    
C33   C35   S    
C34   C36   S    
C27   N1    S    
C8    O14   A    
C33   H28   S    
C14   C40   T    
C3    H23   S    
C20   C21   S    
C35   H26   S    
C12   H1    S    
C21   C22   S    
C9    O16   A    
O15   Zn1   S    
C23   C40   S    
