data_mof_unit_52812.cif
_audit_creation_date              2012-12-10T18:47:00-0500
_audit_creation_method            fapswitch 2.2
_symmetry_space_group_name_H-M    P1
_symmetry_Int_Tables_number       1
_space_group_crystal_system       triclinic
_cell_length_a                    16.094161
_cell_length_b                    18.364577
_cell_length_c                    19.774401
_cell_angle_alpha                 89.763976
_cell_angle_beta                  92.348264
_cell_angle_gamma                 73.134931
_cell_volume                      5587.71926683

loop_
_atom_site_label
_atom_site_type_symbol
_atom_type_description
_atom_site_fract_x
_atom_site_fract_y
_atom_site_fract_z
_atom_type_partial_charge
C1    C     C_R   0.501198 0.499684 0.631713 0.810893
C2    C     C_R   0.501476 0.499719 0.368352 0.813489
C3    C     C_R   0.090631 0.414060 0.510086 -0.221241
C4    C     C_R   0.909222 0.587665 0.493180 -0.208588
C5    C     C_R   0.051454 0.354837 0.509079 0.074217
C6    C     C_R   0.947859 0.645644 0.481464 0.071743
C7    C     C_R   0.519516 0.561750 0.260911 -0.231105
C8    C     C_R   0.505569 0.432813 0.741087 -0.228599
C9    C     C_R   0.521189 0.565876 0.190249 0.084794
C10   C     C_R   0.509936 0.427909 0.811969 0.089993
C11   C     C_R   0.504145 0.505046 0.150677 0.012495
C12   C     C_R   0.505985 0.496131 0.851121 0.022414
C13   C     C_R   0.491300 0.441669 0.187007 0.255251
C14   C     C_R   0.516130 0.560193 0.813244 0.250753
C15   C     C_R   0.492870 0.439737 0.257476 -0.225471
C16   C     C_R   0.512392 0.560923 0.742475 -0.246708
C17   C     C_R   0.505033 0.500365 0.294366 -0.108114
C18   C     C_R   0.505049 0.498375 0.706292 -0.103815
C19   C     C_R   0.524764 0.438903 0.038182 -0.166572
C20   C     C_R   0.468298 0.571759 0.963191 -0.129664
C21   C     C_R   0.505983 0.438197 0.969603 -0.225223
C22   C     C_R   0.465111 0.573067 0.034342 -0.185155
C23   C     C_R   0.672040 0.453072 0.500107 0.797104
C24   C     C_R   0.327915 0.546802 0.496598 0.789230
C25   C     C_R   0.494159 0.502325 0.928135 0.115383
C26   C     C_R   0.499996 0.506396 0.074035 0.107470
C27   C     C_R   0.529815 0.272400 0.555823 0.034091
C28   C     C_R   0.450731 0.733077 0.454087 0.031682
C29   C     C_R   0.520538 0.199197 0.560601 -0.312939
C30   C     C_R   0.448768 0.808825 0.455723 -0.341733
C31   C     C_R   0.482743 0.167844 0.506664 0.100117
C32   C     C_R   0.506126 0.835689 0.498716 0.089983
C33   C     C_R   0.442539 0.220067 0.452106 0.181407
C34   C     C_R   0.560644 0.779483 0.545349 0.178551
C35   C     C_R   0.453381 0.293247 0.450449 0.002404
C36   C     C_R   0.555072 0.704392 0.544291 0.028918
C37   C     C_R   0.430354 0.055048 0.467412 -0.291260
C38   C     C_R   0.559982 0.948757 0.538368 -0.284416
C39   C     C_R   0.443195 0.977519 0.454856 0.267507
C40   C     C_R   0.553024 0.026221 0.545566 0.253680
C41   C     C_R   0.503761 0.920673 0.496262 0.058239
C42   C     C_R   0.487713 0.082828 0.508193 0.055168
C43   C     C_R   0.769868 0.421623 0.499241 -0.114285
C44   C     C_R   0.229721 0.578118 0.489709 -0.130487
C45   C     C_R   0.908458 0.317071 0.500869 0.068301
C46   C     C_R   0.091238 0.684334 0.483368 0.053150
C47   C     C_R   0.815383 0.341987 0.505368 0.076295
C48   C     C_R   0.184793 0.658125 0.486886 0.088720
C49   C     C_R   0.817582 0.472686 0.489493 -0.291363
C50   C     C_R   0.181457 0.526504 0.486349 -0.285323
C51   C     C_R   0.909582 0.452008 0.495825 0.054243
C52   C     C_R   0.090009 0.548215 0.489578 0.063446
C53   C     C_R   0.957610 0.372865 0.501251 0.036907
C54   C     C_R   0.042288 0.627638 0.484144 0.021623
C55   C     C_R   0.954323 0.510110 0.494234 0.042119
C56   C     C_R   0.045400 0.490452 0.496368 0.041108
Cu1   Cu    Cu3+1 0.500030 0.426630 0.500000 0.929136
Cu2   Cu    Cu3+1 0.499970 0.573370 0.500000 0.929679
H1    H     H_    0.554432 0.384094 0.061502 0.185390
H2    H     H_    0.444359 0.625900 0.937666 0.146646
H3    H     H_    0.495766 0.387603 0.952852 0.176011
H4    H     H_    0.434326 0.626259 0.056926 0.132136
H5    H     H_    0.557536 0.295342 0.598197 0.134186
H6    H     H_    0.410623 0.714251 0.417259 0.115906
H7    H     H_    0.540318 0.170360 0.608535 0.185262
H8    H     H_    0.397041 0.843139 0.424395 0.203959
H9    H     H_    0.420667 0.333277 0.410774 0.125201
H10   H     H_    0.596179 0.661628 0.578529 0.129145
H11   H     H_    0.373837 0.092535 0.442856 0.202029
H12   H     H_    0.615024 0.913011 0.565555 0.205813
H13   H     H_    0.218634 0.468100 0.480204 0.156205
H14   H     H_    0.779344 0.529578 0.476028 0.157842
H15   H     H_    0.158115 0.399618 0.524907 0.144391
H16   H     H_    0.842180 0.604886 0.503957 0.140040
H17   H     H_    0.528553 0.608842 0.290900 0.155631
H18   H     H_    0.502887 0.383836 0.711720 0.149545
H19   H     H_    0.482027 0.391705 0.283752 0.161560
H20   H     H_    0.515598 0.611484 0.715554 0.158667
N1    N     N_R   0.500010 0.316380 0.499980 -0.190157
N2    N     N_R   0.499990 0.683620 0.500020 -0.181802
O1    O     O_R   0.500040 0.438010 0.599820 -0.598512
O2    O     O_R   0.499960 0.561990 0.400180 -0.592821
O3    O     O_R   0.500000 0.561930 0.599810 -0.592634
O4    O     O_R   0.500000 0.438070 0.400190 -0.596470
O5    O     O_R   0.629870 0.403290 0.500000 -0.591840
O6    O     O_R   0.370130 0.596710 0.500000 -0.590510
O7    O     O_R   0.629830 0.527210 0.500000 -0.589238
O8    O     O_R   0.370170 0.472790 0.500000 -0.581100
C57   C     C_3   0.113162 0.274056 0.514869 -0.425975
C58   C     C_3   0.208791 0.260496 0.537992 -0.384310
C59   C     C_3   0.253125 0.175185 0.547877 -0.840226
H21   H     H_    0.223077 0.151598 0.589044 0.246512
H22   H     H_    0.246693 0.144367 0.500538 0.248782
H23   H     H_    0.322702 0.165387 0.561962 0.254918
H24   H     H_    0.242955 0.282641 0.498774 0.221113
H25   H     H_    0.213430 0.288936 0.586811 0.226020
H26   H     H_    0.088594 0.243652 0.553010 0.243881
H27   H     H_    0.116291 0.249196 0.463750 0.200771
C60   C     C_3   0.884965 0.723962 0.461009 -0.425626
C61   C     C_3   0.786426 0.735240 0.449993 -0.370576
C62   C     C_3   0.739520 0.820215 0.438588 -0.850772
H28   H     H_    0.748608 0.852830 0.484276 0.245154
H29   H     H_    0.765755 0.843201 0.394792 0.251662
H30   H     H_    0.669059 0.829174 0.428849 0.249717
H31   H     H_    0.774077 0.702948 0.405001 0.224007
H32   H     H_    0.758392 0.716414 0.494574 0.205877
H33   H     H_    0.889124 0.765386 0.500886 0.210342
H34   H     H_    0.903091 0.737035 0.409340 0.199711
N3    N     N_2   0.382882 0.204949 0.403047 -0.464016
H35   H     H_    0.328001 0.250295 0.393154 0.243270
C63   C     C_3   0.420304 0.169917 0.341867 -0.736985
H36   H     H_    0.372080 0.146916 0.314211 0.231620
H37   H     H_    0.479412 0.121820 0.353886 0.251063
H38   H     H_    0.436568 0.212603 0.309181 0.223206
N4    N     N_2   0.622813 0.794860 0.591869 -0.469692
H39   H     H_    0.686340 0.772879 0.579098 0.249462
C64   C     C_3   0.610137 0.787876 0.662980 -0.735820
H40   H     H_    0.662540 0.803594 0.692777 0.227661
H41   H     H_    0.613519 0.728478 0.676956 0.214243
H42   H     H_    0.546698 0.827288 0.676552 0.246097
N5    N     N_2   0.396877 0.960034 0.397317 -0.459019
H43   H     H_    0.339182 0.000365 0.383084 0.246607
C65   C     C_3   0.448890 0.929486 0.340122 -0.730655
H44   H     H_    0.411827 0.900758 0.306228 0.222487
H45   H     H_    0.510594 0.886365 0.356734 0.240823
H46   H     H_    0.463601 0.975928 0.311472 0.231344
N6    N     N_2   0.611120 0.044294 0.594271 -0.452897
H47   H     H_    0.615432 0.014674 0.639556 0.250628
C66   C     C_3   0.695825 0.039475 0.569869 -0.734186
H48   H     H_    0.739437 0.045363 0.613332 0.228546
H49   H     H_    0.690091 0.085915 0.532368 0.254169
H50   H     H_    0.724902 0.983349 0.546539 0.224458
C67   C     C_3   0.237849 0.714670 0.494459 -0.298615
C68   C     C_3   0.259645 0.725319 0.569974 -0.294899
C69   C     C_3   0.300657 0.789806 0.582344 -0.835293
H51   H     H_    0.318898 0.811631 0.534887 0.260532
H52   H     H_    0.253965 0.837959 0.607052 0.228707
H53   H     H_    0.359703 0.769512 0.616470 0.246959
H54   H     H_    0.199091 0.737065 0.598296 0.195799
H55   H     H_    0.303542 0.671772 0.592415 0.230666
H56   H     H_    0.292520 0.701941 0.461273 0.180718
H57   H     H_    0.216270 0.766567 0.465498 0.140004
C70   C     C_3   0.767288 0.282645 0.522896 -0.342244
C71   C     C_3   0.755456 0.280023 0.599788 -0.324641
C72   C     C_3   0.748287 0.202870 0.624986 -0.893422
H58   H     H_    0.679920 0.202457 0.625652 0.257297
H59   H     H_    0.782643 0.155124 0.592772 0.245416
H60   H     H_    0.777320 0.190834 0.677245 0.240606
H61   H     H_    0.812711 0.290595 0.626853 0.209685
H62   H     H_    0.697419 0.326219 0.613776 0.219779
H63   H     H_    0.707090 0.286756 0.492590 0.216040
H64   H     H_    0.799185 0.225272 0.505869 0.168847
C73   C     C_3   0.950188 0.231197 0.491877 -0.392992
C74   C     C_3   0.966736 0.184730 0.559456 -0.346145
C75   C     C_3   0.031119 0.106430 0.552195 -0.890385
H65   H     H_    0.012158 0.079622 0.506386 0.256895
H66   H     H_    0.097936 0.110475 0.547596 0.260093
H67   H     H_    0.029726 0.070139 0.597084 0.246992
H68   H     H_    0.987459 0.215586 0.601973 0.207528
H69   H     H_    0.906951 0.174364 0.575759 0.241842
H70   H     H_    0.910380 0.207757 0.455856 0.165466
H71   H     H_    0.006345 0.217809 0.460585 0.184508
C76   C     C_3   0.040729 0.770528 0.486251 -0.421862
C77   C     C_3   0.076036 0.839909 0.481166 -0.393075
C78   C     C_3   0.004578 0.914520 0.483444 -0.901753
H72   H     H_    0.956665 0.919333 0.440422 0.258719
H73   H     H_    0.972050 0.919874 0.532277 0.263024
H74   H     H_    0.035449 0.960722 0.478218 0.247292
H75   H     H_    0.121599 0.841128 0.524588 0.256131
H76   H     H_    0.104459 0.841537 0.430733 0.220715
H77   H     H_    0.998815 0.782238 0.440087 0.212115
H78   H     H_    0.007718 0.778027 0.535135 0.204668
C79   C     C_3   0.535923 0.638530 0.162638 -0.403507
C80   C     C_3   0.613362 0.626602 0.116861 -0.320279
C81   C     C_3   0.604102 0.698572 0.074644 -0.851582
H79   H     H_    0.544221 0.711404 0.041191 0.253296
H80   H     H_    0.600098 0.747793 0.108158 0.247459
H81   H     H_    0.660864 0.690598 0.042596 0.243232
H82   H     H_    0.674385 0.613827 0.148926 0.208462
H83   H     H_    0.619614 0.577991 0.082614 0.234309
H84   H     H_    0.474638 0.676216 0.139779 0.182705
H85   H     H_    0.549644 0.674134 0.204795 0.178969
C82   C     C_3   0.518689 0.347210 0.838207 -0.408172
C83   C     C_3   0.606159 0.309922 0.876854 -0.333745
C84   C     C_3   0.599685 0.246222 0.924943 -0.867661
H86   H     H_    0.544420 0.265259 0.958868 0.242994
H87   H     H_    0.590777 0.197522 0.895714 0.253643
H88   H     H_    0.659989 0.226943 0.957474 0.241459
H89   H     H_    0.656993 0.285519 0.840289 0.211335
H90   H     H_    0.629391 0.352372 0.905751 0.225097
H91   H     H_    0.459544 0.346281 0.864724 0.181991
H92   H     H_    0.517168 0.307446 0.796148 0.180792
N7    N     N_2   0.472667 0.378990 0.152573 -0.450173
H93   H     H_    0.406774 0.383412 0.144198 0.250431
C85   C     C_3   0.530857 0.303605 0.167616 -0.729137
H94   H     H_    0.514492 0.261975 0.132290 0.225076
H95   H     H_    0.526670 0.284392 0.220213 0.223664
H96   H     H_    0.599275 0.303064 0.159443 0.231605
N8    N     N_2   0.527509 0.626350 0.845156 -0.446487
H97   H     H_    0.476247 0.674113 0.832899 0.236783
C86   C     C_3   0.609782 0.641543 0.835704 -0.692987
H98   H     H_    0.612072 0.692646 0.865038 0.223630
H99   H     H_    0.616896 0.653999 0.781578 0.209237
H100  H     H_    0.664682 0.592470 0.853623 0.242324

loop_
_geom_bond_atom_site_label_1
_geom_bond_atom_site_label_2
_ccdc_geom_bond_type
C69   H53   S    
C38   C40   A    
C55   C56   A    
C38   H12   S    
C78   H72   S    
C31   C42   S    
C37   H11   S    
C75   H66   S    
C86   H98   S    
Cu1   N1    S    
C2    O4    A    
C63   H36   S    
C50   H13   S    
Cu2   O7    S    
C72   H58   S    
C58   C59   S    
C82   H91   S    
C65   H44   S    
C39   C41   A    
C51   C55   A    
C79   C80   S    
C66   H49   S    
C60   H34   S    
C61   H31   S    
C62   H28   S    
C1    O3    A    
C5    C53   A    
C77   C78   S    
C19   C21   A    
C27   N1    A    
Cu2   O2    S    
C68   H55   S    
C65   H45   S    
C27   C29   A    
C20   C25   A    
C1    O1    A    
N4    H39   S    
C47   C70   S    
C8    H18   S    
C23   C43   S    
C83   C84   S    
C69   H52   S    
C35   N1    A    
C37   C42   A    
C19   C26   A    
C80   C81   S    
C71   H62   S    
N3    C63   S    
C77   H76   S    
C67   H57   S    
C76   C77   S    
N4    C64   S    
C49   H14   S    
C50   C52   A    
C32   C41   S    
C31   C33   A    
C9    C79   S    
C20   H2    S    
C76   H77   S    
N3    H35   S    
C4    H16   S    
Cu2   N2    S    
C3    C5    A    
C66   H50   S    
C40   C42   A    
C79   H84   S    
N8    H97   S    
C78   H73   S    
C23   O7    A    
C82   H92   S    
C2    C17   S    
C10   C82   S    
C86   H99   S    
C77   H75   S    
C6    C54   A    
C28   N2    A    
Cu2   O6    S    
C72   H59   S    
C52   C54   A    
C81   H81   S    
Cu1   Cu2   S    
C45   C47   A    
C46   C48   A    
C52   C56   A    
C48   C67   S    
C69   H51   S    
C38   C41   A    
C81   H80   S    
C36   N2    A    
C64   H42   S    
C68   H54   S    
C43   C49   A    
C84   H88   S    
C7    H17   S    
C11   C26   S    
C49   C51   A    
C34   N4    S    
C40   N6    S    
C59   H22   S    
C8    C18   A    
C24   O6    A    
C73   H70   S    
C51   C53   A    
C32   C34   A    
C82   C83   S    
N6    C66   S    
C74   H69   S    
C71   H61   S    
C22   H4    S    
C9    C11   A    
C3    C56   A    
C60   C61   S    
C35   H9    S    
C29   C31   A    
C46   C54   A    
N7    C85   S    
C1    C18   S    
Cu1   O4    S    
C63   H37   S    
C16   C18   A    
C58   H25   S    
C76   H78   S    
C24   O8    A    
C74   C75   S    
N5    H43   S    
C30   H8    S    
C10   C12   A    
C29   H7    S    
C28   H6    S    
C8    C10   A    
C70   H64   S    
C12   C14   A    
C79   H85   S    
C62   H30   S    
C46   C76   S    
C13   C15   A    
C4    C55   A    
C23   O5    A    
C67   C68   S    
C24   C44   S    
C86   H100  S    
C14   C16   A    
C2    O2    A    
C4    C6    A    
C33   N3    S    
N6    H47   S    
C80   H83   S    
C59   H21   S    
C72   H60   S    
C16   H20   S    
C66   H48   S    
C44   C50   A    
C7    C9    A    
C21   C25   A    
C83   H90   S    
C21   H3    S    
C20   C22   A    
C71   C72   S    
C65   H46   S    
C58   H24   S    
C36   H10   S    
C15   C17   A    
C68   C69   S    
C78   H74   S    
C60   H33   S    
C14   N8    S    
C12   C25   S    
C61   H32   S    
C39   N5    S    
Cu1   O8    S    
C73   H71   S    
C19   H1    S    
C6    C60   S    
C85   H96   S    
C64   H41   S    
C57   C58   S    
C28   C30   A    
C37   C39   A    
C81   H79   S    
C64   H40   S    
C59   H23   S    
C30   C32   A    
C11   C13   A    
C84   H86   S    
C15   H19   S    
C57   H27   S    
C70   H63   S    
C61   C62   S    
C33   C35   A    
C34   C36   A    
Cu1   O5    S    
C63   H38   S    
Cu1   O1    S    
C3    H15   S    
N5    C65   S    
C84   H87   S    
C45   C53   A    
C85   H94   S    
C44   C48   A    
C74   H68   S    
C45   C73   S    
C62   H29   S    
N7    H93   S    
C22   C26   A    
C57   H26   S    
C75   H65   S    
N8    C86   S    
C83   H89   S    
C27   H5    S    
C13   N7    S    
C67   H56   S    
C85   H95   S    
C73   C74   S    
Cu2   O3    S    
C43   C47   A    
C80   H82   S    
C5    C57   S    
C70   C71   S    
C75   H67   S    
C7    C17   A    
