data_mof_unit_50746.cif
_audit_creation_date              2012-12-10T17:53:09-0500
_audit_creation_method            fapswitch 2.2
_symmetry_space_group_name_H-M    P1
_symmetry_Int_Tables_number       1
_space_group_crystal_system       triclinic
_cell_length_a                    14.745244
_cell_length_b                    14.65229
_cell_length_c                    27.767909
_cell_angle_alpha                 76.827011
_cell_angle_beta                  103.139536
_cell_angle_gamma                 114.728254
_cell_volume                      5246.36608955

loop_
_atom_site_label
_atom_site_type_symbol
_atom_type_description
_atom_site_fract_x
_atom_site_fract_y
_atom_site_fract_z
_atom_type_partial_charge
C1    C     C_R   0.880446 0.312179 0.508577 0.799182
C2    C     C_R   0.119528 0.687862 0.492538 0.797434
C3    C     C_R   0.015993 0.518693 0.898000 -0.063621
C4    C     C_R   0.028832 0.522134 0.102578 -0.064452
C5    C     C_R   0.974132 0.425367 0.879608 -0.065393
C6    C     C_R   0.036300 0.609727 0.118559 -0.065723
C7    C     C_R   0.933240 0.334624 0.911592 -0.259398
C8    C     C_R   0.041606 0.696626 0.083702 -0.254116
C9    C     C_R   0.054760 0.610808 0.865219 -0.046499
C10   C     C_R   0.022673 0.433799 0.137786 -0.049518
C11   C     C_R   0.001741 0.505338 0.645089 -0.048779
C12   C     C_R   0.005951 0.505311 0.354637 -0.052355
C13   C     C_R   0.006906 0.431021 0.034565 0.073343
C14   C     C_R   0.051416 0.613203 0.966944 0.071637
C15   C     C_R   0.041609 0.613656 0.016728 -0.035226
C16   C     C_R   0.988432 0.426844 0.982564 -0.032565
C17   C     C_R   0.025968 0.522466 0.051219 -0.004272
C18   C     C_R   0.018454 0.519561 0.949208 -0.003362
C19   C     C_R   0.013418 0.348288 0.070428 -0.185334
C20   C     C_R   0.098355 0.703079 0.935254 -0.190926
C21   C     C_R   0.022932 0.348896 0.121567 -0.013147
C22   C     C_R   0.101155 0.703461 0.885243 -0.021072
C23   C     C_R   0.000587 0.501473 0.592413 0.793205
C24   C     C_R   0.000882 0.500789 0.407503 0.810806
C25   C     C_R   0.940172 0.333462 0.963011 0.423644
C26   C     C_R   0.046046 0.701002 0.033134 0.422962
C27   C     C_R   0.812740 0.204569 0.515985 -0.045250
C28   C     C_R   0.187051 0.795687 0.490434 -0.050953
C29   C     C_R   0.782753 0.027919 0.546900 -0.212165
C30   C     C_R   0.216494 0.974292 0.472560 -0.202518
C31   C     C_R   0.849743 0.128458 0.537524 -0.188261
C32   C     C_R   0.149806 0.872919 0.475803 -0.200608
C33   C     C_R   0.708534 0.179003 0.503284 -0.267391
C34   C     C_R   0.291036 0.820845 0.503984 -0.245732
C35   C     C_R   0.639136 0.079059 0.514497 0.077116
C36   C     C_R   0.360083 0.922334 0.501551 0.088200
C37   C     C_R   0.678103 0.002766 0.535779 0.169373
C38   C     C_R   0.321069 0.999489 0.484433 0.167738
C39   C     C_R   0.532669 0.053034 0.505288 0.065223
C40   C     C_R   0.466497 0.949051 0.514133 0.062541
C41   C     C_R   0.508919 0.875480 0.535484 -0.225976
C42   C     C_R   0.490167 0.127545 0.488540 -0.237348
C43   C     C_R   0.612515 0.902212 0.546195 -0.231280
C44   C     C_R   0.386562 0.101022 0.478989 -0.232968
C45   C     C_R   0.970959 0.424642 0.828920 0.532690
C46   C     C_R   0.035494 0.607826 0.169180 0.535124
C47   C     C_R   0.701980 0.647533 0.409479 -0.391842
C48   C     C_R   0.289621 0.339207 0.586656 -0.399180
C49   C     C_R   0.792050 0.631759 0.426579 0.662793
C50   C     C_R   0.203931 0.363719 0.571754 0.667685
C51   C     C_R   0.717288 0.510761 0.494242 -0.042016
C52   C     C_R   0.284079 0.489097 0.506637 -0.034642
C53   C     C_R   0.627572 0.530812 0.481476 -0.003537
C54   C     C_R   0.369425 0.461740 0.517660 0.001926
C55   C     C_R   0.620524 0.597120 0.436397 0.031369
C56   C     C_R   0.372720 0.390458 0.560928 0.033322
C57   C     C_R   0.543487 0.484696 0.509440 -0.069145
C58   C     C_R   0.452337 0.504404 0.489152 -0.069033
C59   C     C_R   0.445937 0.563308 0.440671 0.462037
C60   C     C_R   0.546243 0.420120 0.556697 0.429472
C61   C     C_R   0.530565 0.609027 0.415971 -0.263304
C62   C     C_R   0.460202 0.373044 0.580293 -0.250162
C63   C     C_R   0.045330 0.605816 0.813870 0.540248
C64   C     C_R   0.015172 0.433825 0.187609 0.543764
C65   C     C_R   0.072571 0.483090 0.732586 -0.134879
C66   C     C_R   0.940271 0.530263 0.266544 -0.126666
C67   C     C_R   0.072785 0.480855 0.682779 -0.226418
C68   C     C_R   0.932726 0.524221 0.316411 -0.220557
C69   C     C_R   0.931924 0.534430 0.657989 -0.283830
C70   C     C_R   0.087114 0.493535 0.342181 -0.282225
C71   C     C_R   0.930766 0.536481 0.708026 0.035992
C72   C     C_R   0.097480 0.502880 0.292266 0.036991
C73   C     C_R   0.001960 0.510388 0.745613 0.330724
C74   C     C_R   0.022055 0.519722 0.254017 0.321687
Cu1   Cu    Cu3+1 0.081740 0.475690 0.513040 0.974848
Cu2   Cu    Cu3+1 0.918260 0.524310 0.486960 0.969621
H1    H     H_    0.876888 0.554039 0.629213 0.182119
H2    H     H_    0.144474 0.479603 0.371424 0.190234
H3    H     H_    0.316323 0.759298 0.515283 0.144571
H4    H     H_    0.683557 0.238970 0.484536 0.154501
H5    H     H_    0.069495 0.855140 0.466643 0.147201
H6    H     H_    0.930118 0.146642 0.547412 0.174154
H7    H     H_    0.812751 0.969870 0.563500 0.132196
H8    H     H_    0.186351 0.033134 0.460259 0.133987
H9    H     H_    0.464502 0.796215 0.545807 0.140315
H10   H     H_    0.534482 0.207916 0.483201 0.135652
H11   H     H_    0.525826 0.651894 0.378913 0.144629
H12   H     H_    0.463527 0.327221 0.616705 0.141726
H13   H     H_    0.279814 0.552108 0.479125 0.194573
H14   H     H_    0.726229 0.452404 0.523372 0.199963
H15   H     H_    0.693918 0.696938 0.374740 0.146131
H16   H     H_    0.292412 0.280171 0.617775 0.146024
H17   H     H_    0.893294 0.264335 0.896209 0.188108
H18   H     H_    0.039850 0.761131 0.095598 0.189204
H19   H     H_    0.869387 0.533678 0.325006 0.172769
H20   H     H_    0.128890 0.460381 0.673845 0.149668
H21   H     H_    0.881966 0.542571 0.237424 0.146816
H22   H     H_    0.127975 0.464147 0.761298 0.134461
H23   H     H_    0.018566 0.284947 0.059163 0.155777
H24   H     H_    0.140219 0.773730 0.949923 0.161766
H25   H     H_    0.641517 0.843392 0.562827 0.143527
H26   H     H_    0.357516 0.160703 0.466425 0.146089
N1    N     N_R   0.005482 0.513829 0.797296 -0.463122
N2    N     N_R   0.024874 0.520760 0.202448 -0.462148
N3    N     N_R   0.795430 0.560780 0.467350 -0.226859
N4    N     N_R   0.204570 0.439220 0.532650 -0.226334
O1    O     O_R   0.977900 0.338120 0.517190 -0.531640
O2    O     O_R   0.022100 0.661880 0.482810 -0.551854
O3    O     O_R   0.839850 0.379180 0.495160 -0.610709
O4    O     O_R   0.160150 0.620820 0.504840 -0.606143
O5    O     O_R   0.069030 0.479490 0.580750 -0.553217
O6    O     O_R   0.930970 0.520510 0.419250 -0.534268
O7    O     O_R   0.930970 0.520550 0.558720 -0.599598
O8    O     O_R   0.069030 0.479450 0.441280 -0.589338
O9    O     O_2   0.932648 0.335427 0.811084 -0.565239
O10   O     O_2   0.045584 0.692428 0.185165 -0.566806
O11   O     O_2   0.994690 0.347244 0.220699 -0.537057
O12   O     O_2   0.073972 0.691394 0.780435 -0.540820
O13   O     O_3   0.115011 0.309847 0.592443 -0.589784
C75   C     C_3   0.129003 0.272499 0.644109 0.014640
H27   H     H_    0.075351 0.285240 0.661523 0.173014
H28   H     H_    0.205338 0.313795 0.664158 0.117374
C76   C     C_3   0.101526 0.157620 0.651796 -0.355946
H29   H     H_    0.020502 0.119061 0.636848 0.220345
H30   H     H_    0.146706 0.139795 0.631065 0.214899
C77   C     C_3   0.119640 0.115675 0.707048 -0.909440
H31   H     H_    0.200651 0.151780 0.722567 0.247113
H32   H     H_    0.098467 0.032361 0.711421 0.271018
H33   H     H_    0.073063 0.130256 0.728392 0.257140
O14   O     O_3   0.873158 0.675050 0.399869 -0.586274
C78   C     C_3   0.893340 0.777631 0.378179 0.012805
H34   H     H_    0.975896 0.820859 0.386705 0.166352
H35   H     H_    0.857193 0.815439 0.393877 0.120975
C79   C     C_3   0.865717 0.785266 0.321211 -0.357289
H36   H     H_    0.912950 0.758428 0.306546 0.232957
H37   H     H_    0.785426 0.735876 0.310809 0.210228
C80   C     C_3   0.882892 0.894366 0.296712 -0.891749
H38   H     H_    0.834931 0.922090 0.310154 0.258776
H39   H     H_    0.862446 0.897302 0.255545 0.252607
H40   H     H_    0.963471 0.944878 0.305486 0.255300
O15   O     O_3   0.352608 0.562334 0.415021 -0.640678
C81   C     C_3   0.354826 0.657499 0.387087 0.025062
H41   H     H_    0.275085 0.649043 0.374532 0.181232
H42   H     H_    0.387018 0.674845 0.352065 0.151869
C82   C     C_3   0.406377 0.746629 0.417558 -0.403245
H43   H     H_    0.378423 0.723684 0.454011 0.214677
H44   H     H_    0.489392 0.768178 0.424933 0.217720
C83   C     C_3   0.385158 0.839829 0.389611 -0.863426
H45   H     H_    0.409711 0.862363 0.352203 0.250560
H46   H     H_    0.427465 0.904290 0.411089 0.263979
H47   H     H_    0.303245 0.823456 0.385071 0.256148
O16   O     O_3   0.635970 0.415224 0.584043 -0.627141
C84   C     C_3   0.629653 0.313375 0.595285 0.007726
H48   H     H_    0.607063 0.278556 0.560529 0.136033
H49   H     H_    0.575128 0.266155 0.621626 0.154940
C85   C     C_3   0.732792 0.312277 0.620616 -0.322593
H50   H     H_    0.787887 0.351276 0.593910 0.222339
H51   H     H_    0.759276 0.353362 0.653376 0.240404
C86   C     C_3   0.728276 0.204181 0.638598 -0.892160
H52   H     H_    0.678960 0.165740 0.668070 0.255635
H53   H     H_    0.805349 0.206533 0.654470 0.260388
H54   H     H_    0.698420 0.159637 0.607119 0.266302
C87   C     C_R   0.855030 0.566194 0.720067 0.123862
C88   C     C_R   0.849368 0.660345 0.697892 -0.092120
C89   C     C_R   0.777759 0.688633 0.709007 -0.133047
C90   C     C_R   0.711038 0.623043 0.742086 -0.102131
C91   C     C_R   0.715560 0.528888 0.763944 -0.132386
C92   C     C_R   0.786989 0.500273 0.752892 -0.149323
H55   H     H_    0.900911 0.712087 0.672352 0.130432
H56   H     H_    0.774023 0.761428 0.691982 0.125622
H57   H     H_    0.655613 0.645019 0.750643 0.124504
H58   H     H_    0.663393 0.477848 0.789293 0.130954
H59   H     H_    0.788309 0.426367 0.769418 0.152766
C93   C     C_R   0.188811 0.497353 0.281251 0.116848
C94   C     C_R   0.249136 0.574703 0.248100 -0.182600
C95   C     C_R   0.337020 0.570952 0.239215 -0.158034
C96   C     C_R   0.365952 0.490622 0.263624 -0.127799
C97   C     C_R   0.306951 0.413783 0.296917 -0.144039
C98   C     C_R   0.218732 0.416926 0.305720 -0.071730
H60   H     H_    0.229237 0.638784 0.229802 0.150892
H61   H     H_    0.383143 0.630797 0.213677 0.134796
H62   H     H_    0.434195 0.488033 0.256824 0.128386
H63   H     H_    0.329480 0.351645 0.315863 0.124657
H64   H     H_    0.173653 0.356548 0.331506 0.132331
C99   C     C_R   0.041487 0.263050 0.156295 0.165654
C100  C     C_R   0.130471 0.281251 0.191150 -0.082528
C101  C     C_R   0.149981 0.200080 0.222469 -0.133184
C102  C     C_R   0.081779 0.100256 0.218689 -0.106307
C103  C     C_R   0.993916 0.081444 0.183602 -0.131934
C104  C     C_R   0.973700 0.162394 0.152473 -0.143283
H65   H     H_    0.184638 0.358202 0.193865 0.134301
H66   H     H_    0.218354 0.214515 0.249395 0.123937
H67   H     H_    0.097321 0.037464 0.242722 0.131787
H68   H     H_    0.941681 0.004106 0.180314 0.131633
H69   H     H_    0.905521 0.146735 0.125307 0.136962
C105  C     C_R   0.158589 0.802274 0.856808 0.168753
C106  C     C_R   0.248213 0.817447 0.840674 -0.083828
C107  C     C_R   0.304306 0.912079 0.815550 -0.123890
C108  C     C_R   0.272196 0.992399 0.807076 -0.110566
C109  C     C_R   0.184000 0.978266 0.823769 -0.152614
C110  C     C_R   0.127331 0.883618 0.848606 -0.133593
H70   H     H_    0.274368 0.756036 0.847563 0.114679
H71   H     H_    0.372970 0.923314 0.802903 0.125342
H72   H     H_    0.315944 0.065713 0.787818 0.122050
H73   H     H_    0.159693 0.040741 0.817623 0.139177
H74   H     H_    0.059371 0.873691 0.861583 0.141130
O17   O     O_3   0.883290 0.246425 0.992488 -0.610815
C111  C     C_3   0.896044 0.158110 0.988064 0.015693
H75   H     H_    0.918693 0.123293 0.026321 0.152969
H76   H     H_    0.956918 0.172776 0.966252 0.132254
C112  C     C_3   0.795155 0.081579 0.966203 -0.313182
H77   H     H_    0.738357 0.061522 0.991220 0.225622
H78   H     H_    0.767420 0.115860 0.928941 0.217078
C113  C     C_3   0.804934 0.984948 0.960799 -0.919077
H79   H     H_    0.858893 0.002886 0.934576 0.257347
H80   H     H_    0.730226 0.930590 0.945652 0.258800
H81   H     H_    0.831462 0.948529 0.997768 0.254944
O18   O     O_3   0.034661 0.781769 0.998221 -0.612248
C114  C     C_3   0.105547 0.877632 0.010804 0.021957
H82   H     H_    0.148569 0.918463 0.979042 0.153027
H83   H     H_    0.162994 0.873582 0.044326 0.129427
C115  C     C_3   0.049448 0.940297 0.017378 -0.320706
H84   H     H_    0.000327 0.951757 0.981722 0.226559
H85   H     H_    0.000738 0.898849 0.046913 0.217316
C116  C     C_3   0.122623 0.043812 0.031501 -0.928671
H86   H     H_    0.171577 0.034283 0.067534 0.263628
H87   H     H_    0.079479 0.087292 0.035763 0.245016
H88   H     H_    0.170553 0.087730 0.001854 0.255650

loop_
_geom_bond_atom_site_label_1
_geom_bond_atom_site_label_2
_ccdc_geom_bond_type
C66   C68   A    
Cu1   O1    S    
Cu2   N3    S    
C26   O18   S    
C8    C26   A    
C14   C18   A    
C69   H1    S    
C87   C88   A    
C24   O6    A    
C83   H47   S    
C48   C56   A    
C78   C79   S    
C93   C98   A    
C79   C80   S    
C82   H43   S    
C88   H55   S    
C99   C104  A    
C47   C49   A    
C27   C33   A    
C24   O8    A    
C32   H5    S    
C12   C68   A    
C89   C90   A    
C31   H6    S    
C71   C87   S    
C66   H21   S    
C74   N2    S    
C88   C89   A    
C35   C37   A    
C83   H46   S    
C65   H22   S    
C29   H7    S    
C49   O14   S    
C111  C112  S    
C51   H14   S    
C14   C15   A    
C33   C35   A    
C113  H80   S    
C9    C22   A    
C76   H30   S    
C70   H2    S    
C106  C107  A    
C96   H62   S    
C66   C74   A    
C109  H73   S    
C16   C25   A    
C116  H88   S    
C65   C73   A    
C30   C38   A    
C3    C18   A    
C60   C62   A    
C60   O16   S    
C11   C23   S    
C100  H65   S    
C69   C71   A    
C93   C94   A    
C15   C26   A    
C61   H11   S    
C1    O3    A    
C103  H68   S    
C99   C100  A    
C112  H77   S    
C11   C67   A    
C109  C110  A    
C65   C67   A    
C110  H74   S    
C86   H53   S    
C95   C96   A    
C107  C108  A    
C42   H10   S    
C72   C93   S    
C84   H49   S    
C45   N1    A    
C114  C115  S    
C97   H63   S    
C75   C76   S    
C51   N3    A    
C76   H29   S    
C1    C27   S    
C48   C50   A    
C67   H20   S    
Cu2   O3    S    
C28   C34   A    
C108  C109  A    
Cu2   O2    S    
C5    C45   A    
C41   C43   A    
C81   C82   S    
C22   C105  S    
C52   H13   S    
C95   H61   S    
C42   C44   A    
C15   C17   A    
C82   H44   S    
C91   C92   A    
C52   C54   A    
C97   C98   A    
C39   C42   A    
C57   C58   A    
C53   C55   A    
C10   C21   A    
C92   H59   S    
C7    H17   S    
C80   H40   S    
C54   C56   A    
C59   C61   A    
C68   H19   S    
C70   C72   A    
C13   C19   A    
C27   C31   A    
C50   O13   S    
C14   C20   A    
C36   C40   A    
C8    H18   S    
C83   H45   S    
C72   C74   A    
C114  H82   S    
C5    C7    A    
C63   O12   S    
C19   H23   S    
C113  H79   S    
C111  H75   S    
C57   C60   A    
C6    C8    A    
C115  C116  S    
C3    C5    A    
C58   C59   A    
C62   H12   S    
C64   O11   S    
O17   C111  S    
C102  C103  A    
C51   C53   A    
C85   H50   S    
C37   C43   A    
C35   C39   A    
Cu1   Cu2   S    
C43   H25   S    
C38   C44   A    
C3    C9    A    
C34   H3    S    
C114  H83   S    
C80   H39   S    
C45   O9    S    
C86   H52   S    
C20   H24   S    
C28   C32   A    
Cu2   O6    S    
Cu2   O7    S    
C86   H54   S    
C106  H70   S    
Cu1   O8    S    
C7    C25   A    
C84   C85   S    
C115  H85   S    
C101  H66   S    
C94   H60   S    
C90   H57   S    
C104  H69   S    
C1    O1    A    
C4    C17   A    
C63   N1    A    
C40   C41   A    
C112  H78   S    
C20   C22   A    
C102  H67   S    
C49   N3    A    
C108  H72   S    
C29   C37   A    
C81   H42   S    
C4    C6    A    
C4    C10   A    
C78   H34   S    
C39   C40   A    
C82   C83   S    
C41   H9    S    
C75   H27   S    
C75   H28   S    
C47   C55   A    
C98   H64   S    
C54   C58   A    
C89   H56   S    
C64   N2    A    
C12   C70   A    
C2    O4    A    
Cu1   O4    S    
C77   H32   S    
C6    C46   A    
C116  H86   S    
C9    C63   A    
C47   H15   S    
C85   C86   S    
C10   C64   A    
C105  C106  A    
C78   H35   S    
C113  H81   S    
C53   C57   A    
C76   C77   S    
O13   C75   S    
C11   C69   A    
C33   H4    S    
C21   C99   S    
C91   H58   S    
C46   O10   S    
C23   O5    A    
C80   H38   S    
C12   C24   S    
C79   H36   S    
Cu1   O5    S    
C77   H33   S    
C13   C17   A    
C16   C18   A    
C85   H51   S    
O14   C78   S    
C100  C101  A    
C101  C102  A    
C29   C31   A    
C94   C95   A    
C56   C62   A    
O15   C81   S    
C36   C38   A    
C30   C32   A    
C105  C110  A    
O18   C114  S    
C90   C91   A    
C46   N2    A    
C77   H31   S    
C55   C61   A    
C2    O2    A    
C116  H87   S    
C79   H37   S    
C87   C92   A    
C34   C36   A    
C30   H8    S    
C103  C104  A    
C52   N4    A    
C73   N1    S    
C112  C113  S    
O16   C84   S    
C59   O15   S    
Cu1   N4    S    
C111  H76   S    
C96   C97   A    
C48   H16   S    
C13   C16   A    
C71   C73   A    
C107  H71   S    
C50   N4    A    
C81   H41   S    
C2    C28   S    
C23   O7    A    
C84   H48   S    
C25   O17   S    
C115  H84   S    
C19   C21   A    
C44   H26   S    
