data_mof_unit_18688.cif
_audit_creation_date              2012-12-10T22:11:07-0500
_audit_creation_method            fapswitch 2.2
_symmetry_space_group_name_H-M    P1
_symmetry_Int_Tables_number       1
_space_group_crystal_system       triclinic
_cell_length_a                    12.139006
_cell_length_b                    12.280906
_cell_length_c                    23.302598
_cell_angle_alpha                 89.644111
_cell_angle_beta                  91.730164
_cell_angle_gamma                 90.989583
_cell_volume                      3471.74660823

loop_
_atom_site_label
_atom_site_type_symbol
_atom_type_description
_atom_site_fract_x
_atom_site_fract_y
_atom_site_fract_z
_atom_type_partial_charge
C1    C     C_R   0.660808 0.998250 0.577389 0.881254
C2    C     C_R   0.335005 0.000823 0.424752 0.878392
C3    C     C_R   0.891589 0.792933 0.132747 0.025500
C4    C     C_R   0.077046 0.168509 0.886826 0.029714
C5    C     C_R   0.088202 0.898101 0.173269 0.056100
C6    C     C_R   0.925417 0.177902 0.794268 0.076939
C7    C     C_R   0.093124 0.815805 0.130769 0.033778
C8    C     C_R   0.944156 0.270819 0.828502 0.027764
C9    C     C_R   0.892763 0.123949 0.168972 0.259884
C10   C     C_R   0.092877 0.812544 0.794519 0.220458
C11   C     C_R   0.909120 0.201636 0.126420 -0.231498
C12   C     C_R   0.083211 0.732993 0.836875 -0.291505
C13   C     C_R   0.115098 0.882984 0.322622 0.104027
C14   C     C_R   0.916467 0.093277 0.660653 0.111816
C15   C     C_R   0.186802 0.890852 0.372145 0.071006
C16   C     C_R   0.839369 0.078598 0.613774 0.044181
C17   C     C_R   0.829892 0.101061 0.303994 -0.246725
C18   C     C_R   0.109333 0.918810 0.665902 -0.158821
C19   C     C_R   0.755356 0.101580 0.347540 -0.206749
C20   C     C_R   0.187063 0.917703 0.624165 -0.224641
C21   C     C_3   0.980037 0.001163 0.250064 -0.042048
C22   C     C_3   0.016979 0.001821 0.750342 -0.037147
C23   C     C_R   0.653424 0.002672 0.421235 0.877459
C24   C     C_R   0.348763 0.997416 0.580023 0.857870
C25   C     C_R   0.073217 0.985992 0.298276 0.025996
C26   C     C_R   0.919331 0.011007 0.705740 0.023052
C27   C     C_R   0.231850 0.994822 0.389057 -0.175952
C28   C     C_R   0.752969 0.999073 0.619055 -0.155814
C29   C     C_R   0.879752 0.002602 0.287930 0.169937
C30   C     C_R   0.116565 0.994908 0.711552 0.210524
C31   C     C_R   0.732575 0.005028 0.377108 -0.007773
C32   C     C_R   0.272412 0.994350 0.625883 -0.005012
C33   C     C_R   0.978115 0.108992 0.212427 -0.007491
C34   C     C_R   0.013236 0.897880 0.790306 0.047330
C35   C     C_R   0.997265 0.274812 0.128562 -0.129935
C36   C     C_R   0.998418 0.733503 0.875671 -0.093805
C37   C     C_R   0.985499 0.911262 0.203568 -0.030593
C38   C     C_R   0.015606 0.100938 0.792311 -0.072307
C39   C     C_R   0.993659 0.760849 0.111999 -0.208359
C40   C     C_R   0.009470 0.259173 0.879071 -0.152223
C41   C     C_R   0.993869 0.666751 0.072643 0.883749
C42   C     C_R   0.006764 0.340671 0.923869 0.907100
C43   C     C_R   0.999544 0.355042 0.082418 0.877355
C44   C     C_R   0.999913 0.649931 0.920045 0.863025
C45   C     C_R   0.090401 0.079457 0.332534 -0.217393
C46   C     C_R   0.840337 0.926034 0.704030 -0.258775
C47   C     C_R   0.172995 0.089011 0.374531 0.041290
C48   C     C_R   0.752722 0.923131 0.664797 0.043913
C49   C     C_R   0.858439 0.909984 0.320688 -0.104876
C50   C     C_R   0.207471 0.067845 0.714040 -0.161406
C51   C     C_R   0.784925 0.909233 0.363877 -0.230359
C52   C     C_R   0.284083 0.068241 0.671082 -0.240707
C53   C     C_R   0.061985 0.191698 0.216466 -0.276272
C54   C     C_R   0.930821 0.896336 0.831705 -0.260162
C55   C     C_R   0.072976 0.274611 0.175335 0.097366
C56   C     C_R   0.918173 0.814848 0.872638 0.071747
C57   C     C_R   0.889948 0.847113 0.185165 0.211382
C58   C     C_R   0.096067 0.103849 0.838814 0.187216
H1    H     H_    0.901141 0.838204 0.311848 0.166918
H2    H     H_    0.214022 0.132253 0.745145 0.158239
H3    H     H_    0.126506 0.187760 0.248466 0.154249
H4    H     H_    0.879080 0.963773 0.834242 0.152302
H5    H     H_    0.849389 0.178549 0.284157 0.145895
H6    H     H_    0.042043 0.859883 0.662648 0.133101
H7    H     H_    0.770744 0.834002 0.387266 0.152020
H8    H     H_    0.351002 0.127820 0.672392 0.152675
H9    H     H_    0.851429 0.207064 0.090422 0.182960
H10   H     H_    0.143676 0.668975 0.839248 0.176558
H11   H     H_    0.716668 0.177327 0.358291 0.160191
H12   H     H_    0.178199 0.859620 0.589424 0.141326
H13   H     H_    0.038453 0.148131 0.324767 0.156853
H14   H     H_    0.846458 0.859883 0.733795 0.168289
O1    O     O_R   0.621380 0.090460 0.561410 -0.641382
O2    O     O_R   0.378620 0.909540 0.438590 -0.617876
O3    O     O_R   0.617150 0.909540 0.438590 -0.628023
O4    O     O_R   0.382850 0.090460 0.561410 -0.631123
O5    O     O_R   0.619720 0.093230 0.440890 -0.654528
O6    O     O_R   0.380280 0.906770 0.559110 -0.639005
O7    O     O_R   0.618800 0.906770 0.559110 -0.637276
O8    O     O_R   0.381200 0.093230 0.440890 -0.634127
O9    O     O_R   0.087590 0.627480 0.058790 -0.635001
O10   O     O_R   0.912410 0.372520 0.941210 -0.635489
O11   O     O_R   0.905660 0.383870 0.059980 -0.625175
O12   O     O_R   0.094340 0.616130 0.940020 -0.630260
O13   O     O_R   0.092570 0.390420 0.063230 -0.635876
O14   O     O_R   0.907430 0.609580 0.936770 -0.644976
O15   O     O_R   0.900680 0.620930 0.055550 -0.616588
O16   O     O_R   0.099320 0.379070 0.944450 -0.632012
Zn1   Zn    Zn3+2 0.501730 0.123520 0.501540 0.901896
Zn2   Zn    Zn3+2 0.498270 0.876480 0.498460 0.909570
Zn3   Zn    Zn3+2 0.125690 0.504390 0.002180 0.909835
Zn4   Zn    Zn3+2 0.874310 0.495610 0.997820 0.904145
C59   C     C_3   0.194887 0.197360 0.405411 -0.366001
C60   C     C_3   0.104230 0.282956 0.399187 -0.389340
C61   C     C_3   0.130554 0.382227 0.436536 -0.898839
H15   H     H_    0.137089 0.358239 0.482530 0.259170
H16   H     H_    0.209375 0.421079 0.423641 0.267695
H17   H     H_    0.063821 0.442466 0.430968 0.255384
H18   H     H_    0.095949 0.311349 0.354069 0.214948
H19   H     H_    0.024691 0.246075 0.412062 0.232000
H20   H     H_    0.204510 0.179849 0.452166 0.222339
H21   H     H_    0.272751 0.234060 0.389659 0.218704
C62   C     C_3   0.660763 0.836646 0.670155 -0.361327
C63   C     C_3   0.657242 0.772151 0.726996 -0.389661
C64   C     C_3   0.557561 0.694751 0.727395 -0.890722
H22   H     H_    0.480587 0.739926 0.718440 0.267143
H23   H     H_    0.565364 0.630984 0.694224 0.260311
H24   H     H_    0.552535 0.654613 0.770096 0.250698
H25   H     H_    0.731824 0.721591 0.732551 0.226527
H26   H     H_    0.652769 0.829416 0.763593 0.226543
H27   H     H_    0.580318 0.878167 0.664911 0.207516
H28   H     H_    0.668311 0.776875 0.634943 0.223502
N1    N     N_2   0.788984 0.842412 0.215594 -0.290589
H29   H     H_    0.724476 0.880320 0.194619 0.243938
C65   C     C_3   0.753322 0.735603 0.236578 -0.830556
H30   H     H_    0.782850 0.720250 0.281065 0.252413
H31   H     H_    0.783035 0.668521 0.210072 0.233074
H32   H     H_    0.661837 0.730545 0.237075 0.227448
N2    N     N_2   0.185747 0.030120 0.841144 -0.284768
H33   H     H_    0.173144 0.964094 0.867788 0.235145
C66   C     C_3   0.295829 0.077977 0.847672 -0.846660
H34   H     H_    0.349185 0.044428 0.814517 0.257108
H35   H     H_    0.333143 0.057175 0.890350 0.225913
H36   H     H_    0.295344 0.168131 0.842766 0.245647
C67   C     C_3   0.191118 0.973462 0.183571 -0.385474
C68   C     C_3   0.297013 0.925005 0.211364 -0.375707
C69   C     C_3   0.368979 0.011903 0.241846 -0.910308
H37   H     H_    0.324433 0.048490 0.277669 0.266644
H38   H     H_    0.445274 0.974369 0.259787 0.257161
H39   H     H_    0.392335 0.077156 0.211066 0.262784
H40   H     H_    0.276758 0.861645 0.243050 0.226088
H41   H     H_    0.349924 0.889800 0.178791 0.234044
H42   H     H_    0.211233 0.016746 0.143189 0.182256
H43   H     H_    0.173268 0.037704 0.211897 0.237184
C70   C     C_3   0.801207 0.145892 0.786833 -0.388367
C71   C     C_3   0.731691 0.197027 0.737105 -0.323048
C72   C     C_3   0.627736 0.250990 0.758061 -0.929775
H44   H     H_    0.581037 0.286361 0.720919 0.252292
H45   H     H_    0.574080 0.189615 0.779287 0.263461
H46   H     H_    0.648874 0.317038 0.788959 0.261324
H47   H     H_    0.778297 0.255137 0.710944 0.210492
H48   H     H_    0.703006 0.132004 0.707218 0.229947
H49   H     H_    0.785796 0.058393 0.782908 0.175164
H50   H     H_    0.762195 0.163347 0.828365 0.202657
N3    N     N_2   0.790390 0.063414 0.168814 -0.317384
H51   H     H_    0.751754 0.063987 0.207222 0.244674
C73   C     C_3   0.709070 0.076233 0.122333 -0.901875
H52   H     H_    0.638066 0.019807 0.129085 0.239024
H53   H     H_    0.744895 0.056226 0.080453 0.250505
H54   H     H_    0.677126 0.160510 0.121640 0.255831
N4    N     N_2   0.184334 0.804248 0.758213 -0.289182
H55   H     H_    0.174781 0.742308 0.728665 0.215789
C74   C     C_3   0.293393 0.807167 0.785421 -0.767705
H56   H     H_    0.347541 0.862389 0.760553 0.255033
H57   H     H_    0.328564 0.724238 0.786186 0.216899
H58   H     H_    0.292286 0.836741 0.830288 0.250511
C75   C     C_3   0.101306 0.766749 0.295611 -0.418393
C76   C     C_3   0.035960 0.674153 0.326805 -0.366600
C77   C     C_3   0.995915 0.585490 0.284898 -0.922568
H59   H     H_    0.948076 0.620463 0.248390 0.270994
H60   H     H_    0.067545 0.543125 0.267510 0.267769
H61   H     H_    0.943459 0.524843 0.307378 0.254258
H62   H     H_    0.088038 0.629608 0.358130 0.229743
H63   H     H_    0.966273 0.703266 0.351533 0.205322
H64   H     H_    0.068299 0.767704 0.252314 0.226414
H65   H     H_    0.184730 0.735161 0.288968 0.167755
C78   C     C_3   0.004422 0.185625 0.658192 -0.391516
C79   C     C_3   0.964670 0.303495 0.655124 -0.385894
C80   C     C_3   0.057883 0.381803 0.638648 -0.902079
H66   H     H_    0.126406 0.378548 0.671288 0.258748
H67   H     H_    0.090166 0.360393 0.596184 0.258851
H68   H     H_    0.026754 0.466292 0.636499 0.255823
H69   H     H_    0.894574 0.314287 0.625461 0.251757
H70   H     H_    0.937907 0.328434 0.697740 0.229339
H71   H     H_    0.054662 0.188833 0.697587 0.206224
H72   H     H_    0.061858 0.168934 0.623260 0.207538
C81   C     C_3   0.164842 0.361339 0.179696 -0.390116
C82   C     C_3   0.232878 0.365095 0.236432 -0.381060
C83   C     C_3   0.312305 0.462846 0.238091 -0.904651
H73   H     H_    0.369145 0.459742 0.201694 0.264311
H74   H     H_    0.265954 0.539976 0.235815 0.251249
H75   H     H_    0.361821 0.461760 0.278939 0.253227
H76   H     H_    0.176965 0.371799 0.272897 0.225844
H77   H     H_    0.281976 0.289855 0.241483 0.226531
H78   H     H_    0.222737 0.348304 0.144451 0.220091
H79   H     H_    0.126587 0.442368 0.173364 0.198252
C84   C     C_3   0.823623 0.817913 0.914564 -0.384577
C85   C     C_3   0.744129 0.914265 0.907908 -0.390861
C86   C     C_3   0.649955 0.905563 0.949559 -0.898990
H80   H     H_    0.602097 0.828782 0.942244 0.262915
H81   H     H_    0.682478 0.908441 0.994502 0.261781
H82   H     H_    0.593776 0.975116 0.942524 0.251277
H83   H     H_    0.789269 0.992349 0.916270 0.217219
H84   H     H_    0.707375 0.915573 0.863620 0.220010
H85   H     H_    0.772965 0.742375 0.908951 0.228272
H86   H     H_    0.860633 0.819670 0.958562 0.191444
C87   C     C_3   0.787382 0.791808 0.093631 -0.352903
C88   C     C_3   0.704534 0.696935 0.102901 -0.286353
C89   C     C_3   0.638232 0.669874 0.047944 -0.896998
H87   H     H_    0.585626 0.739486 0.035273 0.254826
H88   H     H_    0.693616 0.650869 0.012413 0.280443
H89   H     H_    0.584221 0.597651 0.055465 0.239429
H90   H     H_    0.746560 0.622158 0.118074 0.241388
H91   H     H_    0.644826 0.720068 0.135566 0.208656
H92   H     H_    0.743098 0.868689 0.098074 0.182780
H93   H     H_    0.812612 0.794782 0.048498 0.204547
C90   C     C_3   0.117695 0.133507 0.946793 -0.403917
C91   C     C_3   0.020892 0.088730 0.981296 -0.371861
C92   C     C_3   0.060316 0.041585 0.038783 -0.891940
H94   H     H_    0.117004 0.973344 0.031821 0.250879
H95   H     H_    0.103841 0.105334 0.064791 0.267796
H96   H     H_    0.988519 0.010132 0.062650 0.265660
H97   H     H_    0.961309 0.154199 0.989227 0.224610
H98   H     H_    0.977454 0.023070 0.956475 0.228830
H99   H     H_    0.179466 0.068692 0.945468 0.210066
H100  H     H_    0.160149 0.201229 0.970081 0.226679
C93   C     C_3   0.203008 0.793865 0.102329 -0.325606
C94   C     C_3   0.266559 0.700736 0.132895 -0.294937
C95   C     C_3   0.377102 0.682673 0.105493 -0.926896
H101  H     H_    0.364299 0.659306 0.059773 0.266529
H102  H     H_    0.428959 0.757961 0.108121 0.257259
H103  H     H_    0.421196 0.616234 0.128529 0.248631
H104  H     H_    0.280891 0.718469 0.178976 0.190243
H105  H     H_    0.219347 0.622896 0.132376 0.245432
H106  H     H_    0.191320 0.779581 0.055646 0.205253
H107  H     H_    0.256069 0.867241 0.099676 0.171504
C96   C     C_3   0.890246 0.378503 0.812690 -0.410113
C97   C     C_3   0.976736 0.464274 0.795408 -0.351948
C98   C     C_3   0.923252 0.558665 0.762511 -0.901834
H108  H     H_    0.875717 0.528402 0.724193 0.256935
H109  H     H_    0.867179 0.602837 0.790702 0.269168
H110  H     H_    0.987861 0.615821 0.747259 0.250921
H111  H     H_    0.021318 0.495687 0.834219 0.219806
H112  H     H_    0.038660 0.427162 0.767721 0.226973
H113  H     H_    0.832341 0.368641 0.776076 0.223205
H114  H     H_    0.839578 0.409301 0.847601 0.223160
C99   C     C_3   0.198419 0.793848 0.413683 -0.334505
C100  C     C_3   0.289220 0.712190 0.398254 -0.293365
C101  C     C_3   0.327382 0.646879 0.450945 -0.891894
H115  H     H_    0.366633 0.701511 0.483690 0.279948
H116  H     H_    0.256176 0.603467 0.470028 0.251430
H117  H     H_    0.388589 0.585965 0.438325 0.231437
H118  H     H_    0.260901 0.653228 0.365277 0.193585
H119  H     H_    0.361392 0.754380 0.379556 0.239453
H120  H     H_    0.213069 0.824403 0.458092 0.203627
H121  H     H_    0.117977 0.753147 0.419810 0.156728
C102  C     C_3   0.861845 0.128812 0.554167 -0.369875
C103  C     C_3   0.794205 0.230871 0.537491 -0.284752
C104  C     C_3   0.861625 0.318685 0.506928 -0.954743
H122  H     H_    0.941433 0.335740 0.529540 0.284648
H123  H     H_    0.877235 0.292165 0.462606 0.264083
H124  H     H_    0.814248 0.395186 0.504301 0.250177
H125  H     H_    0.727645 0.208521 0.506300 0.264927
H126  H     H_    0.753159 0.265341 0.575051 0.208499
H127  H     H_    0.950905 0.146022 0.549548 0.205993
H128  H     H_    0.844835 0.065549 0.520964 0.159919

loop_
_geom_bond_atom_site_label_1
_geom_bond_atom_site_label_2
_ccdc_geom_bond_type
C67   H43   S    
C16   C28   A    
C91   H97   S    
C5    C37   A    
C84   H86   S    
C45   H13   S    
C43   O11   A    
C80   H66   S    
C87   H92   S    
C61   H15   S    
C42   O10   A    
C73   H52   S    
C19   C31   A    
C69   H38   S    
N3    H51   S    
O13   Zn3   S    
C61   H17   S    
C81   H78   S    
C70   C71   S    
C39   C41   S    
C29   C49   A    
O6    Zn2   S    
C22   C34   S    
C79   H70   S    
O11   Zn4   S    
C12   H10   S    
O5    Zn1   S    
C104  H122  S    
C75   C76   S    
C36   C56   A    
C60   H18   S    
C7    C39   A    
C73   H53   S    
C98   H110  S    
C70   H50   S    
C63   H25   S    
C103  H126  S    
C21   C33   S    
C67   H42   S    
C65   H30   S    
C22   C38   S    
C58   N2    S    
C100  H119  S    
C92   H96   S    
O10   Zn4   S    
C21   C37   S    
C62   H27   S    
C51   H7    S    
O8    Zn1   S    
C86   H81   S    
C96   C97   S    
C32   C52   A    
O7    Zn2   S    
C71   H48   S    
C62   C63   S    
O3    Zn2   S    
C3    C87   S    
C38   C58   A    
C53   H3    S    
C101  H115  S    
C91   C92   S    
C65   H31   S    
C89   H89   S    
C50   C52   A    
N4    H55   S    
C6    C38   A    
C88   C89   S    
C18   C30   A    
O12   Zn3   S    
C68   H41   S    
C12   C36   A    
C35   C43   S    
C46   H14   S    
C82   H76   S    
C2    O2    A    
C36   C44   S    
C76   H63   S    
C93   H107  S    
C83   H75   S    
C102  H128  S    
C53   C55   A    
C30   C50   A    
C72   H44   S    
C3    C39   A    
C89   H87   S    
O15   Zn4   S    
C9    C33   A    
C80   H67   S    
C20   H12   S    
C87   H93   S    
C60   C61   S    
C44   O14   A    
C13   C75   S    
C63   C64   S    
N3    C73   S    
C8    C96   S    
C11   H9    S    
C82   C83   S    
C46   C48   A    
C45   C47   A    
C33   C53   A    
C79   H69   S    
C41   O15   A    
C72   H46   S    
C54   C56   A    
C104  H123  S    
C35   C55   A    
C90   C91   S    
C43   O13   A    
C4    C40   A    
C94   H104  S    
C73   H54   S    
C101  H116  S    
C75   H64   S    
C78   C79   S    
C5    C7    A    
C103  H125  S    
C24   O4    A    
C6    C8    A    
C54   H4    S    
C49   C51   A    
C93   C94   S    
C55   C81   S    
C48   C62   S    
C21   C29   S    
C100  H118  S    
C70   H49   S    
C14   C26   A    
C81   H79   S    
C85   C86   S    
C23   C31   S    
C59   H21   S    
C86   H82   S    
C24   C32   S    
C23   O3    A    
C71   H47   S    
C96   H114  S    
C10   N4    S    
C1    C28   S    
C64   H23   S    
C15   C27   A    
C77   H59   S    
O16   Zn3   S    
C60   H19   S    
C102  C103  S    
C65   H32   S    
C41   O9    A    
C90   H99   S    
C92   H94   S    
C47   C59   S    
C77   H61   S    
C99   H120  S    
C10   C34   A    
C59   C60   S    
C64   H24   S    
C23   O5    A    
C74   H58   S    
C9    C11   A    
C66   H34   S    
C2    C27   S    
N2    C66   S    
C10   C12   A    
C76   H62   S    
C3    C57   A    
C24   O6    A    
C79   C80   S    
C56   C84   S    
C5    C67   S    
C85   H83   S    
C34   C54   A    
C13   C15   A    
C88   H91   S    
C76   C77   S    
C1    O7    A    
C80   H68   S    
C14   C16   A    
C19   H11   S    
C6    C70   S    
C74   H57   S    
C59   H20   S    
C69   H37   S    
C85   H84   S    
C25   C45   A    
C95   H101  S    
C52   H8    S    
C103  C104  S    
C4    C90   S    
C78   H71   S    
N1    H29   S    
C20   C32   A    
C16   C102  S    
C27   C47   A    
C86   H80   S    
C21   C25   S    
C100  C101  S    
C28   C48   A    
C104  H124  S    
C91   H98   S    
C22   C30   S    
C84   H85   S    
C72   H45   S    
C97   H112  S    
C102  H127  S    
C31   C51   A    
C71   C72   S    
C13   C25   A    
C49   H1    S    
C75   H65   S    
C57   N1    S    
N2    H33   S    
C61   H16   S    
C94   H105  S    
O1    Zn1   S    
C96   H113  S    
C64   H22   S    
C15   C99   S    
O9    Zn3   S    
C98   H108  S    
C44   O12   A    
C50   H2    S    
O2    Zn2   S    
C11   C35   A    
C77   H60   S    
C14   C78   S    
C69   H39   S    
C1    O1    A    
C84   C85   S    
C98   H109  S    
O14   Zn4   S    
C17   C29   A    
C17   H5    S    
C95   H103  S    
C63   H26   S    
C18   H6    S    
C94   C95   S    
C67   C68   S    
C68   H40   S    
C68   C69   S    
C9    N3    S    
C90   H100  S    
C92   H95   S    
C99   H121  S    
C101  H117  S    
C18   C20   A    
C95   H102  S    
N4    C74   S    
C87   C88   S    
C37   C57   A    
C89   H88   S    
C66   H35   S    
C2    O8    A    
C26   C46   A    
C97   C98   S    
C83   H73   S    
C7    C93   S    
C17   C19   A    
C42   O16   A    
C81   C82   S    
C22   C26   S    
C4    C58   A    
C88   H90   S    
C66   H36   S    
C40   C42   S    
C62   H28   S    
O4    Zn1   S    
C8    C40   A    
C83   H74   S    
C74   H56   S    
C99   C100  S    
C82   H77   S    
C93   H106  S    
C78   H72   S    
N1    C65   S    
C97   H111  S    
