data_mof_unit_33201.cif
_audit_creation_date              2012-12-10T19:12:20-0500
_audit_creation_method            fapswitch 2.2
_symmetry_space_group_name_H-M    P1
_symmetry_Int_Tables_number       1
_space_group_crystal_system       triclinic
_cell_length_a                    7.777184
_cell_length_b                    9.09601
_cell_length_c                    17.107285
_cell_angle_alpha                 89.626926
_cell_angle_beta                  94.550003
_cell_angle_gamma                 90.033247
_cell_volume                      1206.35280361

loop_
_atom_site_label
_atom_site_type_symbol
_atom_type_description
_atom_site_fract_x
_atom_site_fract_y
_atom_site_fract_z
_atom_type_partial_charge
C1    C     C_R   0.499958 0.219990 0.500021 0.842296
C2    C     C_R   0.500042 0.780010 0.499979 0.842296
C3    C     C_R   0.522488 0.492708 0.651282 0.809858
C4    C     C_R   0.477512 0.507292 0.348718 0.809858
C5    C     C_R   0.538351 0.483317 0.737384 -0.068973
C6    C     C_R   0.461649 0.516683 0.262616 -0.068976
C7    C     C_R   0.414374 0.555969 0.777326 -0.290887
C8    C     C_R   0.585629 0.444033 0.222674 -0.290886
C9    C     C_R   0.422318 0.553592 0.858190 -0.203882
C10   C     C_R   0.577686 0.446410 0.141810 -0.203885
C11   C     C_R   0.556075 0.478626 0.902128 0.299920
C12   C     C_R   0.443927 0.521373 0.097872 0.299921
C13   C     C_R   0.684953 0.404894 0.863192 0.142098
C14   C     C_R   0.315047 0.595103 0.136807 0.142099
C15   C     C_R   0.672757 0.402862 0.779613 0.123151
C16   C     C_R   0.327240 0.597134 0.220386 0.123152
C17   C     C_1   0.499960 0.065360 0.500011 -0.181493
C18   C     C_1   0.500039 0.934639 0.499989 -0.181493
Cu1   Cu    Cu3+1 0.669080 0.500010 0.500000 0.991438
Cu2   Cu    Cu3+1 0.330920 0.499990 0.500000 0.991438
H1    H     H_    0.689071 0.383167 0.254359 0.174578
H2    H     H_    0.310934 0.616837 0.745641 0.174577
H3    H     H_    0.676131 0.386967 0.113706 0.168877
H4    H     H_    0.323875 0.613037 0.886294 0.168876
N1    N     N_1   0.076820 0.499970 0.500010 -0.052403
N2    N     N_1   0.923180 0.500030 0.499990 -0.052403
N3    N     N_2   0.565920 0.477132 0.985499 -0.267770
N4    N     N_2   0.434083 0.522867 0.014501 -0.267768
O1    O     O_R   0.642760 0.288400 0.500000 -0.579047
O2    O     O_R   0.357240 0.711600 0.500000 -0.579047
O3    O     O_R   0.357190 0.288380 0.500000 -0.574458
O4    O     O_R   0.642810 0.711620 0.500000 -0.574457
O5    O     O_R   0.658410 0.498660 0.613920 -0.580797
O6    O     O_R   0.341590 0.501340 0.386080 -0.580798
O7    O     O_R   0.372840 0.498650 0.613930 -0.585197
O8    O     O_R   0.627160 0.501350 0.386070 -0.585198
C19   C     C_3   0.834873 0.331349 0.911539 -0.399787
C20   C     C_3   0.003911 0.414535 0.904407 -0.823623
H5    H     H_    0.044448 0.411005 0.843795 0.262514
H6    H     H_    0.988981 0.531208 0.921291 0.254338
H7    H     H_    0.107656 0.363993 0.944116 0.254489
H8    H     H_    0.813394 0.326045 0.974777 0.209811
H9    H     H_    0.847889 0.214616 0.894764 0.194873
C21   C     C_3   0.165125 0.668644 0.088460 -0.399781
C22   C     C_3   0.996089 0.585453 0.095592 -0.823652
H10   H     H_    0.011027 0.468781 0.078712 0.254342
H11   H     H_    0.955547 0.588989 0.156200 0.262516
H12   H     H_    0.892346 0.635985 0.055880 0.254492
H13   H     H_    0.152103 0.785377 0.105235 0.194873
H14   H     H_    0.186605 0.673949 0.025222 0.209810
C23   C     C_3   0.795420 0.312004 0.734695 -0.815123
H15   H     H_    0.871956 0.230859 0.770822 0.224799
H16   H     H_    0.721348 0.247054 0.688698 0.220842
H17   H     H_    0.887354 0.385551 0.707026 0.249563
C24   C     C_3   0.204572 0.687988 0.265304 -0.815116
H18   H     H_    0.128031 0.769130 0.229176 0.224799
H19   H     H_    0.112643 0.614437 0.292973 0.249563
H20   H     H_    0.278641 0.752942 0.311300 0.220842

loop_
_geom_bond_atom_site_label_1
_geom_bond_atom_site_label_2
_ccdc_geom_bond_type
C21   H13   S    
C19   H9    S    
C24   H18   S    
C4    O8    A    
C9    H4    S    
C19   C20   S    
C15   C23   S    
C10   H3    S    
C2    C18   S    
C7    H2    S    
C11   C13   A    
C14   C21   S    
C13   C19   S    
Cu1   Cu2   S    
C3    O7    A    
C2    O2    A    
C23   H17   S    
Cu2   O6    S    
C13   C15   A    
C17   C18   T    
C16   C24   S    
C5    C7    A    
C24   H19   S    
Cu2   O2    S    
C22   H10   S    
C20   H6    S    
C9    C11   A    
C10   C12   A    
C12   N4    S    
Cu1   O4    S    
C1    O1    A    
C12   C14   A    
C11   N3    S    
C8    H1    S    
C4    O6    A    
Cu1   O8    S    
C22   H11   S    
C20   H5    S    
C14   C16   A    
C5    C15   A    
C4    C6    S    
Cu2   N1    S    
C3    O5    A    
C6    C16   A    
C23   H15   S    
Cu1   O1    S    
C3    C5    S    
C1    O3    A    
C21   C22   S    
C20   H7    S    
C2    O4    A    
Cu1   O5    S    
C24   H20   S    
C21   H14   S    
C19   H8    S    
C7    C9    A    
Cu1   N2    S    
C6    C8    A    
C22   H12   S    
C23   H16   S    
N1    N2    T    
Cu2   O7    S    
C1    C17   S    
C8    C10   A    
N3    N4    D    
Cu2   O3    S    
