data_mof_unit_49342.cif
_audit_creation_date              2012-12-10T18:07:39-0500
_audit_creation_method            fapswitch 2.2
_symmetry_space_group_name_H-M    P1
_symmetry_Int_Tables_number       1
_space_group_crystal_system       triclinic
_cell_length_a                    11.529987
_cell_length_b                    12.594469
_cell_length_c                    13.078909
_cell_angle_alpha                 82.680253
_cell_angle_beta                  90.641113
_cell_angle_gamma                 102.373785
_cell_volume                      1839.75031247

loop_
_atom_site_label
_atom_site_type_symbol
_atom_type_description
_atom_site_fract_x
_atom_site_fract_y
_atom_site_fract_z
_atom_type_partial_charge
C1    C     C_R   0.475737 0.439551 0.690845 0.875479
C2    C     C_R   0.419633 0.666931 0.886276 0.431584
C3    C     C_R   0.395466 0.581325 0.826134 -0.286615
C4    C     C_R   0.717868 0.500873 0.500149 0.919091
C5    C     C_R   0.444617 0.514204 0.140259 -0.264941
C6    C     C_R   0.542390 0.704219 0.146736 0.367480
C7    C     C_R   0.439528 0.402282 0.798953 -0.154789
C8    C     C_R   0.329704 0.087860 0.349710 -0.155489
C9    C     C_R   0.635471 0.798046 0.632841 -0.087433
C10   C     C_R   0.660976 0.902144 0.666533 0.506815
C11   C     C_R   0.604521 0.981840 0.617493 -0.219156
C12   C     C_R   0.502221 0.596116 0.197254 -0.164357
C13   C     C_R   0.525891 0.960022 0.535189 -0.084111
C14   C     C_R   0.502475 0.853384 0.506883 0.169173
C15   C     C_R   0.468923 0.039170 0.480980 -0.029622
C16   C     C_R   0.512577 0.561042 0.307803 0.929844
C17   C     C_R   0.383909 0.008239 0.403829 0.023320
C18   C     C_R   0.357037 0.899192 0.381769 0.380080
C19   C     C_R   0.419385 0.825321 0.431138 -0.169200
C20   C     C_R   0.494761 0.149252 0.499169 0.005174
C21   C     C_R   0.359491 0.194792 0.371610 -0.000042
C22   C     C_R   0.282166 0.499285 0.499590 0.890227
C23   C     C_R   0.440141 0.293861 0.839599 -0.265085
C24   C     C_1   0.838875 0.502447 0.500069 -0.153901
C25   C     C_1   0.941010 0.501687 0.499624 0.027793
C26   C     C_1   0.059308 0.499530 0.499098 0.032314
C27   C     C_1   0.161314 0.498268 0.499028 -0.133943
C28   C     C_R   0.506256 0.729026 0.045374 -0.210535
C29   C     C_3   0.821484 0.869551 0.770697 0.078440
C30   C     C_3   0.784831 0.777468 0.860293 -0.315907
C31   C     C_3   0.880006 0.710243 0.880837 -0.925616
C32   C     C_3   0.307879 0.792241 0.836807 0.096484
C33   C     C_3   0.308495 0.899533 0.767325 -0.256268
C34   C     C_R   0.427488 0.261057 0.945207 0.441951
C35   C     C_3   0.185030 0.925465 0.760761 -0.934905
C36   C     C_R   0.419436 0.338022 0.011249 -0.274463
C37   C     C_R   0.418280 0.448211 0.971912 0.047386
C38   C     C_R   0.415271 0.476591 0.864452 0.021907
C39   C     C_R   0.434709 0.534205 0.034416 0.043720
C40   C     C_R   0.452321 0.644614 0.988749 -0.019729
H1    H     H_    0.265708 0.069559 0.290075 0.217883
H2    H     H_    0.367533 0.599987 0.747980 0.189098
H3    H     H_    0.317983 0.256612 0.330587 0.133179
H4    H     H_    0.536973 0.924593 0.196624 0.403147
H5    H     H_    0.175729 0.696901 0.234449 0.389359
H6    H     H_    0.901056 0.927399 0.794513 0.186899
H7    H     H_    0.850796 0.838974 0.701143 0.115875
H8    H     H_    0.770626 0.813894 0.930860 0.278745
H9    H     H_    0.699897 0.722221 0.843689 0.220051
H10   H     H_    0.894042 0.671222 0.811769 0.256834
H11   H     H_    0.851207 0.644919 0.946457 0.282883
H12   H     H_    0.558317 0.180284 0.554819 0.126606
H13   H     H_    0.965089 0.763324 0.900688 0.272776
H14   H     H_    0.277160 0.798973 0.915717 0.191399
H15   H     H_    0.244242 0.725452 0.804311 0.116361
H16   H     H_    0.371387 0.967752 0.797626 0.281003
H17   H     H_    0.338892 0.892761 0.688598 0.208997
H18   H     H_    0.121660 0.859831 0.727331 0.253758
H19   H     H_    0.189006 0.004240 0.710540 0.270953
H20   H     H_    0.152329 0.932969 0.838498 0.293094
H21   H     H_    0.240748 0.076356 0.019665 0.364864
H22   H     H_    0.672788 0.731657 0.669644 0.138769
H23   H     H_    0.622453 0.059478 0.647373 0.167103
H24   H     H_    0.403593 0.746193 0.406936 0.247791
H25   H     H_    0.529047 0.812901 0.008174 0.237548
H26   H     H_    0.408504 0.433458 0.179092 0.173443
H27   H     H_    0.454757 0.235472 0.789635 0.190374
H28   H     H_    0.418709 0.310105 0.092544 0.171604
N1    N     N_R   0.440320 0.222190 0.444690 -0.105272
N2    N     N_R   0.559060 0.776980 0.554780 -0.129019
O1    O     O_R   0.471500 0.366730 0.627160 -0.620636
O2    O     O_2   0.727801 0.874654 0.113839 -0.279054
O3    O     O_3   0.578519 0.889645 0.253784 -0.517280
O4    O     O_2   0.131605 0.875001 0.319244 -0.278714
O5    O     O_2   0.287048 0.908390 0.185481 -0.256119
O6    O     O_3   0.231940 0.714999 0.290650 -0.592160
O7    O     O_3   0.730389 0.928776 0.751472 -0.612529
O8    O     O_3   0.424269 0.773173 0.840976 -0.634320
O9    O     O_2   0.520712 0.085316 0.936105 -0.260922
O10   O     O_2   0.462211 0.117096 0.107237 -0.285941
O11   O     O_3   0.296126 0.044802 0.981500 -0.530056
O12   O     O_R   0.509620 0.544830 0.662520 -0.628590
O13   O     O_R   0.646490 0.410960 0.482310 -0.608231
O14   O     O_R   0.684610 0.589050 0.517670 -0.589288
O15   O     O_R   0.490380 0.455170 0.337480 -0.627362
O16   O     O_R   0.528500 0.633270 0.372840 -0.563516
O17   O     O_R   0.315390 0.410950 0.482330 -0.617466
O18   O     O_R   0.353510 0.589040 0.517690 -0.641655
O19   O     O_2   0.723550 0.756738 0.277282 -0.240307
S1    S     S_3+6 0.647952 0.806702 0.198868 0.068194
S2    S     S_3+6 0.248617 0.850980 0.291279 0.013047
S3    S     S_3+6 0.430651 0.124853 0.995093 0.030032
Zn1   Zn    Zn3+2 0.474550 0.381080 0.476390 0.956546
Zn2   Zn    Zn3+2 0.525450 0.618920 0.523610 0.988067

loop_
_geom_bond_atom_site_label_1
_geom_bond_atom_site_label_2
_ccdc_geom_bond_type
C24   C25   T    
C3    H2    S    
O12   Zn2   S    
C26   C27   T    
C29   C30   S    
C29   H7    S    
C35   H18   S    
C18   S2    S    
C30   H8    S    
C36   C37   A    
N2    Zn2   S    
O3    S1    S    
N1    Zn1   S    
C6    C12   A    
C30   C31   S    
C4    C24   S    
C28   C40   A    
O13   Zn1   S    
C35   H19   S    
C18   C19   A    
C23   H27   S    
O16   Zn2   S    
C21   H3    S    
O11   S3    S    
O15   Zn1   S    
C6    C28   A    
C12   C16   S    
C3    C38   A    
C22   O18   A    
C9    C10   A    
C32   H15   S    
O5    S2    D    
C33   H16   S    
C13   C14   A    
C16   O16   A    
C14   N2    A    
C32   H14   S    
C10   O7    S    
C8    C21   A    
C15   C20   A    
O18   Zn2   S    
C9    H22   S    
C8    H1    S    
C5    C12   A    
C39   C40   A    
C1    O12   A    
C6    S1    S    
C21   N1    A    
C35   H20   S    
O4    S2    D    
O10   S3    D    
C37   C38   A    
C2    O8    S    
O2    S1    D    
C4    O14   A    
C19   H24   S    
C23   C34   A    
C17   C18   A    
O14   Zn2   S    
C22   O17   A    
C31   H13   S    
O9    S3    D    
C30   H9    S    
C22   C27   S    
C13   C15   A    
C16   O15   A    
C20   N1    A    
C31   H10   S    
C15   C17   A    
C33   H17   S    
C1    C7    S    
C14   C19   A    
C31   H11   S    
C5    H26   S    
C36   H28   S    
O1    Zn1   S    
C11   H23   S    
C8    C17   A    
C29   H6    S    
C32   C33   S    
C5    C39   A    
C2    C3    A    
C25   C26   S    
C37   C39   A    
H21   O11   S    
C11   C13   A    
C4    O13   A    
C1    O1    A    
C7    C23   A    
O17   Zn1   S    
H5    O6    S    
C33   C35   S    
C7    C38   A    
C28   H25   S    
C34   C36   A    
H4    O3    S    
C34   S3    S    
C10   C11   A    
O6    S2    S    
C32   O8    S    
C9    N2    A    
C2    C40   A    
C29   O7    S    
C20   H12   S    
O19   S1    D    
