data_mof_unit_36906.cif
_audit_creation_date              2012-12-10T17:25:33-0500
_audit_creation_method            fapswitch 2.2
_symmetry_space_group_name_H-M    P1
_symmetry_Int_Tables_number       1
_space_group_crystal_system       triclinic
_cell_length_a                    10.109109
_cell_length_b                    10.64606
_cell_length_c                    23.421213
_cell_angle_alpha                 90.119151
_cell_angle_beta                  82.029296
_cell_angle_gamma                 93.55765
_cell_volume                      2491.42538154

loop_
_atom_site_label
_atom_site_type_symbol
_atom_type_description
_atom_site_fract_x
_atom_site_fract_y
_atom_site_fract_z
_atom_type_partial_charge
C1    C     C_R   0.553615 0.733497 0.500286 0.967826
C2    C     C_R   0.616027 0.496135 0.289371 -0.165331
C3    C     C_R   0.627219 0.491134 0.753648 -0.127841
C4    C     C_R   0.613873 0.496215 0.230405 -0.151099
C5    C     C_R   0.508324 0.499561 0.791318 0.172467
C6    C     C_R   0.492383 0.499859 0.208653 0.172898
C7    C     C_2   0.578487 0.867240 0.508673 -0.440111
C8    C     C_2   0.424145 0.133106 0.519892 -0.452149
C9    C     C_2   0.494725 0.933332 0.545536 0.345359
C10   C     C_2   0.513597 0.068183 0.543855 0.360514
C11   C     C_2   0.926537 0.509820 0.505027 -0.067856
C12   C     C_R   0.446951 0.266588 0.507685 0.970693
C13   C     C_2   0.073724 0.491049 0.494538 -0.110901
C14   C     C_R   0.501120 0.499699 0.610709 0.986315
C15   C     C_R   0.498811 0.500024 0.389298 0.895107
C16   C     C_R   0.489876 0.387181 0.119918 0.582755
C17   C     C_R   0.524598 0.612175 0.879220 0.601191
C18   C     C_R   0.508058 0.612374 0.119047 0.592828
C19   C     C_R   0.507515 0.386973 0.880040 0.573441
C20   C     C_R   0.513769 0.614789 0.059168 -0.031973
C21   C     C_R   0.505527 0.384518 0.939736 -0.006366
C22   C     C_R   0.507189 0.499684 0.029563 -0.016199
C23   C     C_R   0.385454 0.507843 0.770127 0.400463
C24   C     C_R   0.512058 0.499628 0.969345 -0.006257
C25   C     C_R   0.495679 0.384635 0.060036 -0.026452
C26   C     C_R   0.523035 0.614686 0.938895 -0.023411
C27   C     C_R   0.525891 0.728870 0.028398 -0.128269
C28   C     C_R   0.495296 0.270421 0.970415 -0.126401
C29   C     C_R   0.530464 0.728820 0.968727 -0.120649
C30   C     C_R   0.490308 0.270479 0.030106 -0.125055
C31   C     C_R   0.370964 0.503417 0.245987 0.510323
C32   C     C_R   0.384290 0.507756 0.710731 -0.207530
C33   C     C_R   0.373975 0.503865 0.305350 -0.281577
C34   C     C_R   0.503678 0.499397 0.672836 -0.076425
C35   C     C_R   0.496172 0.500126 0.327195 -0.120763
C36   C     C_R   0.625186 0.491132 0.694613 -0.125991
H1    H     H_    0.531289 0.818376 0.050299 0.197107
H2    H     H_    0.711479 0.493434 0.305248 0.197968
H3    H     H_    0.721281 0.484802 0.770356 0.185940
H4    H     H_    0.706793 0.493436 0.201315 0.177960
H5    H     H_    0.336449 0.084428 0.506001 0.163579
H6    H     H_    0.662882 0.915072 0.481765 0.160514
H7    H     H_    0.111699 0.425260 0.461726 0.170341
H8    H     H_    0.888804 0.576795 0.537333 0.166311
H9    H     H_    0.214156 0.323626 0.843012 0.375274
H10   H     H_    0.134082 0.625421 0.159862 0.388732
H11   H     H_    0.773418 0.063565 0.637325 0.401915
H12   H     H_    0.490227 0.180913 0.948497 0.197819
H13   H     H_    0.399502 0.000437 0.668402 0.394445
H14   H     H_    0.117080 0.610799 0.555051 0.221953
H15   H     H_    0.881893 0.386313 0.445997 0.193054
H16   H     H_    0.539023 0.818287 0.946154 0.197609
H17   H     H_    0.481784 0.181008 0.052674 0.198104
H18   H     H_    0.290332 0.514350 0.694021 0.216149
H19   H     H_    0.281228 0.506423 0.334518 0.203770
H20   H     H_    0.718536 0.484834 0.666128 0.188311
N1    N     N_R   0.494586 0.499834 0.147838 -0.346954
N2    N     N_R   0.513856 0.499591 0.851628 -0.345271
N3    N     N_2   0.842710 0.448880 0.476480 -0.163307
N4    N     N_2   0.157290 0.551120 0.523520 -0.173164
O1    O     O_R   0.431060 0.692470 0.504730 -0.551401
O2    O     O_2   0.535495 0.720894 0.848891 -0.496990
O3    O     O_2   0.515847 0.721153 0.148459 -0.503339
O4    O     O_2   0.501263 0.278189 0.850541 -0.528317
O5    O     O_2   0.236945 0.642571 0.848044 -0.203847
O6    O     O_2   0.116024 0.512204 0.783787 -0.278352
O7    O     O_3   0.213672 0.401885 0.865969 -0.517511
O8    O     O_2   0.196610 0.392089 0.182943 -0.270199
O9    O     O_2   0.102282 0.508165 0.267930 -0.306151
O10   O     O_3   0.216495 0.636287 0.178281 -0.517842
O11   O     O_2   0.760238 0.184663 0.535337 -0.289628
O12   O     O_R   0.568940 0.307530 0.495270 -0.547845
O13   O     O_2   0.597144 0.236259 0.618712 -0.319752
O14   O     O_3   0.702515 0.020399 0.617880 -0.528183
O15   O     O_2   0.248690 0.821375 0.573574 -0.272367
O16   O     O_2   0.421318 0.764571 0.631171 -0.301131
O17   O     O_3   0.321619 0.982336 0.647607 -0.483613
O18   O     O_R   0.651120 0.659650 0.489640 -0.615340
O19   O     O_R   0.348880 0.340350 0.510360 -0.612352
O20   O     O_R   0.389950 0.516450 0.591390 -0.590147
O21   O     O_R   0.610050 0.483550 0.408610 -0.619191
O22   O     O_R   0.610020 0.483630 0.576300 -0.599113
O23   O     O_R   0.389980 0.516370 0.423700 -0.625468
O24   O     O_2   0.479588 0.278429 0.150197 -0.509220
S1    S     S_3+6 0.233341 0.519084 0.816972 0.075651
S2    S     S_3+6 0.215887 0.506650 0.219201 0.044935
S3    S     S_3+6 0.646660 0.133456 0.578956 0.041959
S4    S     S_3+6 0.368956 0.869639 0.599974 0.087677
Zn1   Zn    Zn3+2 0.353060 0.521920 0.510080 1.039049
Zn2   Zn    Zn3+2 0.646940 0.478080 0.489920 1.036294

loop_
_geom_bond_atom_site_label_1
_geom_bond_atom_site_label_2
_ccdc_geom_bond_type
C2    C35   A    
C33   H19   S    
C16   C25   A    
C27   C29   A    
O8    S2    D    
O6    S1    D    
C15   O21   A    
C13   N4    D    
N4    Zn1   S    
O18   Zn2   S    
C5    N2    S    
C17   C26   A    
C19   C21   A    
C24   C26   A    
C9    S4    S    
C18   O3    S    
C12   O19   A    
C16   O24   S    
C7    H6    S    
C32   H18   S    
O20   Zn1   S    
O13   S3    D    
C4    H4    S    
O17   S4    S    
C22   C25   A    
H9    O7    S    
C31   C33   A    
C14   O20   A    
O14   S3    S    
C9    C10   S    
O16   S4    D    
C18   C20   A    
C17   N2    A    
C6    C31   A    
C12   O12   A    
C3    H3    S    
C31   S2    S    
C1    O18   A    
C6    N1    S    
C11   N3    D    
C15   C35   S    
O1    Zn1   S    
C19   N2    A    
O23   Zn1   S    
C30   H17   S    
C10   S3    S    
O7    S1    S    
H10   O10   S    
C8    H5    S    
C4    C6    A    
C15   O23   A    
N3    Zn2   S    
C32   C34   A    
C2    C4    A    
C36   H20   S    
C17   O2    S    
O12   Zn2   S    
C2    H2    S    
C18   N1    A    
C5    C23   A    
C19   O4    S    
C8    C12   S    
C11   H8    S    
O11   S3    D    
O21   Zn2   S    
C21   C28   A    
C20   C22   A    
C22   C24   A    
H15   N3    S    
C14   O22   A    
O10   S2    S    
C13   H7    S    
C25   C30   A    
C7    C9    D    
C28   H12   S    
C1    C7    S    
H11   O14   S    
C3    C5    A    
C1    O1    A    
C14   C34   S    
O5    S1    D    
C20   C27   A    
O22   Zn2   S    
H14   N4    S    
C23   C32   A    
C28   C30   A    
C11   C13   S    
C3    C36   A    
C27   H1    S    
C33   C35   A    
H13   O17   S    
C34   C36   A    
C16   N1    A    
O19   Zn1   S    
O15   S4    D    
C26   C29   A    
C8    C10   D    
C23   S1    S    
C21   C24   A    
O9    S2    D    
C29   H16   S    
