data_mof_unit_26674.cif
_audit_creation_date              2013-03-05T15:49:00-0500
_audit_creation_method            fapswitch 2.2
_symmetry_space_group_name_H-M    P1
_symmetry_Int_Tables_number       1
_space_group_crystal_system       triclinic
_cell_length_a                    17.940406
_cell_length_b                    18.157244
_cell_length_c                    12.117671
_cell_angle_alpha                 89.790663
_cell_angle_beta                  82.425599
_cell_angle_gamma                 90.01154
_cell_volume                      3912.84189935

loop_
_atom_site_label
_atom_site_type_symbol
_atom_site_description
_atom_site_fract_x
_atom_site_fract_y
_atom_site_fract_z
_atom_type_partial_charge
O1    O     O_R   0.418020 0.076820 0.422210 -0.600113
O2    O     O_R   0.581980 0.923180 0.577790 -0.600106
O3    O     O_R   0.581980 0.076820 0.577790 -0.609717
O4    O     O_R   0.418020 0.923180 0.422210 -0.609712
O5    O     O_R   0.918020 0.576820 0.422210 -0.600113
O6    O     O_R   0.081980 0.423180 0.577790 -0.600109
O7    O     O_R   0.081980 0.576820 0.577790 -0.609723
O8    O     O_R   0.918020 0.423180 0.422210 -0.609726
O9    O     O_R   0.430370 0.076830 0.608590 -0.636537
O10   O     O_R   0.569630 0.923170 0.391410 -0.636516
O11   O     O_R   0.569630 0.076830 0.391410 -0.629700
O12   O     O_R   0.430370 0.923170 0.608590 -0.629688
O13   O     O_R   0.930370 0.576830 0.608590 -0.636515
O14   O     O_R   0.069630 0.423170 0.391410 -0.636537
O15   O     O_R   0.069630 0.576830 0.391410 -0.629682
O16   O     O_R   0.930370 0.423170 0.608590 -0.629699
C1    C     C_R   0.399626 0.099792 0.523759 0.887785
C2    C     C_R   0.600370 0.900204 0.476242 0.887801
C3    C     C_R   0.598554 0.101577 0.476695 0.888050
C4    C     C_R   0.401441 0.898427 0.523306 0.888034
C5    C     C_R   0.899629 0.599795 0.523759 0.887810
C6    C     C_R   0.100374 0.400207 0.476241 0.887788
C7    C     C_R   0.098560 0.601571 0.476693 0.888044
C8    C     C_R   0.901446 0.398422 0.523304 0.888064
C9    C     C_R   0.589212 0.002397 0.820380 -0.019796
C10   C     C_R   0.410789 0.997600 0.179620 -0.019790
C11   C     C_R   0.089211 0.502406 0.820380 -0.019796
C12   C     C_R   0.910789 0.497594 0.179620 -0.019821
Zn1   Zn    Zn3+2 0.491750 0.000000 0.375560 0.931728
Zn2   Zn    Zn3+2 0.508250 0.000000 0.624440 0.931724
Zn3   Zn    Zn3+2 0.991750 0.500000 0.375560 0.931719
Zn4   Zn    Zn3+2 0.008250 0.500000 0.624440 0.931727
C13   C     C_R   0.599149 0.002934 0.932309 -0.333200
C14   C     C_R   0.400851 0.997063 0.067691 -0.333192
C15   C     C_R   0.099148 0.502945 0.932309 -0.333193
C16   C     C_R   0.900852 0.497056 0.067691 -0.333199
H1    H     H_    0.362440 0.995658 0.242992 0.142423
H2    H     H_    0.637560 0.004335 0.757007 0.142432
H3    H     H_    0.862441 0.495650 0.242992 0.142427
H4    H     H_    0.137559 0.504352 0.757008 0.142428
C17   C     C_R   0.456176 0.998800 0.869022 0.301846
C18   C     C_R   0.543824 0.001200 0.130978 0.301837
C19   C     C_R   0.956176 0.498797 0.869022 0.301845
C20   C     C_R   0.043824 0.501204 0.130978 0.301852
C21   C     C_R   0.652831 0.159730 0.459483 -0.105790
C22   C     C_R   0.347156 0.840283 0.540524 -0.105717
C23   C     C_R   0.342690 0.155324 0.541866 -0.109213
C24   C     C_R   0.657305 0.844672 0.458131 -0.109201
C25   C     C_R   0.152857 0.659704 0.459474 -0.105727
C26   C     C_R   0.847164 0.340275 0.540517 -0.105794
C27   C     C_R   0.842701 0.655333 0.541865 -0.109219
C28   C     C_R   0.157314 0.344680 0.458132 -0.109212
C29   C     C_R   0.231889 0.795251 0.641054 0.222844
C30   C     C_R   0.768048 0.204826 0.358873 0.222825
C31   C     C_R   0.693574 0.725624 0.384187 0.224662
C32   C     C_R   0.306405 0.274353 0.615831 0.224662
C33   C     C_R   0.731937 0.295195 0.641116 0.222844
C34   C     C_R   0.268140 0.704712 0.358954 0.222866
C35   C     C_R   0.193614 0.225658 0.384147 0.224635
C36   C     C_R   0.806459 0.774390 0.615764 0.224704
C37   C     C_R   0.292568 0.842909 0.632656 -0.280330
C38   C     C_R   0.707375 0.157159 0.367285 -0.280295
C39   C     C_R   0.647216 0.786670 0.387547 -0.280167
C40   C     C_R   0.352759 0.213304 0.612476 -0.280159
C41   C     C_R   0.792616 0.342855 0.632707 -0.280288
C42   C     C_R   0.207452 0.657064 0.367352 -0.280319
C43   C     C_R   0.147254 0.286702 0.387510 -0.280169
C44   C     C_R   0.852803 0.713335 0.612423 -0.280128
C45   C     C_R   0.347052 0.785517 0.460013 0.148279
C46   C     C_R   0.652972 0.214456 0.540052 0.148256
C47   C     C_R   0.718690 0.847384 0.517710 0.151881
C48   C     C_R   0.281329 0.152635 0.482242 0.151864
C49   C     C_R   0.847018 0.285551 0.459946 0.148237
C50   C     C_R   0.152970 0.714469 0.539984 0.148267
C51   C     C_R   0.218677 0.347374 0.517752 0.151880
C52   C     C_R   0.781318 0.652628 0.482277 0.151844
C53   C     C_R   0.279609 0.747225 0.453905 0.042506
C54   C     C_R   0.720421 0.252742 0.546129 0.042514
C55   C     C_R   0.756722 0.781275 0.533763 0.045660
C56   C     C_R   0.243310 0.218750 0.466191 0.045648
C57   C     C_R   0.779565 0.247274 0.453865 0.042507
C58   C     C_R   0.220419 0.752748 0.546096 0.042514
C59   C     C_R   0.256703 0.281261 0.533796 0.045675
C60   C     C_R   0.743298 0.718741 0.466206 0.045573
N1    N     N_R   0.480750 0.000000 0.209750 -0.101170
N2    N     N_R   0.519250 1.000000 0.790250 -0.101171
N3    N     N_R   0.980750 0.500000 0.209750 -0.101170
N4    N     N_R   0.019250 0.500000 0.790250 -0.101171
H5    H     H_    0.656243 0.004988 0.951585 0.167614
H6    H     H_    0.343758 0.995007 0.048414 0.167617
H7    H     H_    0.156241 0.505008 0.951585 0.167617
H8    H     H_    0.843759 0.494994 0.048415 0.167615
C61   C     C_R   0.463713 0.998950 0.984033 0.056409
C62   C     C_R   0.536287 0.001049 0.015967 0.056414
C63   C     C_R   0.963713 0.498948 0.984033 0.056417
C64   C     C_R   0.036286 0.501053 0.015967 0.056411
C65   C     C_3   0.621788 0.002060 0.164602 -0.889297
H9    H     H_    0.622861 0.000427 0.253918 0.292851
H10   H     H_    0.653627 0.953055 0.130035 0.218065
H11   H     H_    0.651630 0.053047 0.133045 0.211213
C66   C     C_3   0.378212 0.997938 0.835398 -0.889304
H12   H     H_    0.377139 0.999574 0.746082 0.292845
H13   H     H_    0.348372 0.946950 0.866951 0.211236
H14   H     H_    0.346371 0.046942 0.869967 0.218055
C67   C     C_3   0.121788 0.502068 0.164602 -0.889314
H15   H     H_    0.122860 0.500426 0.253917 0.292844
H16   H     H_    0.153631 0.453068 0.130027 0.218052
H17   H     H_    0.151625 0.553059 0.133056 0.211241
C68   C     C_3   0.878212 0.497933 0.835398 -0.889311
H18   H     H_    0.877139 0.499573 0.746083 0.292849
H19   H     H_    0.848374 0.446944 0.866948 0.211217
H20   H     H_    0.846370 0.546935 0.869971 0.218065
C69   C     C_3   0.578374 0.237524 0.604714 -0.863483
H21   H     H_    0.530685 0.222101 0.559588 0.221684
H22   H     H_    0.569096 0.210481 0.687569 0.253589
H23   H     H_    0.575220 0.298354 0.612005 0.235729
C70   C     C_3   0.421673 0.762426 0.395449 -0.863586
H24   H     H_    0.469339 0.777894 0.440594 0.221671
H25   H     H_    0.424839 0.701593 0.388257 0.235749
H26   H     H_    0.430981 0.789416 0.312557 0.253573
C71   C     C_3   0.251613 0.077768 0.453484 -0.873906
H27   H     H_    0.271174 0.033586 0.506494 0.218434
H28   H     H_    0.189344 0.076610 0.471187 0.238652
H29   H     H_    0.270997 0.063299 0.365752 0.242858
C72   C     C_3   0.748401 0.922268 0.546420 -0.873920
H30   H     H_    0.728792 0.966441 0.493446 0.218426
H31   H     H_    0.729065 0.936740 0.634167 0.242854
H32   H     H_    0.810662 0.923446 0.528623 0.238651
C73   C     C_3   0.078352 0.737580 0.604536 -0.863596
H33   H     H_    0.030690 0.722152 0.559354 0.221669
H34   H     H_    0.069017 0.710568 0.687410 0.253576
H35   H     H_    0.075213 0.798413 0.611772 0.235768
C74   C     C_3   0.921613 0.262474 0.395283 -0.863461
H36   H     H_    0.969303 0.277872 0.440429 0.221678
H37   H     H_    0.924752 0.201643 0.387956 0.235732
H38   H     H_    0.930903 0.289535 0.312440 0.253588
C75   C     C_3   0.751587 0.577748 0.453576 -0.873801
H39   H     H_    0.771164 0.533580 0.506605 0.218413
H40   H     H_    0.689314 0.576587 0.471315 0.238626
H41   H     H_    0.770952 0.563260 0.365837 0.242840
C76   C     C_3   0.248380 0.422245 0.546522 -0.873928
H42   H     H_    0.228801 0.466430 0.493541 0.218439
H43   H     H_    0.229008 0.436701 0.634260 0.242861
H44   H     H_    0.310644 0.423415 0.528791 0.238657
H45   H     H_    0.702326 0.118032 0.301279 0.168293
H46   H     H_    0.297587 0.882075 0.698620 0.168250
H47   H     H_    0.396875 0.210710 0.665598 0.176396
H48   H     H_    0.603081 0.789244 0.334446 0.176387
H49   H     H_    0.202430 0.617893 0.301396 0.168236
H50   H     H_    0.797667 0.381985 0.698707 0.168282
H51   H     H_    0.896942 0.710754 0.665514 0.176377
H52   H     H_    0.103138 0.289293 0.334385 0.176401
C77   C     C_3   0.686213 0.287441 0.754623 -0.900210
H53   H     H_    0.718327 0.307142 0.821226 0.233669
H54   H     H_    0.634224 0.320917 0.760499 0.241870
H55   H     H_    0.673427 0.228587 0.773563 0.247506
C78   C     C_3   0.313928 0.712387 0.245486 -0.900191
H56   H     H_    0.281863 0.692623 0.178866 0.233666
H57   H     H_    0.326719 0.771228 0.226457 0.247510
H58   H     H_    0.365916 0.678919 0.239740 0.241870
C79   C     C_3   0.191985 0.173929 0.286999 -0.903839
H59   H     H_    0.166667 0.200861 0.218250 0.235087
H60   H     H_    0.250085 0.158630 0.251447 0.247077
H61   H     H_    0.157337 0.124593 0.311833 0.241839
C80   C     C_3   0.808168 0.826165 0.712834 -0.903982
H62   H     H_    0.833559 0.799279 0.781530 0.235105
H63   H     H_    0.842790 0.875491 0.687890 0.241866
H64   H     H_    0.750096 0.841471 0.748486 0.247078
C81   C     C_3   0.186110 0.787554 0.754529 -0.900177
H65   H     H_    0.218200 0.807265 0.821155 0.233675
H66   H     H_    0.134139 0.821051 0.760319 0.241865
H67   H     H_    0.173290 0.728711 0.773511 0.247517
C82   C     C_3   0.813760 0.212602 0.245357 -0.900159
H68   H     H_    0.781623 0.192941 0.178747 0.233668
H69   H     H_    0.826563 0.271459 0.226457 0.247502
H70   H     H_    0.865740 0.179105 0.239442 0.241860
C83   C     C_3   0.691910 0.673866 0.287058 -0.903643
H71   H     H_    0.666570 0.700778 0.218295 0.235044
H72   H     H_    0.750009 0.658567 0.251476 0.247040
H73   H     H_    0.657258 0.624526 0.311949 0.241801
C84   C     C_3   0.308055 0.326089 0.712957 -0.903981
H74   H     H_    0.333395 0.299167 0.781675 0.235116
H75   H     H_    0.342688 0.375422 0.688102 0.241867
H76   H     H_    0.249965 0.341387 0.748545 0.247086

loop_
_geom_bond_atom_site_label_1
_geom_bond_atom_site_label_2
_geom_bond_distance
_ccdc_geom_bond_type
O6    Zn4   1.955549 S    
C36   C55   1.425501 A    
C20   C67   1.507610 S    
C61   C62   1.406872 A    
C48   C71   1.518465 S    
C46   C54   1.405867 A    
C31   C83   1.512180 S    
C81   H65   1.111722 S    
O13   Zn4   2.001176 S    
C45   C53   1.405897 A    
C63   C64   1.406869 A    
C54   C57   1.440077 A    
C14   C61   1.413875 A    
O14   Zn3   2.001177 S    
C28   C51   1.395055 A    
C51   C59   1.406346 A    
C13   C62   1.413876 A    
C52   C60   1.406345 A    
C70   H25   1.109191 S    
C47   C55   1.406377 A    
C79   H59   1.111906 S    
C15   H7    1.080839 S    
C15   C64   1.413870 A    
C73   H34   1.108669 S    
C17   N2    1.381003 A    
C67   H16   1.110544 S    
O11   C3    1.297652 A    
C80   H62   1.111694 S    
C20   C64   1.417856 A    
C19   N4    1.381002 A    
C30   C82   1.511875 S    
C69   H21   1.110767 S    
C76   H43   1.106672 S    
C55   C60   1.440855 A    
C84   H76   1.109832 S    
O2    C2    1.301491 A    
C32   C84   1.511871 S    
O6    C6    1.301488 A    
C21   C38   1.385672 A    
C41   H50   1.084384 S    
C22   C45   1.395796 A    
C51   C76   1.518467 S    
C34   C53   1.425078 A    
C35   C43   1.383372 A    
C29   C37   1.383475 A    
C10   C14   1.391161 A    
C78   H56   1.111697 S    
C17   C61   1.417855 A    
C83   H72   1.109974 S    
C38   H45   1.084389 S    
C31   C39   1.383369 A    
C72   H32   1.109539 S    
C19   C63   1.417856 A    
C32   C40   1.383377 A    
O3    C3    1.300416 A    
C77   H54   1.107923 S    
C20   N3    1.381001 A    
Zn1   N1    2.044624 S    
O4    Zn1   1.952220 S    
C29   C81   1.511834 S    
C69   H23   1.109205 S    
C16   H8    1.080840 S    
O15   C7    1.297644 A    
C43   H52   1.084956 S    
O16   C8    1.297653 A    
C82   H68   1.111779 S    
C74   H37   1.109251 S    
C81   H66   1.107926 S    
C80   H63   1.107980 S    
C50   C58   1.405871 A    
C56   C59   1.440738 A    
C49   C57   1.405852 A    
C79   H61   1.108120 S    
C79   H60   1.109883 S    
C34   C42   1.383491 A    
C65   H9    1.085302 S    
C82   H69   1.109750 S    
C46   C69   1.518759 S    
C8    C26   1.432142 S    
C75   H41   1.106792 S    
Zn3   N3    2.044624 S    
C25   C42   1.385604 A    
C22   C37   1.385618 A    
C66   H12   1.085301 S    
C12   C16   1.391160 A    
C27   C52   1.395133 A    
C42   H49   1.084369 S    
C65   H10   1.110554 S    
C70   H26   1.108655 S    
C23   C40   1.385739 A    
C24   C39   1.385913 A    
C30   C38   1.383481 A    
C12   H3    1.080513 S    
C11   C15   1.391162 A    
C84   H74   1.111711 S    
C33   C77   1.511837 S    
C68   H20   1.110543 S    
C29   C58   1.425058 A    
O3    Zn2   1.952219 S    
C37   H46   1.084374 S    
C14   H6    1.080842 S    
C35   C79   1.511952 S    
C13   H5    1.080844 S    
C9    H2    1.080520 S    
C74   H38   1.108695 S    
C75   H40   1.109715 S    
C11   H4    1.080512 S    
C83   H73   1.108333 S    
O12   C4    1.297643 A    
C12   N3    1.353316 A    
O1    Zn1   1.955548 S    
O13   C5    1.296592 A    
C18   N1    1.381004 A    
C67   H17   1.110471 S    
C77   H55   1.109724 S    
O11   Zn1   2.001762 S    
C71   H27   1.111351 S    
C28   C43   1.385776 A    
O9    Zn2   2.001176 S    
C71   H29   1.106690 S    
O9    C1    1.296602 A    
C49   C74   1.518769 S    
C80   H64   1.109798 S    
C40   H47   1.084951 S    
C74   H36   1.110796 S    
C81   H67   1.109719 S    
C18   C65   1.507611 S    
Zn2   N2    2.044624 S    
C24   C47   1.395092 A    
C39   H48   1.085033 S    
C5    C27   1.432156 S    
C65   H11   1.110479 S    
C32   C59   1.425422 A    
C6    C28   1.432173 S    
C73   H33   1.110772 S    
C67   H15   1.085293 S    
C82   H70   1.107986 S    
O7    Zn4   1.952219 S    
O12   Zn2   2.001763 S    
C21   C46   1.395820 A    
C18   C62   1.417855 A    
O8    Zn3   1.952220 S    
C33   C54   1.425081 A    
C52   C75   1.518571 S    
C1    C23   1.432170 S    
C33   C41   1.383485 A    
C34   C78   1.511805 S    
C2    C24   1.432171 S    
C35   C56   1.425417 A    
C3    C21   1.432148 S    
C10   H1    1.080514 S    
O15   Zn3   2.001762 S    
C76   H44   1.109538 S    
C78   H58   1.107895 S    
O16   Zn4   2.001763 S    
C75   H39   1.111424 S    
O1    C1    1.301487 A    
C36   C80   1.511908 S    
C66   H13   1.110480 S    
O2    Zn2   1.955549 S    
C73   H35   1.109213 S    
C68   H19   1.110470 S    
C31   C60   1.425523 A    
C48   C56   1.406329 A    
C44   H51   1.085007 S    
C76   H42   1.111308 S    
C16   C63   1.413871 A    
O14   C6    1.296601 A    
C72   H30   1.111305 S    
C53   C58   1.440070 A    
O10   C2    1.296594 A    
C10   N1    1.353319 A    
O7    C7    1.300412 A    
C26   C49   1.395820 A    
C45   C70   1.518735 S    
C9    N2    1.353320 A    
O8    C8    1.300413 A    
C17   C66   1.507612 S    
C27   C44   1.385773 A    
C11   N4    1.353315 A    
C26   C41   1.385650 A    
C23   C48   1.395059 A    
C71   H28   1.109603 S    
C7    C25   1.432128 S    
O4    C4    1.300412 A    
O10   Zn1   2.001177 S    
C84   H75   1.107982 S    
O5    C5    1.301490 A    
C36   C44   1.383372 A    
C78   H57   1.109711 S    
C83   H71   1.112085 S    
C50   C73   1.518741 S    
C68   H18   1.085294 S    
C72   H31   1.106710 S    
C25   C50   1.395780 A    
C47   C72   1.518527 S    
C66   H14   1.110553 S    
C19   C68   1.507609 S    
C69   H22   1.108673 S    
C77   H53   1.111708 S    
C70   H24   1.110762 S    
C30   C57   1.425074 A    
C4    C22   1.432128 S    
C9    C13   1.391162 A    
O5    Zn3   1.955548 S    
Zn4   N4    2.044624 S    
