data_mof_unit_40662.cif
_audit_creation_date              2012-10-26T21:13:39-0400
_audit_creation_method            fapswitch 2.2
_symmetry_space_group_name_H-M    P1
_symmetry_Int_Tables_number       1
_space_group_crystal_system       triclinic
_cell_length_a                    9.066533
_cell_length_b                    10.824507
_cell_length_c                    9.56885
_cell_angle_alpha                 89.968426
_cell_angle_beta                  89.896898
_cell_angle_gamma                 90.017932
_cell_volume                      939.092405601

loop_
_atom_site_label
_atom_site_type_symbol
_atom_type_description
_atom_site_fract_x
_atom_site_fract_y
_atom_site_fract_z
_atom_type_partial_charge
C1    C     C_R   0.497602 0.262475 0.500028 0.545575
C2    C     C_R   0.599985 0.569720 0.925743 0.133494
C3    C     C_3   0.763764 0.560376 0.915230 -0.247716
C4    C     C_R   0.220751 0.500008 0.500056 0.549377
C5    C     C_3   0.767603 0.551534 0.073534 -0.122761
C6    C     C_R   0.498403 0.737521 0.499899 0.593859
C7    C     C_R   0.779222 0.500142 0.499962 0.572967
C8    C     C_1   0.065554 0.500132 0.500115 -0.055392
C9    C     C_1   0.934380 0.500195 0.499966 -0.052596
C10   C     C_R   0.485355 0.063579 0.625282 0.088844
C11   C     C_R   0.484248 0.129465 0.499992 -0.014328
C12   C     C_R   0.464277 0.935594 0.374120 -0.152538
C13   C     C_R   0.463649 0.064512 0.374160 -0.152984
C14   C     C_2   0.823122 0.427087 0.122079 0.264874
C15   C     C_2   0.743875 0.885991 0.730403 0.180957
C16   C     C_R   0.487291 0.870664 0.499617 0.037862
C17   C     C_R   0.491110 0.936924 0.624641 0.024233
C18   C     C_3   0.588334 0.932250 0.751802 -0.090972
C19   C     C_3   0.581073 0.073489 0.751873 0.095085
C20   C     C_R   0.602579 0.566687 0.072898 0.165304
C21   C     C_R   0.393471 0.440275 0.074530 0.022172
C22   C     C_R   0.393930 0.439704 0.925908 0.033229
Cu1   Cu    Cu3+1 0.499990 0.499980 0.640670 0.989155
Cu2   Cu    Cu3+1 0.500010 0.500020 0.359330 0.984163
H1    H     H_    0.453171 0.112626 0.275384 0.160117
H2    H     H_    0.926017 0.421869 0.179480 0.098999
H3    H     H_    0.820886 0.891009 0.816836 0.102279
H4    H     H_    0.571746 0.122590 0.944875 0.341035
H5    H     H_    0.813836 0.646994 0.874705 0.116405
H6    H     H_    0.824953 0.630786 0.123536 0.085209
H7    H     H_    0.453240 0.887541 0.275431 0.140589
H8    H     H_    0.532024 0.888241 0.842422 0.126284
H9    H     H_    0.686553 0.123502 0.731623 0.132365
H10   H     H_    0.309058 0.389461 0.130164 0.113006
H11   H     H_    0.310130 0.388173 0.870635 0.136222
H12   H     H_    0.801314 0.475241 0.860791 0.182522
N1    N     N_R   0.500920 0.500930 0.147930 -0.213514
N2    N     N_R   0.500930 0.500890 0.852020 -0.229546
O1    O     O_R   0.500000 0.319640 0.618810 -0.475975
O2    O     O_2   0.785431 0.843718 0.618819 -0.502664
O3    O     O_3   0.501181 0.119714 0.865828 -0.691367
O4    O     O_R   0.500020 0.319680 0.381230 -0.490324
O5    O     O_R   0.288380 0.499980 0.618770 -0.508514
O6    O     O_R   0.288400 0.500020 0.381190 -0.517606
O7    O     O_R   0.499980 0.680320 0.618770 -0.487501
O8    O     O_R   0.500000 0.680360 0.381190 -0.515821
O9    O     O_R   0.711600 0.499980 0.618810 -0.499232
O10   O     O_R   0.711620 0.500020 0.381230 -0.493606
O11   O     O_2   0.756542 0.331977 0.094729 -0.501225

loop_
_geom_bond_atom_site_label_1
_geom_bond_atom_site_label_2
_ccdc_geom_bond_type
C15   C18   S    
Cu1   Cu2   S    
Cu1   O7    S    
C6    O7    A    
Cu1   N2    S    
Cu2   O4    S    
C2    N2    A    
C15   H3    S    
C1    C11   S    
C10   C19   S    
C4    C8    S    
Cu2   O8    S    
C7    O10   A    
C22   H11   S    
C2    C3    S    
C21   N1    A    
C5    C20   S    
C21   C22   A    
C14   H2    S    
C20   N1    A    
C11   C13   A    
C13   H1    S    
C5    C14   S    
C16   C17   A    
C18   H8    S    
C4    O6    A    
C3    H12   S    
Cu1   O1    S    
C4    O5    A    
Cu2   N1    S    
C12   H7    S    
Cu2   O6    S    
C15   O2    D    
C14   O11   D    
Cu1   O9    S    
C10   C11   A    
C1    O1    A    
C10   C17   A    
C2    C20   A    
Cu2   O10   S    
C12   C16   A    
C1    O4    A    
C3    H5    S    
Cu1   O5    S    
C12   C13   A    
C17   C18   S    
C5    H6    S    
C19   H9    S    
C7    C9    S    
C18   C19   S    
C21   H10   S    
C6    O8    A    
C6    C16   S    
H4    O3    S    
C19   O3    S    
C7    O9    A    
C8    C9    T    
C3    C5    S    
C22   N2    A    
