data_mof_unit_21980.cif
_audit_creation_date              2012-12-11T15:34:51-0500
_audit_creation_method            fapswitch 2.2
_symmetry_space_group_name_H-M    P1
_symmetry_Int_Tables_number       1
_space_group_crystal_system       triclinic
_cell_length_a                    30.585253
_cell_length_b                    7.260689
_cell_length_c                    25.938193
_cell_angle_alpha                 89.99099
_cell_angle_beta                  112.019525
_cell_angle_gamma                 89.997104
_cell_volume                      5339.93115181

loop_
_atom_site_label
_atom_site_type_symbol
_atom_type_description
_atom_site_fract_x
_atom_site_fract_y
_atom_site_fract_z
_atom_type_partial_charge
O1    O     O_R   0.295360 0.592990 0.320420 -0.519789
O2    O     O_R   0.704640 0.407010 0.679580 -0.545450
O3    O     O_R   0.204640 0.092990 0.179580 -0.519882
O4    O     O_R   0.795360 0.907010 0.820420 -0.545507
O5    O     O_R   0.294060 0.265620 0.213230 -0.538835
O6    O     O_R   0.705940 0.734380 0.786770 -0.532455
O7    O     O_R   0.205940 0.765620 0.286770 -0.538857
O8    O     O_R   0.794060 0.234380 0.713230 -0.532430
C1    C     C_R   0.303459 0.432099 0.198650 0.725019
C2    C     C_R   0.696637 0.567961 0.801371 0.730182
C3    C     C_R   0.196537 0.932089 0.301345 0.725079
C4    C     C_R   0.803364 0.067971 0.698630 0.730124
O9    O     O_R   0.300850 0.263360 0.322080 -0.550391
O10   O     O_R   0.699150 0.736640 0.677920 -0.528382
O11   O     O_R   0.199150 0.763360 0.177920 -0.550364
O12   O     O_R   0.800850 0.236640 0.822080 -0.528284
O13   O     O_R   0.211480 0.091820 0.289210 -0.528798
O14   O     O_R   0.788520 0.908180 0.710790 -0.536230
O15   O     O_R   0.288520 0.591820 0.210790 -0.528811
O16   O     O_R   0.711480 0.408180 0.789210 -0.536231
C5    C     C_R   0.313414 0.431553 0.343182 0.748429
C6    C     C_R   0.686720 0.568151 0.656849 0.751628
C7    C     C_R   0.186589 0.931588 0.156819 0.748507
C8    C     C_R   0.813278 0.068117 0.843151 0.751563
O17   O     O_3   0.220670 0.426670 0.239090 -0.374406
O18   O     O_3   0.779330 0.573330 0.760910 -0.378682
O19   O     O_3   0.279330 0.926670 0.260910 -0.374363
O20   O     O_3   0.720670 0.073330 0.739090 -0.378698
V1    V     V_3+5 0.255440 0.152290 0.252020 1.486883
V2    V     V_3+5 0.744560 0.847710 0.747980 1.473010
V3    V     V_3+5 0.244560 0.652290 0.247980 1.486900
V4    V     V_3+5 0.755440 0.347710 0.752020 1.473172
C9    C     C_R   0.850394 0.057062 0.899374 -0.059426
C10   C     C_R   0.149268 0.935956 0.100432 -0.062764
C11   C     C_R   0.649597 0.557222 0.600630 -0.059441
C12   C     C_R   0.350737 0.435787 0.399572 -0.062800
C13   C     C_R   0.870708 0.021903 0.998240 -0.138760
C14   C     C_R   0.125160 0.856542 0.003183 -0.146657
C15   C     C_R   0.629269 0.523027 0.501736 -0.138749
C16   C     C_R   0.374895 0.355509 0.496774 -0.146734
C17   C     C_R   0.836947 0.033525 0.944617 -0.243834
C18   C     C_R   0.158976 0.857815 0.056835 -0.228239
C19   C     C_R   0.663038 0.534356 0.555360 -0.243851
C20   C     C_R   0.341071 0.357061 0.443130 -0.228029
C21   C     C_R   0.898590 0.070411 0.907969 0.287522
C22   C     C_R   0.104037 0.009085 0.090286 0.286446
C23   C     C_R   0.601400 0.570194 0.592063 0.287528
C24   C     C_R   0.395941 0.509235 0.409753 0.286464
C25   C     C_R   0.933952 0.031237 0.961937 -0.027888
C26   C     C_R   0.066607 0.981892 0.036940 -0.028931
C27   C     C_R   0.566039 0.531346 0.538073 -0.027867
C28   C     C_R   0.433391 0.481768 0.463074 -0.028953
C29   C     C_R   0.919213 0.015443 0.007766 0.005202
C30   C     C_R   0.079086 0.921028 0.992076 0.005019
C31   C     C_R   0.580769 0.516232 0.492223 0.005199
C32   C     C_R   0.420945 0.420280 0.507908 0.005045
C33   C     C_R   0.982912 0.001749 0.971810 -0.023621
C34   C     C_R   0.017363 0.002148 0.027195 -0.023164
C35   C     C_R   0.517090 0.501563 0.528195 -0.023593
C36   C     C_R   0.482627 0.502328 0.472816 -0.023153
C37   C     C_R   0.001143 0.995118 0.071264 -0.173983
C38   C     C_R   0.997575 0.950984 0.928465 -0.170282
C39   C     C_R   0.498836 0.495956 0.428732 -0.173987
C40   C     C_R   0.502455 0.450170 0.571515 -0.170250
C41   C     C_R   0.953315 0.992997 0.062220 0.352482
C42   C     C_R   0.044479 0.913770 0.937552 0.350245
C43   C     C_R   0.546662 0.494137 0.437759 0.352478
C44   C     C_R   0.455564 0.412685 0.562419 0.350227
H1    H     H_    0.193495 0.801199 0.064092 0.149908
H2    H     H_    0.799909 0.029751 0.938515 0.154496
H3    H     H_    0.306578 0.300176 0.435848 0.149790
H4    H     H_    0.700074 0.530890 0.561446 0.154482
H5    H     H_    0.857988 0.015845 0.031856 0.152602
H6    H     H_    0.135131 0.795490 0.971169 0.151973
H7    H     H_    0.641979 0.517486 0.468106 0.152577
H8    H     H_    0.364954 0.293996 0.528755 0.151955
H9    H     H_    0.025121 0.970110 0.113432 0.191991
H10   H     H_    0.972398 0.926976 0.886853 0.192916
H11   H     H_    0.474856 0.471245 0.386551 0.191983
H12   H     H_    0.527647 0.425877 0.613104 0.192912
C45   C     C_R   0.092236 0.939015 0.480551 0.669447
C46   C     C_R   0.905996 0.989306 0.519018 0.664816
C47   C     C_R   0.407755 0.439199 0.019442 0.669348
C48   C     C_R   0.594000 0.489230 0.980979 0.664881
N1    N     N_R   0.072681 0.948920 0.423527 -0.549795
N2    N     N_R   0.925889 0.009222 0.575779 -0.549068
N3    N     N_R   0.427311 0.449027 0.076465 -0.549830
N4    N     N_R   0.574108 0.509200 0.924218 -0.549062
C49   C     C_R   0.024715 0.958785 0.396146 0.590071
C50   C     C_R   0.973934 0.007218 0.603038 0.587244
C51   C     C_R   0.475277 0.458811 0.103848 0.589919
C52   C     C_R   0.526064 0.507270 0.896958 0.587302
C53   C     C_R   0.994596 0.960915 0.426000 -0.072444
C54   C     C_R   0.003830 0.985325 0.573354 -0.072055
C55   C     C_R   0.505397 0.460926 0.073994 -0.072403
C56   C     C_R   0.496166 0.485407 0.926641 -0.072078
C57   C     C_R   0.014149 0.961562 0.484510 -0.079404
C58   C     C_R   0.984158 0.974099 0.514953 -0.078945
C59   C     C_R   0.485845 0.461626 0.015485 -0.079391
C60   C     C_R   0.515837 0.474137 0.985043 -0.078965
C61   C     C_R   0.063603 0.951094 0.512532 -0.133033
C62   C     C_R   0.934622 0.976775 0.487020 -0.135491
C63   C     C_R   0.436390 0.451239 0.987462 -0.133089
C64   C     C_R   0.565373 0.476736 0.012978 -0.135437
C65   C     C_R   0.945413 0.964308 0.398452 -0.218589
C66   C     C_R   0.052947 0.975817 0.600967 -0.222336
C67   C     C_R   0.554579 0.464249 0.101544 -0.218665
C68   C     C_R   0.447049 0.475964 0.899027 -0.222283
C69   C     C_R   0.915372 0.965928 0.428167 0.461173
C70   C     C_R   0.082772 0.952690 0.571474 0.462328
C71   C     C_R   0.584622 0.465843 0.071831 0.461199
C72   C     C_R   0.417223 0.452869 0.928520 0.462304
O21   O     O_2   0.139253 0.916602 0.506081 -0.468143
O22   O     O_2   0.858654 0.980261 0.493796 -0.467148
O23   O     O_2   0.360736 0.416904 0.993912 -0.468145
O24   O     O_2   0.641341 0.480094 0.006202 -0.467131
O25   O     O_2   0.006117 0.968803 0.340123 -0.515313
O26   O     O_2   0.992866 0.028101 0.658776 -0.517606
O27   O     O_2   0.493875 0.468761 0.159870 -0.515342
O28   O     O_2   0.507134 0.528199 0.841219 -0.517616
H13   H     H_    0.929764 0.964601 0.353432 0.184651
H14   H     H_    0.068687 0.985175 0.645891 0.183686
H15   H     H_    0.570225 0.464516 0.146564 0.184627
H16   H     H_    0.431309 0.485333 0.854102 0.183699
C73   C     C_R   0.897856 0.901983 0.648464 -0.177510
C74   C     C_R   0.099092 0.812263 0.352703 -0.184537
C75   C     C_R   0.602145 0.401986 0.851541 -0.177648
C76   C     C_R   0.400895 0.312278 0.147280 -0.184352
H17   H     H_    0.922948 0.789807 0.657929 0.158366
H18   H     H_    0.072282 0.706993 0.344631 0.160493
H19   H     H_    0.577052 0.289832 0.842079 0.158372
H20   H     H_    0.427702 0.206983 0.155348 0.160424
C77   C     C_R   0.867717 0.915981 0.677529 -0.207782
C78   C     C_R   0.129564 0.807720 0.323820 -0.222318
C79   C     C_R   0.632285 0.415984 0.822477 -0.207761
C80   C     C_R   0.370422 0.307704 0.176161 -0.222217
H21   H     H_    0.870662 0.814811 0.709369 0.169189
H22   H     H_    0.124949 0.700163 0.293289 0.167336
H23   H     H_    0.629342 0.314840 0.790641 0.169220
H24   H     H_    0.375032 0.200085 0.206683 0.167331
C81   C     C_R   0.834361 0.058628 0.666132 -0.200009
C82   C     C_R   0.165381 0.940044 0.333837 -0.195393
C83   C     C_R   0.665642 0.558600 0.833871 -0.199977
C84   C     C_R   0.334611 0.440078 0.166154 -0.195529
C85   C     C_R   0.831546 0.188857 0.623955 0.247890
C86   C     C_R   0.170233 0.078701 0.374420 0.253111
C87   C     C_R   0.668458 0.688791 0.876047 0.247821
C88   C     C_R   0.329764 0.578806 0.125579 0.253332
C89   C     C_R   0.863539 0.178212 0.596555 0.508346
C90   C     C_R   0.137842 0.087789 0.401196 0.506051
C91   C     C_R   0.636461 0.678153 0.903442 0.508361
C92   C     C_R   0.362156 0.587920 0.098806 0.506101
C93   C     C_R   0.895764 0.030500 0.607282 0.196479
C94   C     C_R   0.103158 0.950180 0.392059 0.197205
C95   C     C_R   0.604236 0.530474 0.892717 0.196537
C96   C     C_R   0.396835 0.450269 0.107935 0.197069
O29   O     O_3   0.941636 0.967314 0.108185 -0.624659
H25   H     H_    0.914056 0.884037 0.097652 0.295411
O30   O     O_3   0.054640 0.866853 0.891704 -0.627825
H26   H     H_    0.085872 0.918569 0.896522 0.297415
O31   O     O_3   0.558335 0.469103 0.391767 -0.624672
H27   H     H_    0.585939 0.385945 0.402232 0.295429
O32   O     O_3   0.445430 0.365162 0.608245 -0.627861
H28   H     H_    0.414187 0.416682 0.603474 0.297421
O33   O     O_3   0.797596 0.325087 0.607035 -0.622368
H29   H     H_    0.769598 0.284171 0.614323 0.286340
O34   O     O_3   0.206625 0.204735 0.390340 -0.621238
H30   H     H_    0.234523 0.146145 0.386702 0.281968
O35   O     O_3   0.702414 0.824963 0.892972 -0.622426
H31   H     H_    0.730405 0.784069 0.885665 0.286312
O36   O     O_3   0.293379 0.704907 0.109668 -0.621164
H32   H     H_    0.265478 0.646357 0.113307 0.281972
O37   O     O_3   0.860590 0.305198 0.555678 -0.511746
C97   C     C_3   0.890082 0.455083 0.580882 -0.163116
H33   H     H_    0.927642 0.411539 0.600366 0.119538
H34   H     H_    0.878597 0.522939 0.612132 0.147360
H35   H     H_    0.887562 0.558509 0.548391 0.167834
O38   O     O_3   0.142801 0.224154 0.440154 -0.511313
C98   C     C_3   0.114780 0.375296 0.412936 -0.165516
H36   H     H_    0.076705 0.338045 0.395182 0.119556
H37   H     H_    0.126094 0.430519 0.379868 0.145769
H38   H     H_    0.119240 0.486737 0.443765 0.175743
O39   O     O_3   0.639404 0.805106 0.944313 -0.511760
C99   C     C_3   0.609962 0.955139 0.919090 -0.163161
H39   H     H_    0.572397 0.911758 0.899529 0.119483
H40   H     H_    0.621518 0.023026 0.887898 0.147519
H41   H     H_    0.612456 0.058491 0.951581 0.167871
O40   O     O_3   0.357204 0.724401 0.059870 -0.511282
C100  C     C_3   0.385355 0.875213 0.087079 -0.165452
H42   H     H_    0.423413 0.837632 0.104626 0.119726
H43   H     H_    0.374220 0.930272 0.120306 0.145331
H44   H     H_    0.380836 0.986887 0.056294 0.175708
O41   O     O_3   0.098614 0.113611 0.131885 -0.654195
H45   H     H_    0.074712 0.209790 0.114000 0.296098
O42   O     O_3   0.909404 0.135560 0.864226 -0.658452
H46   H     H_    0.938131 0.212622 0.879978 0.298095
O43   O     O_3   0.401318 0.614283 0.368217 -0.654134
H47   H     H_    0.425194 0.710466 0.386159 0.296079
O44   O     O_3   0.590577 0.634727 0.635860 -0.658499
H48   H     H_    0.561830 0.711739 0.620170 0.298125
O45   O     O_3   0.867163 0.971450 0.398968 -0.522625
C101  C     C_3   0.851499 0.792442 0.379660 -0.105182
H49   H     H_    0.861021 0.691645 0.414552 0.137536
H50   H     H_    0.865600 0.746571 0.347990 0.112258
H51   H     H_    0.812477 0.794488 0.359429 0.177535
O46   O     O_3   0.130985 0.946849 0.600660 -0.521756
C102  C     C_3   0.143186 0.769706 0.623985 -0.108876
H52   H     H_    0.131514 0.660498 0.591481 0.135545
H53   H     H_    0.128495 0.743563 0.656577 0.111569
H54   H     H_    0.182152 0.761196 0.644157 0.177357
O47   O     O_3   0.632832 0.471318 0.101029 -0.522608
C103  C     C_3   0.648493 0.292336 0.120405 -0.105216
H55   H     H_    0.638958 0.191425 0.085553 0.137512
H56   H     H_    0.634402 0.246642 0.152103 0.112251
H57   H     H_    0.687515 0.294334 0.140623 0.177544
O48   O     O_3   0.369012 0.447048 0.899330 -0.521773
C104  C     C_3   0.356814 0.269840 0.876077 -0.108830
H58   H     H_    0.368472 0.160740 0.908628 0.135574
H59   H     H_    0.371522 0.243503 0.843512 0.111551
H60   H     H_    0.317848 0.261362 0.855889 0.177344

loop_
_geom_bond_atom_site_label_1
_geom_bond_atom_site_label_2
_ccdc_geom_bond_type
C21   O42   S    
C59   C63   A    
C86   O34   S    
O1    C5    A    
C19   H4    S    
N3    C51   A    
O19   V1    S    
C9    C21   A    
O45   C101  S    
C82   C86   A    
O3    C7    A    
O32   H28   S    
C10   C18   A    
C67   H15   S    
C77   H21   S    
C80   H24   S    
C11   C23   A    
C57   C58   A    
C25   C33   A    
C33   C38   A    
C5    C12   S    
C45   C61   A    
O37   C97   S    
C4    C81   S    
C104  H60   S    
C79   H23   S    
C6    C11   S    
C35   C40   A    
C26   C30   A    
C101  H50   S    
C36   C39   A    
C50   O26   S    
O9    V1    S    
N2    C93   S    
C75   C79   A    
C14   C18   A    
C76   C80   A    
O30   H26   S    
C14   H6    S    
O4    C8    A    
C55   C59   A    
C54   C58   A    
O1    V3    S    
C88   O36   S    
O13   V1    S    
C99   H39   S    
C20   H3    S    
O2    V4    S    
O35   H31   S    
O3    V1    S    
C89   C93   A    
C97   H33   S    
C13   H5    S    
C28   C36   A    
C53   C65   A    
C86   C90   A    
C13   C17   A    
C1    O15   A    
C60   C64   A    
C15   C31   A    
C92   C96   A    
C37   H9    S    
C16   C32   A    
C101  H51   S    
O2    C6    A    
C102  H54   S    
O12   V4    S    
C10   C22   A    
C15   H7    S    
O36   H32   S    
C11   C19   A    
C16   C20   A    
C27   C31   A    
C81   C85   A    
C90   O38   S    
C98   H38   S    
C13   C29   A    
C34   C37   A    
O11   C7    A    
C56   C68   A    
O15   V3    S    
O44   H48   S    
O12   C8    A    
C55   C67   A    
O29   H25   S    
C17   H2    S    
C40   H12   S    
C23   O44   S    
O43   H47   S    
C68   H16   S    
C76   H20   S    
C42   O30   S    
C1    C84   S    
C73   C93   A    
C45   N1    A    
C50   C54   A    
C12   C24   A    
O5    V1    S    
C52   C56   A    
C39   C43   A    
O7    V3    S    
C101  H49   S    
C38   C42   A    
O9    C5    A    
C102  H52   S    
C26   C34   A    
N4    C95   S    
C47   O23   S    
O48   C104  S    
C46   O22   S    
C41   O29   S    
N2    C50   A    
C75   C95   A    
O34   H30   S    
C74   H18   S    
N1    C49   A    
O46   C102  S    
C23   C27   A    
C104  H58   S    
C32   C44   A    
C18   H1    S    
C68   C72   A    
O40   C100  S    
O8    V4    S    
C100  H44   S    
C87   C91   A    
O39   C99   S    
C35   C36   A    
C78   H22   S    
C58   C62   A    
C78   C82   A    
C43   O31   S    
C53   C57   A    
O7    C3    A    
O47   C103  S    
C14   C30   A    
C103  H57   S    
C21   C25   A    
O8    C4    A    
C7    C10   S    
C57   C61   A    
C66   H14   S    
C46   C62   A    
C65   H13   S    
C2    C83   S    
C70   O46   S    
N4    C52   A    
O11   V3    S    
C92   O40   S    
C97   H35   S    
C47   C63   A    
O14   V2    S    
C85   O33   S    
O6    V2    S    
C49   O25   S    
C83   C87   A    
C91   C95   A    
C73   H17   S    
C48   C64   A    
C51   O27   S    
C48   O24   S    
C12   C20   A    
C27   C35   A    
C45   O21   S    
C40   C44   A    
C74   C94   A    
C29   C41   A    
C22   O41   S    
O16   V4    S    
C44   O32   S    
C73   C77   A    
C65   C69   A    
C3    O13   A    
C67   C71   A    
O17   V3    S    
C38   H10   S    
C88   C92   A    
C103  H56   S    
C47   N3    A    
O6    C2    A    
C64   C71   A    
C15   C19   A    
C91   O39   S    
C39   H11   S    
C98   H36   S    
C104  H59   S    
C22   C26   A    
C77   C81   A    
C8    C9    S    
C99   H41   S    
C24   O43   S    
C9    C17   A    
O10   C6    A    
C75   H19   S    
O20   V2    S    
C61   C70   A    
O10   V2    S    
C31   C43   A    
C80   C84   A    
O31   H27   S    
C59   C60   A    
C46   N2    A    
C33   C34   A    
C48   N4    A    
C2    O16   A    
C25   C29   A    
C56   C60   A    
C69   O45   S    
C79   C83   A    
C97   H34   S    
C99   H40   S    
C52   O28   S    
C89   O37   S    
N1    C94   S    
C72   O48   S    
C49   C53   A    
C100  H42   S    
C3    C82   S    
C71   O47   S    
C54   C66   A    
C76   C96   A    
C51   C55   A    
O42   H46   S    
C37   C41   A    
O33   H29   S    
C24   C28   A    
C103  H55   S    
C74   C78   A    
C66   C70   A    
O41   H45   S    
C90   C94   A    
C16   H8    S    
C4    O14   A    
C102  H53   S    
C85   C89   A    
N3    C96   S    
C63   C72   A    
C62   C69   A    
O5    C1    A    
C100  H43   S    
C30   C42   A    
C87   O35   S    
O18   V4    S    
O4    V2    S    
C28   C32   A    
O38   C98   S    
C98   H37   S    
C84   C88   A    
