data_mof_unit_36837.cif
_audit_creation_date              2012-12-10T19:47:17-0500
_audit_creation_method            fapswitch 2.2
_symmetry_space_group_name_H-M    P1
_symmetry_Int_Tables_number       1
_space_group_crystal_system       triclinic
_cell_length_a                    14.850556
_cell_length_b                    14.190611
_cell_length_c                    10.625532
_cell_angle_alpha                 89.807752
_cell_angle_beta                  90.156099
_cell_angle_gamma                 89.999501
_cell_volume                      2239.18737009

loop_
_atom_site_label
_atom_site_type_symbol
_atom_type_description
_atom_site_fract_x
_atom_site_fract_y
_atom_site_fract_z
_atom_type_partial_charge
C1    C     C_R   0.327261 0.499888 0.503461 0.845264
C2    C     C_R   0.672350 0.499853 0.501760 0.874275
C3    C     C_R   0.231111 0.498991 0.522704 -0.085161
C4    C     C_R   0.767776 0.498285 0.519997 -0.093562
C5    C     C_R   0.189498 0.415708 0.563394 -0.191669
C6    C     C_R   0.819207 0.432053 0.455435 -0.217469
C7    C     C_R   0.097884 0.414235 0.584198 -0.294458
C8    C     C_R   0.910849 0.428198 0.476123 -0.266822
C9    C     C_R   0.047434 0.495884 0.564488 0.035985
C10   C     C_R   0.950439 0.488761 0.563972 -0.002669
C11   C     C_R   0.457311 0.105348 0.402814 -0.389068
C12   C     C_R   0.540234 0.104180 0.597075 -0.361493
C13   C     C_R   0.456561 0.205049 0.405735 0.535791
C14   C     C_R   0.542329 0.203485 0.594473 0.542453
C15   C     C_R   0.498791 0.053074 0.499718 0.020998
C16   C     C_R   0.571208 0.894823 0.552477 -0.277934
C17   C     C_R   0.427781 0.894428 0.446322 -0.274226
C18   C     C_R   0.570084 0.795699 0.552191 0.024378
C19   C     C_R   0.429649 0.795293 0.447266 0.020871
C20   C     C_R   0.499243 0.946445 0.499386 0.196805
C21   C     C_R   0.497501 0.500076 0.260407 0.864669
C22   C     C_R   0.497630 0.499833 0.739607 0.859651
C23   C     C_R   0.344852 0.583277 0.130195 -0.201472
C24   C     C_R   0.344739 0.582670 0.867776 -0.173184
C25   C     C_R   0.273490 0.623897 0.063926 -0.139953
C26   C     C_R   0.273476 0.623609 0.932939 -0.119825
C27   C     C_R   0.418239 0.542262 0.933552 0.088601
C28   C     C_R   0.418302 0.542578 0.065445 0.091243
C29   C     C_R   0.491422 0.499736 0.128245 -0.092548
C30   C     C_R   0.491285 0.499128 0.871745 -0.095103
C31   C     C_R   0.560405 0.453925 0.064794 -0.195081
C32   C     C_R   0.560350 0.453627 0.936255 -0.189637
C33   C     C_R   0.088800 0.580444 0.526417 0.546887
C34   C     C_R   0.897596 0.549896 0.636981 0.552159
C35   C     C_R   0.181223 0.581864 0.507430 -0.330986
C36   C     C_R   0.806278 0.556748 0.611066 -0.313474
H1    H     H_    0.615346 0.420185 0.115138 0.145745
H2    H     H_    0.615304 0.419794 0.886786 0.151908
H3    H     H_    0.628872 0.930457 0.592655 0.134163
H4    H     H_    0.369948 0.929744 0.405809 0.132202
H5    H     H_    0.625710 0.757227 0.593553 0.128930
H6    H     H_    0.374370 0.756466 0.405924 0.121894
H7    H     H_    0.341242 0.583164 0.231810 0.137696
H8    H     H_    0.341024 0.582136 0.766179 0.151082
H9    H     H_    0.217899 0.655244 0.114403 0.129320
H10   H     H_    0.217986 0.654763 0.881470 0.140033
H11   H     H_    0.213221 0.647020 0.478476 0.162877
H12   H     H_    0.765193 0.605533 0.664234 0.159185
H13   H     H_    0.227531 0.351582 0.578841 0.162878
H14   H     H_    0.788766 0.385477 0.386790 0.151428
H15   H     H_    0.065714 0.348936 0.612277 0.161392
H16   H     H_    0.951471 0.380936 0.419929 0.164050
H17   H     H_    0.426998 0.069571 0.323557 0.162923
H18   H     H_    0.570095 0.067663 0.676323 0.164012
N1    N     N_R   0.500000 0.252470 0.500000 -0.169711
N2    N     N_R   0.500000 0.747550 0.500000 -0.091722
O1    O     O_R   0.369060 0.579480 0.500010 -0.641835
O2    O     O_R   0.630940 0.579480 0.499990 -0.618742
O3    O     O_R   0.369050 0.420520 0.500010 -0.618200
O4    O     O_R   0.630950 0.420520 0.499990 -0.638543
O5    O     O_R   0.500000 0.579490 0.316770 -0.620970
O6    O     O_R   0.500000 0.579490 0.683230 -0.626527
O7    O     O_R   0.499990 0.420540 0.316770 -0.561895
O8    O     O_R   0.500010 0.420540 0.683230 -0.567718
Zn1   Zn    Zn3+2 0.500000 0.606140 0.500000 0.938802
Zn2   Zn    Zn3+2 0.500000 0.393860 0.500000 0.988012
O9    O     O_3   0.039025 0.661845 0.509509 -0.619877
C37   C     C_3   0.016211 0.670597 0.380991 0.046532
H19   H     H_    0.987378 0.603742 0.343203 0.147133
H20   H     H_    0.076990 0.690285 0.325650 0.127647
C38   C     C_3   0.945383 0.747935 0.366483 -0.279137
H21   H     H_    0.885629 0.729978 0.424687 0.235645
H22   H     H_    0.973509 0.815852 0.400519 0.223108
C39   C     C_3   0.915867 0.759197 0.229629 -0.986333
H23   H     H_    0.974457 0.777623 0.169608 0.265028
H24   H     H_    0.865193 0.816488 0.222237 0.269475
H25   H     H_    0.884944 0.692826 0.195086 0.274917
O10   O     O_3   0.935295 0.607732 0.727271 -0.619466
C40   C     C_3   0.952036 0.553456 0.836516 0.054462
H26   H     H_    0.998803 0.494052 0.816113 0.144400
H27   H     H_    0.887811 0.524667 0.874889 0.125688
C41   C     C_3   0.995504 0.616130 0.936063 -0.285738
H28   H     H_    0.056087 0.650601 0.895755 0.227000
H29   H     H_    0.947238 0.672050 0.964045 0.224168
C42   C     C_3   0.023119 0.559244 0.052016 -1.012906
H30   H     H_    0.963172 0.526209 0.096251 0.267436
H31   H     H_    0.055527 0.606613 0.121364 0.256363
H32   H     H_    0.072196 0.503599 0.025967 0.273360
O11   O     O_3   0.418661 0.255644 0.307768 -0.607064
C43   C     C_3   0.324070 0.245639 0.309666 0.089455
H33   H     H_    0.296671 0.254077 0.406655 0.129679
H34   H     H_    0.304621 0.175208 0.272759 0.123678
C44   C     C_3   0.282612 0.321728 0.225192 -0.273643
H35   H     H_    0.303065 0.392420 0.259563 0.222229
H36   H     H_    0.308168 0.313513 0.127598 0.226766
C45   C     C_3   0.180019 0.316011 0.223728 -0.996197
H37   H     H_    0.157765 0.246806 0.186319 0.264774
H38   H     H_    0.152487 0.372686 0.162467 0.269741
H39   H     H_    0.152835 0.325372 0.320113 0.272973
O12   O     O_3   0.582252 0.251292 0.692881 -0.623363
C46   C     C_3   0.675802 0.261441 0.670906 0.133434
H40   H     H_    0.694084 0.335294 0.693986 0.170082
H41   H     H_    0.696491 0.249439 0.571094 0.121932
C47   C     C_3   0.729582 0.196635 0.758446 -0.396946
H42   H     H_    0.707916 0.208020 0.857300 0.237931
H43   H     H_    0.716777 0.121931 0.733421 0.213862
C48   C     C_3   0.830440 0.216158 0.748236 -0.957801
H44   H     H_    0.853835 0.204203 0.650351 0.266927
H45   H     H_    0.867883 0.168042 0.812240 0.268090
H46   H     H_    0.845469 0.290064 0.775473 0.257653

loop_
_geom_bond_atom_site_label_1
_geom_bond_atom_site_label_2
_ccdc_geom_bond_type
C19   N2    A    
C4    C36   A    
C44   H35   S    
C24   C27   A    
C35   H11   S    
C40   C41   S    
C47   H43   S    
C42   H30   S    
C46   H40   S    
C39   H24   S    
C28   C29   A    
C24   C26   A    
C1    O3    A    
O3    Zn2   S    
C2    O4    A    
N2    Zn1   S    
C45   H39   S    
C17   C20   A    
C23   H7    S    
C33   C35   A    
C11   C15   A    
C37   H19   S    
C39   H25   S    
C45   H38   S    
C48   H44   S    
C32   H2    S    
C9    C10   S    
C8    H16   S    
C21   O5    A    
C11   H17   S    
C19   H6    S    
C18   N2    A    
C14   N1    A    
O7    Zn2   S    
O4    Zn2   S    
C44   H36   S    
C27   C30   A    
C9    C33   A    
C48   H45   S    
C5    H13   S    
C47   H42   S    
C5    C7    A    
C42   H31   S    
C15   C20   S    
C39   H23   S    
O9    C37   S    
C4    C6    A    
C18   H5    S    
C40   H27   S    
O10   C40   S    
C6    C8    A    
C25   C26   A    
C21   C29   S    
C31   H1    S    
C1    C3    S    
C17   H4    S    
O8    Zn2   S    
C2    C4    S    
C1    O1    A    
C22   O6    A    
O2    Zn1   S    
C43   H34   S    
C31   C32   A    
C12   C15   A    
C3    C35   A    
C16   C20   A    
C45   H37   S    
C10   C34   A    
C23   C28   A    
C6    H14   S    
C8    C10   A    
C12   C14   A    
C44   C45   S    
C41   H29   S    
C24   H8    S    
C48   H46   S    
C25   H9    S    
N1    Zn2   S    
C33   O9    S    
C43   C44   S    
C38   H22   S    
C46   H41   S    
C42   H32   S    
C7    C9    A    
C22   C30   S    
O6    Zn1   S    
C13   O11   S    
O1    Zn1   S    
C3    C5    A    
C38   C39   S    
C2    O2    A    
C14   O12   S    
C46   C47   S    
C41   C42   S    
C7    H15   S    
C38   H21   S    
C29   C31   A    
C34   O10   S    
C30   C32   A    
C11   C13   A    
C43   H33   S    
C37   C38   S    
O12   C46   S    
C17   C19   A    
C36   H12   S    
C34   C36   A    
C23   C25   A    
C21   O7    A    
C26   H10   S    
C16   H3    S    
C22   O8    A    
C40   H26   S    
O5    Zn1   S    
C16   C18   A    
C41   H28   S    
C27   C28   A    
C37   H20   S    
O11   C43   S    
C47   C48   S    
C12   H18   S    
C13   N1    A    
