data_mof_unit_10841.cif
_audit_creation_date              2012-12-10T18:13:49-0500
_audit_creation_method            fapswitch 2.2
_symmetry_space_group_name_H-M    P1
_symmetry_Int_Tables_number       1
_space_group_crystal_system       triclinic
_cell_length_a                    10.97513
_cell_length_b                    9.696304
_cell_length_c                    23.478363
_cell_angle_alpha                 90.650385
_cell_angle_beta                  90.439608
_cell_angle_gamma                 91.26183
_cell_volume                      2497.67980134

loop_
_atom_site_label
_atom_site_type_symbol
_atom_type_description
_atom_site_fract_x
_atom_site_fract_y
_atom_site_fract_z
_atom_type_partial_charge
C1    C     C_R   0.260163 0.498414 0.498001 0.859735
C2    C     C_R   0.323513 0.648880 0.971077 0.328497
C3    C     C_R   0.327884 0.653931 0.031323 0.328900
C4    C     C_R   0.418064 0.580802 0.061027 -0.073201
C5    C     C_R   0.510279 0.512677 0.030438 -0.159943
C6    C     C_R   0.603425 0.443951 0.060211 -0.072716
C7    C     C_R   0.698419 0.381309 0.029666 0.329690
C8    C     C_R   0.694442 0.376460 0.969393 0.327834
C9    C     C_R   0.419752 0.575142 0.121058 0.633526
C10   C     C_R   0.599427 0.441310 0.120283 0.621140
C11   C     C_R   0.583331 0.587188 0.241798 -0.149205
C12   C     C_R   0.498351 0.499418 0.391597 0.770481
C13   C     C_R   0.578944 0.586555 0.300930 -0.242991
C14   C     C_R   0.496660 0.498841 0.329107 -0.126973
C15   C     C_R   0.415718 0.411751 0.296947 0.339812
C16   C     C_R   0.423011 0.410648 0.237178 0.175957
C17   C     C_R   0.505932 0.499635 0.209821 0.266727
C18   C     C_R   0.441074 0.402257 0.762349 0.102092
C19   C     C_R   0.437627 0.397773 0.702224 0.070258
C20   C     C_R   0.498206 0.502371 0.671220 -0.074138
C21   C     C_R   0.559346 0.610640 0.700359 -0.306575
C22   C     C_R   0.562579 0.615236 0.759804 0.145188
C23   C     C_R   0.738873 0.501055 0.498270 0.887029
C24   C     C_R   0.503895 0.510779 0.790710 0.342217
C25   C     C_3   0.072637 0.557733 0.556446 0.208171
C26   C     C_3   0.063690 0.341833 0.488277 0.219331
C27   C     C_3   0.929906 0.535591 0.557533 0.063695
C28   C     C_3   0.922010 0.353657 0.480512 0.045301
C29   C     C_3   0.072244 0.590115 0.445892 0.563055
C30   C     C_3   0.120714 0.496264 0.497008 -0.074653
C31   C     C_3   0.876821 0.502270 0.495950 -0.222120
C32   C     C_3   0.929108 0.605040 0.449954 0.664860
C33   C     C_3   0.621844 0.086754 0.521743 0.399023
C34   C     C_3   0.613737 0.919906 0.529750 0.432417
C35   C     C_3   0.410078 0.079502 0.542183 0.252423
C36   C     C_3   0.395044 0.915984 0.533863 0.222424
C37   C     C_3   0.470199 0.077042 0.442609 0.487242
C38   C     C_3   0.490619 0.911902 0.441389 0.601881
C39   C     C_R   0.498831 0.500568 0.608553 0.818370
C40   C     C_R   0.598756 0.449018 0.879520 0.644049
C41   C     C_R   0.418333 0.581603 0.880358 0.643888
C42   C     C_R   0.417002 0.583533 0.940467 -0.074516
C43   C     C_R   0.510621 0.515478 0.970216 -0.161156
C44   C     C_R   0.602720 0.447072 0.939617 -0.074893
Cu1   Cu    Cu3+1 0.499860 0.642410 0.500030 1.060149
Cu2   Cu    Cu3+1 0.499860 0.357590 0.500030 1.028785
H1    H     H_    0.606589 0.690924 0.676998 0.198468
H2    H     H_    0.909095 0.443213 0.583373 0.147583
H3    H     H_    0.881158 0.286296 0.512726 0.149022
H4    H     H_    0.439713 0.096287 0.586654 0.026070
H5    H     H_    0.389753 0.866406 0.576337 0.086316
H6    H     H_    0.646857 0.656171 0.220635 0.171849
H7    H     H_    0.641031 0.653895 0.324747 0.180335
N1    N     N_R   0.507585 0.514739 0.851797 -0.463272
N2    N     N_R   0.508491 0.505352 0.148821 -0.477745
N3    N     N_3   0.500250 0.143650 0.501250 -0.199726
N4    N     N_3   0.500250 0.856350 0.501250 -0.191422
O1    O     O_R   0.317570 0.620260 0.500030 -0.504412
O2    O     O_R   0.317570 0.379740 0.500030 -0.509854
O3    O     O_R   0.499840 0.620290 0.417900 -0.527669
O4    O     O_R   0.499840 0.379710 0.417900 -0.558324
O5    O     O_R   0.682190 0.620260 0.500010 -0.482528
O6    O     O_R   0.682190 0.379740 0.500010 -0.541223
O7    O     O_R   0.499920 0.620230 0.582140 -0.577534
O8    O     O_R   0.499920 0.379770 0.582140 -0.568135
O9    O     O_2   0.684963 0.386174 0.848557 -0.455609
O10   O     O_2   0.331607 0.645845 0.850206 -0.458519
O11   O     O_2   0.333244 0.637804 0.151913 -0.448326
O12   O     O_2   0.684333 0.373869 0.150329 -0.442159
O13   O     O_3   0.227324 0.705045 0.941648 -0.662040
H8    H     H_    0.152965 0.697796 0.965197 0.340943
N5    N     N_3   0.370387 0.290197 0.672588 -0.580874
H9    H     H_    0.404931 0.195064 0.684458 0.204541
H10   H     H_    0.279028 0.293905 0.684609 0.226150
N6    N     N_3   0.625970 0.725685 0.789162 -0.558209
H11   H     H_    0.587957 0.818446 0.776417 0.229607
H12   H     H_    0.716810 0.726225 0.776055 0.243029
N7    N     N_3   0.107143 0.704686 0.563741 -0.538329
H13   H     H_    0.050390 0.768710 0.540956 0.278480
H14   H     H_    0.097382 0.734823 0.606368 0.221354
N8    N     N_3   0.120007 0.267380 0.440031 -0.492345
H15   H     H_    0.101908 0.304401 0.399777 0.271617
H16   H     H_    0.087160 0.165294 0.438282 0.269581
N9    N     N_3   0.127701 0.484181 0.604612 -0.590160
H17   H     H_    0.085595 0.513283 0.642607 0.240065
H18   H     H_    0.219771 0.512866 0.608958 0.231316
N10   N     N_3   0.086345 0.256875 0.539070 -0.503255
H19   H     H_    0.063965 0.153535 0.529688 0.218609
H20   H     H_    0.029760 0.277349 0.573301 0.186355
O14   O     O_3   0.869704 0.638840 0.588222 -0.726357
H21   H     H_    0.865386 0.721065 0.564591 0.377293
O15   O     O_3   0.874983 0.300834 0.428339 -0.664120
H22   H     H_    0.915217 0.347354 0.396283 0.391856
O16   O     O_3   0.126743 0.723258 0.449046 -0.685890
H23   H     H_    0.194372 0.729478 0.421488 0.401773
O17   O     O_3   0.102739 0.530638 0.392867 -0.796857
H24   H     H_    0.082543 0.596542 0.362274 0.371170
O18   O     O_3   0.902946 0.741297 0.465572 -0.739912
H25   H     H_    0.915661 0.800661 0.431795 0.370057
O19   O     O_3   0.873782 0.577264 0.396323 -0.756157
H26   H     H_    0.788281 0.608068 0.397842 0.336338
N11   N     N_3   0.666433 0.149888 0.576431 -0.641429
H27   H     H_    0.730451 0.229679 0.572214 0.240994
H28   H     H_    0.603157 0.178886 0.606545 0.230727
N12   N     N_3   0.617146 0.879386 0.590678 -0.553610
H29   H     H_    0.704188 0.894956 0.608356 0.223411
H30   H     H_    0.560216 0.937317 0.616369 0.147197
O20   O     O_3   0.245724 0.731359 0.061645 -0.659558
H31   H     H_    0.222530 0.811784 0.038597 0.338974
O21   O     O_3   0.709779 0.118467 0.480408 -0.694773
H32   H     H_    0.791783 0.096706 0.494898 0.335829
O22   O     O_3   0.717083 0.864679 0.504956 -0.651409
H33   H     H_    0.789590 0.898522 0.526760 0.314444
O23   O     O_3   0.345625 0.097409 0.431021 -0.634358
H34   H     H_    0.335521 0.197214 0.425382 0.392969
O24   O     O_3   0.388424 0.847649 0.414518 -0.618258
H35   H     H_    0.380894 0.883133 0.375151 0.319779
N13   N     N_3   0.536728 0.141473 0.394840 -0.531288
H36   H     H_    0.501149 0.104128 0.356023 0.209977
H37   H     H_    0.630582 0.132823 0.393365 0.271153
N14   N     N_3   0.597797 0.870739 0.407421 -0.541433
H38   H     H_    0.579352 0.877838 0.363811 0.170339
H39   H     H_    0.675843 0.930969 0.414419 0.252884
O25   O     O_3   0.297973 0.142610 0.538779 -0.606712
H40   H     H_    0.256322 0.125012 0.575584 0.306606
O26   O     O_3   0.283522 0.884831 0.506757 -0.554536
H41   H     H_    0.218136 0.913003 0.532929 0.335087
O27   O     O_3   0.795511 0.327427 0.059213 -0.658397
H42   H     H_    0.869872 0.336465 0.035754 0.340798
O28   O     O_3   0.778154 0.301089 0.939124 -0.662515
H43   H     H_    0.802867 0.221296 0.962189 0.338890
O29   O     O_3   0.326417 0.330610 0.321786 -0.724234
H44   H     H_    0.306257 0.371258 0.359267 0.336510
N15   N     N_3   0.344050 0.321937 0.203611 -0.542088
H45   H     H_    0.253910 0.345943 0.212940 0.274766
H46   H     H_    0.358294 0.220187 0.215866 0.254788
N16   N     N_3   0.381154 0.297832 0.795408 -0.568750
H47   H     H_    0.417394 0.202246 0.784773 0.231095
H48   H     H_    0.288321 0.295854 0.785133 0.236254

loop_
_geom_bond_atom_site_label_1
_geom_bond_atom_site_label_2
_ccdc_geom_bond_type
C27   H2    S    
N10   H19   S    
Cu1   O3    S    
O26   H41   S    
Cu2   O2    S    
C34   O22   S    
C41   C42   A    
C35   C36   S    
C43   C44   A    
C16   N15   S    
O27   H42   S    
O23   H34   S    
C7    C8    A    
C41   O10   S    
Cu1   Cu2   S    
O24   H35   S    
C39   O7    A    
N12   H30   S    
Cu1   N4    S    
C37   C38   S    
C18   C24   A    
C35   O25   S    
N9    H18   S    
C29   C32   S    
C1    O2    A    
C5    C6    A    
N7    H14   S    
C16   C17   A    
C24   N1    S    
C15   C16   A    
Cu1   O5    S    
O20   H31   S    
C27   O14   S    
C18   C19   A    
N13   H36   S    
C1    C30   S    
C11   H6    S    
O21   H32   S    
C37   N3    S    
C23   O5    A    
C37   N13   S    
C19   C20   A    
C26   N10   S    
C25   N9    S    
O13   H8    S    
C9    N2    A    
C13   C14   A    
C7    O27   S    
C17   N2    S    
C33   N3    S    
C23   O6    A    
C5    C43   A    
C40   O9    S    
C21   C22   A    
C39   O8    A    
C19   N5    S    
O16   H23   S    
C22   N6    S    
O22   H33   S    
N8    H16   S    
N8    H15   S    
C13   H7    S    
Cu1   O1    S    
C15   O29   S    
Cu2   O4    S    
C27   C31   S    
C33   N11   S    
N9    H17   S    
Cu2   O8    S    
N5    H10   S    
C36   N4    S    
C20   C39   S    
N7    H13   S    
O29   H44   S    
N15   H46   S    
C37   O23   S    
C25   N7    S    
C32   O19   S    
C23   C31   S    
C18   N16   S    
N6    H11   S    
C29   C30   S    
C34   N4    S    
C38   N4    S    
C38   O24   S    
C28   H3    S    
C31   C32   S    
O17   H24   S    
C35   H4    S    
C33   C34   S    
C28   O15   S    
N11   H28   S    
C10   N2    A    
N6    H12   S    
N14   H38   S    
C6    C7    A    
C36   H5    S    
C12   C14   S    
C26   C30   S    
C26   N8    S    
C40   N1    A    
N10   H20   S    
C8    O28   S    
C22   C24   A    
C42   C43   A    
C3    C4    A    
N12   H29   S    
C25   C30   S    
C11   C17   A    
C35   N3    S    
N16   H48   S    
C34   N12   S    
C28   C31   S    
C36   O26   S    
C8    C44   A    
N5    H9    S    
C6    C10   A    
C29   O17   S    
N15   H45   S    
C3    O20   S    
C25   C27   S    
N16   H47   S    
Cu1   O7    S    
C26   C28   S    
Cu2   O6    S    
C2    C3    A    
C9    O11   S    
C1    O1    A    
C12   O4    A    
C11   C13   A    
O14   H21   S    
C29   O16   S    
C2    C42   A    
C4    C5    A    
O15   H22   S    
C32   O18   S    
O28   H43   S    
N11   H27   S    
N13   H37   S    
C41   N1    A    
N14   H39   S    
C38   N14   S    
C12   O3    A    
C10   O12   S    
C40   C44   A    
C20   C21   A    
O18   H25   S    
Cu2   N3    S    
C14   C15   A    
O19   H26   S    
C33   O21   S    
C4    C9    A    
C2    O13   S    
O25   H40   S    
C21   H1    S    
