data_mof_unit_39116.cif
_audit_creation_date              2012-10-26T19:23:45-0400
_audit_creation_method            fapswitch 2.2
_symmetry_space_group_name_H-M    P1
_symmetry_Int_Tables_number       1
_space_group_crystal_system       triclinic
_cell_length_a                    27.727894
_cell_length_b                    12.993567
_cell_length_c                    11.646716
_cell_angle_alpha                 101.116748
_cell_angle_beta                  93.477675
_cell_angle_gamma                 90.589762
_cell_volume                      4108.7756162

loop_
_atom_site_label
_atom_site_type_symbol
_atom_type_description
_atom_site_fract_x
_atom_site_fract_y
_atom_site_fract_z
_atom_type_partial_charge
C1    C     C_R   0.500166 0.298572 0.477115 0.555530
C2    C     C_R   0.871648 0.465907 0.399001 -0.006231
C3    C     C_R   0.355030 0.504150 0.502659 -0.024710
C4    C     C_R   0.645595 0.501203 0.498586 -0.038721
C5    C     C_R   0.973846 0.477402 0.402592 -0.010762
C6    C     C_R   0.028182 0.528500 0.618785 -0.009830
C7    C     C_R   0.977561 0.544846 0.614514 0.039403
C8    C     C_R   0.024348 0.496093 0.404003 0.038598
C9    C     C_R   0.950212 0.511420 0.506594 -0.093406
C10   C     C_R   0.051736 0.513663 0.512931 -0.094041
C11   C     C_R   0.946556 0.420970 0.303059 0.291418
C12   C     C_R   0.501490 0.701432 0.522597 0.576934
C13   C     C_R   0.055572 0.518968 0.723094 0.297221
C14   C     C_R   0.895707 0.422927 0.297383 0.276592
C15   C     C_R   0.106429 0.518985 0.726225 0.259869
C16   C     C_R   0.407615 0.500877 0.500701 0.627000
C17   C     C_R   0.592585 0.500357 0.499502 0.585491
C18   C     C_R   0.048318 0.499895 0.301256 0.395154
C19   C     C_R   0.953364 0.594848 0.712762 0.394612
C20   C     C_R   0.503006 0.815746 0.536898 -0.038982
C21   C     C_R   0.501722 0.184299 0.461990 -0.060316
C22   C     C_R   0.504911 0.009319 0.341905 0.260963
C23   C     C_R   0.102759 0.514352 0.515466 -0.106959
C24   C     C_R   0.502881 0.990463 0.657483 0.268071
C25   C     C_R   0.505681 0.118609 0.351092 0.248269
C26   C     C_R   0.508424 0.881795 0.648347 0.270768
C27   C     C_R   0.500603 0.140751 0.562501 -0.198924
C28   C     C_R   0.500582 0.859051 0.435924 -0.195543
C29   C     C_R   0.501415 0.032995 0.555028 -0.043951
C30   C     C_R   0.502182 0.966964 0.443784 -0.046216
C31   C     C_R   0.446979 0.420862 0.023651 0.306891
C32   C     C_R   0.552012 0.582469 0.977206 0.315993
C33   C     C_R   0.453328 0.425236 0.145134 0.065557
C34   C     C_R   0.899156 0.510135 0.503361 -0.109077
C35   C     C_R   0.546160 0.576330 0.855327 0.100224
C36   C     C_R   0.523502 0.533072 0.156619 0.028495
C37   C     C_R   0.476172 0.467973 0.843678 0.033344
C38   C     C_R   0.519075 0.529670 0.033998 -0.046726
C39   C     C_R   0.480349 0.472251 0.966524 -0.045111
C40   C     C_R   0.176544 0.510650 0.413438 0.440541
C41   C     C_R   0.825127 0.552774 0.601031 0.453042
C42   C     C_R   0.181339 0.518174 0.620309 0.441833
C43   C     C_R   0.820760 0.462996 0.401350 0.422368
C44   C     C_R   0.280582 0.600086 0.496549 0.421125
C45   C     C_R   0.126033 0.509926 0.410419 -0.023019
C46   C     C_R   0.723503 0.448105 0.572397 0.432121
C47   C     C_R   0.330729 0.594888 0.484264 0.210886
C48   C     C_R   0.672990 0.444575 0.570538 0.201968
C49   C     C_R   0.328978 0.416853 0.523711 0.174605
C50   C     C_R   0.669017 0.560587 0.428041 0.182222
C51   C     C_R   0.278912 0.421888 0.530666 -0.120242
C52   C     C_R   0.719782 0.558817 0.427092 -0.146175
C53   C     C_R   0.254675 0.512765 0.516386 0.165247
C54   C     C_R   0.746932 0.504314 0.500054 0.156528
C55   C     C_3   0.351916 0.255309 0.434701 0.006384
C56   C     C_R   0.875701 0.553351 0.605028 -0.027011
C57   C     C_3   0.368409 0.149263 0.458586 -0.245758
C58   C     C_3   0.372144 0.069125 0.345218 -0.486588
C59   C     C_3   0.660612 0.718897 0.364835 0.011908
C60   C     C_3   0.619750 0.791826 0.342633 -0.229845
C61   C     C_3   0.639028 0.902253 0.342707 -0.475398
C62   C     C_3   0.565861 0.863142 0.793992 0.008606
C63   C     C_3   0.603572 0.810550 0.710981 -0.294972
C64   C     C_3   0.654242 0.821498 0.771233 -0.465294
C65   C     C_3   0.556536 0.173853 0.228009 0.026549
C66   C     C_3   0.558417 0.215704 0.114350 -0.249819
C67   C     C_R   0.098470 0.506076 0.304827 -0.082584
C68   C     C_3   0.610311 0.236064 0.086578 -0.463552
C69   C     C_3   0.473941 0.922034 0.161462 0.008472
C70   C     C_3   0.481185 0.817383 0.078471 -0.263460
C71   C     C_3   0.445034 0.799761 0.972256 -0.462857
C72   C     C_3   0.459216 0.046277 0.818394 -0.000151
C73   C     C_3   0.425588 0.134282 0.797729 -0.256729
C74   C     C_3   0.379623 0.132211 0.863016 -0.416601
C75   C     C_3   0.646388 0.283034 0.589530 0.036586
C76   C     C_3   0.625372 0.221105 0.674515 -0.231961
C77   C     C_3   0.624346 0.103463 0.624844 -0.488480
C78   C     C_R   0.903157 0.598297 0.707742 -0.091194
C79   C     C_3   0.344747 0.707803 0.358237 0.031212
C80   C     C_3   0.375466 0.647606 0.263750 -0.280629
C81   C     C_3   0.363673 0.678655 0.145762 -0.482443
C82   C     C_3   0.875518 0.424442 0.102401 0.035898
C83   C     C_3   0.837923 0.509890 0.101441 -0.268675
C84   C     C_3   0.842842 0.563971 0.997288 -0.458178
C85   C     C_3   0.134689 0.601899 0.909184 0.054394
C86   C     C_3   0.169522 0.590636 0.012684 -0.238249
C87   C     C_3   0.171076 0.688875 0.108902 -0.470309
C88   C     C_3   0.982510 0.263394 0.252725 0.019618
C89   C     C_R   0.130403 0.518322 0.622223 -0.004418
C90   C     C_3   0.006324 0.190595 0.154277 -0.254636
C91   C     C_3   0.026207 0.093727 0.195163 -0.471698
C92   C     C_3   0.018025 0.394421 0.801769 0.021015
C93   C     C_3   0.984047 0.379970 0.896145 -0.229417
C94   C     C_3   0.963206 0.268311 0.874264 -0.491770
Cu1   Cu    Cu3+1 0.503580 0.507730 0.615930 0.990748
Cu2   Cu    Cu3+1 0.496420 0.492270 0.384070 0.942630
F1    F     F_    0.407851 0.368782 0.963302 -0.681225
F2    F     F_    0.589777 0.639237 0.038613 -0.672586
F3    F     F_    0.749799 0.395412 0.643621 -0.595614
F4    F     F_    0.257004 0.690465 0.492038 -0.613093
F5    F     F_    0.023607 0.507319 0.199093 -0.624073
F6    F     F_    0.977857 0.649282 0.810446 -0.602557
H1    H     H_    0.447028 0.422737 0.790493 0.196786
H2    H     H_    0.499223 0.191459 0.647635 0.186026
H3    H     H_    0.377145 0.283225 0.375750 0.145266
H4    H     H_    0.314947 0.244139 0.389967 0.130316
H5    H     H_    0.404199 0.159496 0.507297 0.174668
H6    H     H_    0.342426 0.119217 0.513995 0.177864
H7    H     H_    0.336268 0.055213 0.296413 0.150794
H8    H     H_    0.384901 0.993796 0.366352 0.141138
H9    H     H_    0.398293 0.097319 0.288969 0.160957
H10   H     H_    0.686831 0.716694 0.295868 0.160765
H11   H     H_    0.678855 0.751964 0.452595 0.114447
H12   H     H_    0.552631 0.578203 0.209855 0.213306
H13   H     H_    0.599980 0.760544 0.256944 0.234926
H14   H     H_    0.594159 0.795408 0.412752 0.156850
H15   H     H_    0.659524 0.934358 0.427102 0.134814
H16   H     H_    0.608491 0.954556 0.331342 0.176298
H17   H     H_    0.663059 0.901072 0.269586 0.160946
H18   H     H_    0.570112 0.833124 0.877010 0.162747
H19   H     H_    0.573158 0.949126 0.818075 0.164944
H20   H     H_    0.594342 0.726003 0.680964 0.189652
H21   H     H_    0.603829 0.847684 0.632721 0.138471
H22   H     H_    0.664672 0.905693 0.800434 0.149261
H23   H     H_    0.571915 0.616591 0.812720 0.152020
H24   H     H_    0.680477 0.783782 0.708695 0.164642
H25   H     H_    0.655732 0.782397 0.848165 0.185278
H26   H     H_    0.575840 0.098133 0.217306 0.153354
H27   H     H_    0.575236 0.231442 0.300851 0.126398
H28   H     H_    0.540653 0.157820 0.040726 0.179585
H29   H     H_    0.538442 0.290110 0.122543 0.192391
H30   H     H_    0.628397 0.295606 0.157963 0.174799
H31   H     H_    0.610229 0.266058 0.003485 0.166467
H32   H     H_    0.630895 0.162294 0.076074 0.147523
H33   H     H_    0.469106 0.985442 0.110137 0.171653
H34   H     H_    0.427503 0.385143 0.188013 0.149900
H35   H     H_    0.440623 0.914276 0.208580 0.110154
H36   H     H_    0.518274 0.815441 0.046941 0.212632
H37   H     H_    0.477348 0.752336 0.127068 0.155305
H38   H     H_    0.407522 0.811255 0.999257 0.138893
H39   H     H_    0.448156 0.718754 0.921444 0.179436
H40   H     H_    0.452923 0.855633 0.914946 0.179450
H41   H     H_    0.467350 0.053579 0.914224 0.148669
H42   H     H_    0.440032 0.969187 0.786757 0.147340
H43   H     H_    0.444707 0.211191 0.827661 0.218774
H44   H     H_    0.415480 0.124782 0.702590 0.154913
H45   H     H_    0.258767 0.354673 0.546503 0.156779
H46   H     H_    0.360121 0.055616 0.834037 0.135795
H47   H     H_    0.355477 0.195342 0.844100 0.219297
H48   H     H_    0.388581 0.145126 0.959077 0.172319
H49   H     H_    0.682366 0.250669 0.566166 0.173833
H50   H     H_    0.621744 0.273001 0.508719 0.092791
H51   H     H_    0.647699 0.236585 0.758850 0.192550
H52   H     H_    0.588095 0.247405 0.692377 0.185244
H53   H     H_    0.603573 0.085986 0.538549 0.147270
H54   H     H_    0.606974 0.061171 0.686089 0.165486
H55   H     H_    0.661710 0.074834 0.614103 0.147618
H56   H     H_    0.738546 0.600794 0.370812 0.135388
H57   H     H_    0.352350 0.793104 0.366198 0.153624
H58   H     H_    0.305774 0.694932 0.329435 0.186625
H59   H     H_    0.414366 0.664703 0.289719 0.200842
H60   H     H_    0.368263 0.562032 0.254012 0.180827
H61   H     H_    0.325724 0.655863 0.114301 0.171889
H62   H     H_    0.388142 0.637980 0.080436 0.175808
H63   H     H_    0.368578 0.764725 0.154233 0.132898
H64   H     H_    0.869688 0.365619 0.019686 0.155627
H65   H     H_    0.912470 0.458703 0.101624 0.177378
H66   H     H_    0.801034 0.474300 0.095809 0.224675
H67   H     H_    0.115597 0.507965 0.224187 0.166386
H68   H     H_    0.842750 0.569477 0.183891 0.163955
H69   H     H_    0.879184 0.601969 0.002209 0.167002
H70   H     H_    0.815097 0.625101 0.998413 0.183695
H71   H     H_    0.837501 0.506192 0.913547 0.194851
H72   H     H_    0.098479 0.622063 0.942258 0.198968
H73   H     H_    0.148390 0.666854 0.868841 0.142951
H74   H     H_    0.157984 0.522282 0.049612 0.198157
H75   H     H_    0.206416 0.576016 0.981625 0.208140
H76   H     H_    0.182807 0.758234 0.074046 0.148321
H77   H     H_    0.197185 0.678381 0.181680 0.199889
H78   H     H_    0.885879 0.636885 0.784949 0.170572
H79   H     H_    0.134853 0.702895 0.144030 0.171581
H80   H     H_    0.950314 0.221851 0.276586 0.144405
H81   H     H_    0.008984 0.281556 0.330126 0.119367
H82   H     H_    0.979253 0.164985 0.079757 0.171292
H83   H     H_    0.036355 0.233517 0.123513 0.187766
H84   H     H_    0.054333 0.116953 0.267946 0.152052
H85   H     H_    0.042737 0.042036 0.121280 0.163828
H86   H     H_    0.996676 0.049123 0.225382 0.161720
H87   H     H_    0.049960 0.343943 0.807381 0.150914
H88   H     H_    0.998146 0.368703 0.714552 0.107121
H89   H     H_    0.498551 0.808143 0.350330 0.176927
H90   H     H_    0.004071 0.397339 0.983458 0.250941
H91   H     H_    0.953825 0.435595 0.896346 0.187319
H92   H     H_    0.942164 0.250102 0.788290 0.157038
H93   H     H_    0.938678 0.260322 0.943949 0.169622
H94   H     H_    0.992711 0.211247 0.875262 0.149815
N1    N     N_R   0.202991 0.514691 0.517146 -0.365151
N2    N     N_R   0.798799 0.506747 0.500868 -0.370237
N3    N     N_R   0.508960 0.519350 0.790140 -0.287656
N4    N     N_R   0.491040 0.480650 0.209860 -0.299059
O1    O     O_R   0.502540 0.354460 0.582000 -0.517057
O2    O     O_2   0.802333 0.598047 0.696500 -0.483025
O3    O     O_2   0.793239 0.415541 0.306032 -0.458706
O4    O     O_2   0.209201 0.522309 0.720181 -0.450811
O5    O     O_3   0.352459 0.327641 0.542254 -0.553513
O6    O     O_3   0.641140 0.616785 0.359096 -0.541694
O7    O     O_3   0.517609 0.839412 0.747777 -0.563844
O8    O     O_3   0.507663 0.159912 0.250513 -0.559879
O9    O     O_3   0.515732 0.944754 0.237953 -0.587700
O10   O     O_3   0.503531 0.056020 0.766640 -0.599527
O11   O     O_3   0.650519 0.389964 0.643990 -0.516888
O12   O     O_R   0.497460 0.645540 0.418000 -0.530099
O13   O     O_3   0.357273 0.681837 0.468880 -0.547288
O14   O     O_3   0.869652 0.371614 0.196683 -0.508373
O15   O     O_3   0.132180 0.505812 0.827808 -0.521551
O16   O     O_3   0.968664 0.355957 0.213775 -0.522976
O17   O     O_3   0.033238 0.500842 0.820696 -0.490834
O18   O     O_R   0.496500 0.341410 0.386200 -0.464477
O19   O     O_R   0.503500 0.658590 0.613800 -0.454570
O20   O     O_R   0.433290 0.506540 0.597890 -0.472650
O21   O     O_R   0.566710 0.493460 0.402110 -0.474244
O22   O     O_R   0.427240 0.493490 0.402090 -0.532982
O23   O     O_R   0.572760 0.506510 0.597910 -0.487853
O24   O     O_2   0.199194 0.506019 0.313221 -0.519460

loop_
_geom_bond_atom_site_label_1
_geom_bond_atom_site_label_2
_ccdc_geom_bond_type
C72   H41   S    
C66   C68   S    
C46   F3    S    
C22   O9    S    
C34   C56   A    
C93   C94   S    
Cu2   O12   S    
C64   H24   S    
C61   H17   S    
C58   H7    S    
C73   C74   S    
C27   H2    S    
C71   H38   S    
C16   O22   A    
C26   O7    S    
C91   H86   S    
C84   H69   S    
C1    O1    A    
C3    C49   A    
C35   N3    A    
C65   O8    S    
C85   C86   S    
C67   H67   S    
C1    C21   S    
C75   O11   S    
C29   C30   A    
C40   O24   S    
C23   C45   A    
C74   H46   S    
C68   H31   S    
C24   C26   A    
C5    C11   A    
C85   O15   S    
C77   H54   S    
C82   H64   S    
C38   C39   A    
C19   F6    S    
C27   C29   A    
C40   N1    A    
C83   H68   S    
C76   H51   S    
C56   C78   A    
C14   O14   S    
C68   H30   S    
C68   H32   S    
C76   H52   S    
C35   H23   S    
C24   C29   A    
C21   C25   A    
C85   H73   S    
C82   O14   S    
C42   O4    S    
C44   C53   A    
C72   O10   S    
Cu1   Cu2   S    
C75   H49   S    
C49   C51   A    
C22   C25   A    
C87   H79   S    
C45   C67   A    
C50   C52   A    
C31   C33   A    
C74   H47   S    
C1    O18   A    
C32   C38   A    
C25   O8    S    
C22   C30   A    
C2    C43   A    
C12   O19   A    
C62   H18   S    
C44   C47   A    
C11   O16   S    
C71   H39   S    
C2    C34   A    
C37   N3    A    
C21   C27   A    
C36   H12   S    
C59   C60   S    
C69   H33   S    
C58   H8    S    
C63   C64   S    
C52   H56   S    
C81   H61   S    
C12   C20   S    
C69   C70   S    
C79   O13   S    
C92   H88   S    
C59   H10   S    
C82   H65   S    
C69   H35   S    
C40   C45   A    
C55   O5    S    
C46   C48   A    
C49   O5    S    
C55   H4    S    
C61   H15   S    
C58   H9    S    
C66   H28   S    
C32   C35   A    
C76   C77   S    
C12   O12   A    
C72   C73   S    
C15   O15   S    
C79   H58   S    
C37   H1    S    
C24   O10   S    
C86   C87   S    
C41   N2    A    
C88   H81   S    
C20   C28   A    
C33   N4    A    
C18   C67   A    
C64   H22   S    
C82   C83   S    
C86   H75   S    
C8    C18   A    
C94   H93   S    
C4    C50   A    
C60   C61   S    
C51   C53   A    
C18   F5    S    
C19   C78   A    
C75   C76   S    
C65   H26   S    
C41   C56   A    
C5    C9    A    
C62   C63   S    
C17   O23   A    
C65   H27   S    
C15   C89   A    
C88   H80   S    
C83   C84   S    
C48   O11   S    
C51   H45   S    
C75   H50   S    
C59   H11   S    
C64   H25   S    
C46   C54   A    
C23   C89   A    
Cu1   O20   S    
C52   C54   A    
C11   C14   A    
C72   H42   S    
C80   H60   S    
C70   C71   S    
C94   H94   S    
C71   H40   S    
C4    C17   S    
C50   O6    S    
C59   O6    S    
Cu1   N3    S    
C57   H5    S    
C91   H84   S    
C90   H82   S    
C65   C66   S    
Cu2   O22   S    
C55   C57   S    
C43   O3    S    
C9    C34   A    
C81   H62   S    
C78   H78   S    
C60   H14   S    
C69   O9    S    
C90   C91   S    
C84   H71   S    
C28   H89   S    
C62   O7    S    
C63   H20   S    
C92   H87   S    
C66   H29   S    
C4    C48   A    
C93   H90   S    
Cu2   N4    S    
C91   H85   S    
C88   O16   S    
C61   H16   S    
C94   H92   S    
C42   N1    A    
C93   H91   S    
C36   N4    A    
C88   C90   S    
C80   C81   S    
C84   H70   S    
C6    C10   A    
C5    C8    A    
C63   H21   S    
C70   H36   S    
C6    C7    A    
C90   H83   S    
C10   C23   A    
Cu1   O1    S    
C83   H66   S    
C7    C19   A    
C54   N2    S    
C73   H44   S    
C42   C89   A    
C53   N1    S    
C13   C15   A    
C28   C30   A    
C37   C39   A    
C85   H72   S    
C77   H53   S    
C36   C38   A    
C79   H57   S    
C44   F4    S    
C33   H34   S    
C57   C58   S    
C20   C26   A    
Cu2   O18   S    
C47   O13   S    
C3    C47   A    
C92   C93   S    
C55   H3    S    
C32   F2    S    
C16   O20   A    
C43   N2    A    
C86   H74   S    
C31   F1    S    
C92   O17   S    
C2    C14   A    
Cu1   O23   S    
C80   H59   S    
C17   O21   A    
C87   H77   S    
C79   C80   S    
C7    C9    A    
C70   H37   S    
C57   H6    S    
C6    C13   A    
C8    C10   A    
Cu2   O21   S    
C73   H43   S    
Cu1   O19   S    
C31   C39   A    
C81   H63   S    
C74   H48   S    
C60   H13   S    
C13   O17   S    
C41   O2    S    
C62   H19   S    
C3    C16   S    
C77   H55   S    
C87   H76   S    
