data_mof_unit_45303.cif
_audit_creation_date              2012-12-11T17:41:41-0500
_audit_creation_method            fapswitch 2.2
_symmetry_space_group_name_H-M    P1
_symmetry_Int_Tables_number       1
_space_group_crystal_system       triclinic
_cell_length_a                    15.665689
_cell_length_b                    15.197577
_cell_length_c                    14.888865
_cell_angle_alpha                 109.387774
_cell_angle_beta                  120.978769
_cell_angle_gamma                 58.767047
_cell_volume                      2588.39174565

loop_
_atom_site_label
_atom_site_type_symbol
_atom_type_description
_atom_site_fract_x
_atom_site_fract_y
_atom_site_fract_z
_atom_type_partial_charge
Br1   Br    Br    0.862006 0.802733 0.821163 -0.540392
Br2   Br    Br    0.151959 0.113582 0.109613 -0.630579
Br3   Br    Br    0.079560 0.737884 0.197228 -0.652712
Br4   Br    Br    0.914726 0.432182 0.977359 -0.542465
Br5   Br    Br    0.269439 0.407081 0.384757 -0.664570
Br6   Br    Br    0.731786 0.643913 0.698711 -0.520003
C1    C     C_R   0.805249 0.930405 0.767869 0.279223
C2    C     C_R   0.149748 0.382053 0.078072 0.194384
C3    C     C_R   0.735230 0.881559 0.023732 -0.174828
C4    C     C_R   0.259372 0.318835 0.092732 -0.189052
C5    C     C_R   0.714023 0.985592 0.040118 0.051193
C6    C     C_R   0.285776 0.226182 0.029918 0.051430
C7    C     C_R   0.801913 0.013521 0.093701 -0.202908
C8    C     C_R   0.202193 0.195877 0.952691 -0.188860
C9    C     C_R   0.909897 0.938244 0.135738 -0.248252
C10   C     C_R   0.093170 0.257924 0.938470 -0.131645
C11   C     C_R   0.931274 0.834385 0.123136 0.376226
C12   C     C_R   0.238700 0.012605 0.208664 0.314619
C13   C     C_R   0.066249 0.350838 0.000887 0.410959
C14   C     C_R   0.594403 0.095394 0.124569 -0.254854
C15   C     C_R   0.406819 0.155420 0.943253 -0.233154
C16   C     C_R   0.196077 0.268762 0.433103 -0.030703
C17   C     C_R   0.755269 0.711183 0.507825 -0.041375
C18   C     C_R   0.495141 0.125564 0.126887 0.069301
C19   C     C_R   0.505877 0.086437 0.935114 0.071899
C20   C     C_R   0.397811 0.167799 0.035535 0.054419
C21   C     C_R   0.603306 0.063205 0.029887 0.046922
C22   C     C_2   0.017868 0.342344 0.451141 -0.210481
C23   C     C_R   0.133064 0.269157 0.471984 0.103305
C24   C     C_2   0.850791 0.604474 0.386383 -0.183421
C25   C     C_2   0.963718 0.420005 0.390853 -0.065793
C26   C     C_2   0.870305 0.513049 0.403246 -0.104258
C27   C     C_2   0.984888 0.942604 0.835696 -0.155159
C28   C     C_2   0.154712 0.884900 0.104740 -0.156381
C29   C     C_R   0.350231 0.824335 0.786435 -0.176068
C30   C     C_R   0.664711 0.277581 0.288748 -0.186192
C31   C     C_R   0.416747 0.740130 0.740965 -0.101555
C32   C     C_R   0.596515 0.340367 0.340584 -0.129792
C33   C     C_R   0.369402 0.687455 0.646294 0.048388
C34   C     C_R   0.787526 0.701630 0.432816 0.095840
C35   C     C_R   0.640158 0.343788 0.450255 0.070994
C36   C     C_R   0.254652 0.720455 0.597259 -0.185731
C37   C     C_R   0.752665 0.283092 0.507283 -0.195282
C38   C     C_R   0.187290 0.806587 0.641491 0.362243
C39   C     C_R   0.820223 0.216400 0.454841 0.368904
C40   C     C_R   0.595685 0.227838 0.542153 -0.157418
C41   C     C_R   0.407596 0.783428 0.510227 -0.171656
C42   C     C_R   0.235862 0.858186 0.736642 -0.116329
C43   C     C_R   0.776068 0.215353 0.345427 -0.152527
C44   C     C_R   0.444494 0.501222 0.585618 -0.165526
C45   C     C_R   0.505644 0.320992 0.519740 -0.032639
C46   C     C_R   0.569461 0.522006 0.519270 -0.174283
C47   C     C_R   0.510371 0.416716 0.539104 0.101389
C48   C     C_R   0.503482 0.606599 0.564523 0.105692
C49   C     C_R   0.574256 0.426576 0.506212 0.033890
C50   C     C_R   0.439826 0.597963 0.598303 0.042533
C51   C     C_2   0.026437 0.910613 0.928603 -0.018918
C52   C     C_2   0.134968 0.897271 0.010447 -0.088101
C53   C     C_R   0.409252 0.042501 0.734384 0.340726
C54   C     C_R   0.591570 0.024689 0.291043 0.330834
C55   C     C_R   0.411189 0.305157 0.461453 0.318406
C56   C     C_R   0.498919 0.702512 0.565135 -0.032930
C57   C     C_R   0.590141 0.713069 0.589825 0.294377
C58   C     C_R   0.592540 0.982424 0.805544 -0.142019
C59   C     C_R   0.409586 0.094594 0.214415 -0.159009
C60   C     C_R   0.195535 0.181963 0.525656 -0.133661
C61   C     C_R   0.756639 0.800789 0.416091 -0.145021
C62   C     C_R   0.803872 0.026254 0.681505 -0.183213
C63   C     C_R   0.248700 0.913373 0.300086 -0.181686
C64   C     C_R   0.867919 0.969455 0.767418 0.057638
C65   C     C_R   0.216722 0.931657 0.200029 0.050718
C66   C     C_3   0.861989 0.694974 0.045461 -0.792350
C67   C     C_R   0.502447 0.039702 0.829599 -0.023043
C68   C     C_3   0.122353 0.485294 0.138914 -0.755353
C69   C     C_3   0.064485 0.842687 0.586478 -1.018609
C70   C     C_3   0.938827 0.146794 0.514360 -1.053976
C71   C     C_3   0.302434 0.055070 0.722176 -1.066256
C72   C     C_3   0.704819 0.021052 0.347247 -1.076024
C73   C     C_R   0.499354 0.084169 0.207955 0.004598
C74   C     C_R   0.843338 0.805274 0.063899 0.239517
H1    H     H_    0.108743 0.855441 0.111590 0.180683
H2    H     H_    0.334014 0.193427 0.876078 0.158282
H3    H     H_    0.829706 0.508448 0.441438 0.134741
H4    H     H_    0.998244 0.423689 0.345825 0.152831
H5    H     H_    0.892159 0.607796 0.348038 0.152857
H6    H     H_    0.982661 0.340615 0.496868 0.150491
H7    H     H_    0.185513 0.924631 0.772271 0.110180
H8    H     H_    0.827700 0.165743 0.304131 0.134966
H9    H     H_    0.163957 0.309047 0.367625 0.162110
H10   H     H_    0.766872 0.649858 0.539564 0.140155
H11   H     H_    0.387394 0.863926 0.860109 0.132422
H12   H     H_    0.033469 0.956277 0.814413 0.127529
H13   H     H_    0.631235 0.277325 0.204470 0.148350
H14   H     H_    0.505152 0.715407 0.779887 0.148993
H15   H     H_    0.510844 0.389646 0.295954 0.135265
H16   H     H_    0.217670 0.680258 0.523843 0.175090
H17   H     H_    0.787587 0.288924 0.592380 0.137641
H18   H     H_    0.396265 0.491630 0.610899 0.155198
H19   H     H_    0.614973 0.531109 0.489923 0.137033
H20   H     H_    0.681689 0.211983 0.584238 0.128949
H21   H     H_    0.322397 0.802516 0.486210 0.140980
H22   H     H_    0.676799 0.968463 0.855834 0.162564
H23   H     H_    0.666605 0.860936 0.984468 0.138273
H24   H     H_    0.326696 0.150315 0.177820 0.193378
H25   H     H_    0.162183 0.148839 0.545910 0.118182
H26   H     H_    0.769202 0.820367 0.361826 0.134940
H27   H     H_    0.833357 0.052287 0.648242 0.118283
H28   H     H_    0.238339 0.858910 0.320700 0.165112
H29   H     H_    0.184806 0.919443 0.000033 0.163249
H30   H     H_    0.972151 0.910014 0.952596 0.164059
H31   H     H_    0.904606 0.652485 0.993017 0.295369
H32   H     H_    0.910805 0.660460 0.121532 0.252073
H33   H     H_    0.783143 0.687676 0.005811 0.252076
H34   H     H_    0.323720 0.343356 0.150023 0.147688
H35   H     H_    0.073570 0.495479 0.178349 0.277436
H36   H     H_    0.197512 0.496001 0.199193 0.281382
H37   H     H_    0.075391 0.544398 0.083352 0.262647
H38   H     H_    0.022061 0.912942 0.629099 0.241205
H39   H     H_    0.033118 0.861326 0.505969 0.259690
H40   H     H_    0.043765 0.780801 0.580838 0.269110
H41   H     H_    0.953243 0.064991 0.486080 0.265379
H42   H     H_    0.991572 0.164074 0.500791 0.249340
H43   H     H_    0.962711 0.157247 0.600233 0.254417
H44   H     H_    0.316763 0.025343 0.789568 0.252931
H45   H     H_    0.786161 0.094186 0.109909 0.145007
H46   H     H_    0.241988 0.137258 0.718318 0.246766
H47   H     H_    0.267647 0.009298 0.649765 0.262856
H48   H     H_    0.756075 0.964907 0.304540 0.252209
H49   H     H_    0.698193 0.099596 0.358721 0.269900
H50   H     H_    0.747903 0.996171 0.427430 0.260451
H51   H     H_    0.221401 0.124550 0.902996 0.140411
H52   H     H_    0.976447 0.961623 0.182767 0.161159
H53   H     H_    0.029521 0.233643 0.878714 0.160346
H54   H     H_    0.669563 0.079077 0.194105 0.171316
N1    N     N_R   0.705410 0.966550 0.689210 -0.071549
N2    N     N_R   0.556610 0.796750 0.548620 -0.074317
N3    N     N_R   0.556610 0.951620 0.703500 -0.045464
N4    N     N_R   0.443390 0.048380 0.296500 -0.062904
N5    N     N_R   0.294590 0.131500 0.522480 -0.049344
N6    N     N_R   0.705410 0.868500 0.477520 -0.049441
N7    N     N_R   0.705410 0.023370 0.632390 -0.058690
N8    N     N_R   0.294590 0.976630 0.367610 -0.061738
N9    N     N_R   0.294590 0.033450 0.310790 -0.069762
N10   N     N_R   0.294590 0.188320 0.465660 -0.053807
N11   N     N_R   0.705410 0.811680 0.534340 -0.034325
N12   N     N_R   0.556610 0.157790 0.497330 -0.055459
N13   N     N_R   0.443390 0.842210 0.502670 -0.062500
N14   N     N_R   0.443390 0.997080 0.657540 -0.062066
N15   N     N_R   0.556610 0.002920 0.342460 -0.061612
N16   N     N_R   0.443390 0.203250 0.451380 -0.070295
Ni1   Ni    Ni4+2 0.629830 0.882720 0.617850 0.295196
Ni2   Ni    Ni4+2 0.370170 0.117280 0.382150 0.252273
Ni3   Ni    Ni4+2 0.629830 0.013030 0.487540 0.202072
Ni4   Ni    Ni4+2 0.370170 0.986970 0.512460 0.206231

loop_
_geom_bond_atom_site_label_1
_geom_bond_atom_site_label_2
_ccdc_geom_bond_type
C24   C26   D    
C15   C20   A    
C66   H32   S    
C54   C73   A    
C41   H21   S    
C16   C23   A    
Br2   C12   S    
C52   H29   S    
N3    N14   A    
C45   C55   A    
C72   H48   S    
C53   C71   S    
C41   C56   A    
C58   H22   S    
C17   N11   A    
C54   C72   S    
N14   Ni4   S    
C39   C70   S    
C59   C73   A    
C70   H41   S    
C22   C23   S    
C29   C31   A    
C72   H49   S    
C18   C20   A    
C29   C42   A    
C17   C34   A    
C63   C65   A    
N13   Ni4   S    
N15   Ni3   S    
C35   C49   S    
C40   H20   S    
N12   N16   A    
Br4   C13   S    
C30   H13   S    
C60   N5    A    
C14   C18   A    
C34   C61   A    
C32   H15   S    
C58   C67   A    
C62   H27   S    
C39   C43   A    
C55   N16   A    
C53   C67   A    
C19   C67   S    
C71   H47   S    
C46   C49   A    
N6    Ni3   S    
C58   N3    A    
C7    H45   S    
C53   N14   A    
C66   H31   S    
C35   C37   A    
C43   H8    S    
C69   H38   S    
C36   C38   A    
C1    C64   A    
C10   H53   S    
C63   H28   S    
C46   C48   A    
C33   C36   A    
C48   C50   A    
C8    H51   S    
C47   C49   A    
N4    N15   A    
C41   N13   A    
C44   H18   S    
C44   C47   A    
C9    H52   S    
C24   C34   S    
C2    C13   A    
C69   H39   S    
C32   C35   A    
C27   H12   S    
C48   C56   S    
N5    Ni4   S    
N4    Ni2   S    
C63   N8    A    
C66   H33   S    
C11   C74   A    
C44   C50   A    
C25   H4    S    
C6    C20   S    
C45   C47   S    
C3    C74   A    
Br6   C57   S    
C38   C69   S    
C22   C25   D    
C1    N1    A    
C56   C57   A    
C3    C5    A    
N5    N10   A    
C18   C73   S    
C51   H30   S    
C5    C21   S    
C3    H23   S    
C68   H36   S    
C2    C68   S    
C42   H7    S    
Br5   C55   S    
C62   N7    A    
C33   C50   S    
N8    Ni4   S    
C24   H5    S    
C61   N6    A    
C37   C39   A    
N11   Ni1   S    
C4    C6    A    
C27   C64   S    
C59   N4    A    
C2    C4    A    
N9    Ni2   S    
C28   H1    S    
C6    C8    A    
C7    C9    A    
C22   H6    S    
C36   H16   S    
C60   H25   S    
N2    Ni1   S    
C12   C65   A    
C9    C11   A    
C26   H3    S    
C15   C19   A    
C12   N9    A    
C27   C51   D    
C8    C10   A    
Br1   C1    S    
C70   H43   S    
C68   H37   S    
C25   C26   S    
C69   H40   S    
C37   H17   S    
C4    H34   S    
N6    N11   A    
C61   H26   S    
C14   C21   A    
C19   C21   A    
C46   H19   S    
C70   H42   S    
C57   N2    A    
C30   C32   A    
C72   H50   S    
C31   C33   A    
C71   H44   S    
C17   H10   S    
C5    C7    A    
N7    Ni3   S    
C51   C52   S    
C40   N12   A    
N12   Ni3   S    
C10   C13   A    
N1    Ni1   S    
C68   H35   S    
C40   C45   A    
C16   H9    S    
C31   H14   S    
Br3   C11   S    
N16   Ni2   S    
C54   N15   A    
N2    N13   A    
C30   C43   A    
C23   C60   A    
C38   C42   A    
N1    N7    A    
C15   H2    S    
C66   C74   S    
C16   N10   A    
C28   C52   D    
C62   C64   A    
N8    N9    A    
N3    Ni1   S    
C59   H24   S    
C14   H54   S    
C28   C65   S    
C71   H46   S    
N10   Ni2   S    
C29   H11   S    
