data_mof_unit_12290.cif
_audit_creation_date              2013-03-05T16:46:58-0500
_audit_creation_method            fapswitch 2.2
_symmetry_space_group_name_H-M    P1
_symmetry_Int_Tables_number       1
_space_group_crystal_system       triclinic
_cell_length_a                    14.940558
_cell_length_b                    8.926115
_cell_length_c                    8.115472
_cell_angle_alpha                 90.042389
_cell_angle_beta                  90.000112
_cell_angle_gamma                 89.999805
_cell_volume                      1082.2882922

loop_
_atom_site_label
_atom_site_type_symbol
_atom_site_description
_atom_site_fract_x
_atom_site_fract_y
_atom_site_fract_z
_atom_type_partial_charge
O1    O     O_R   0.500000 0.285350 0.636850 -0.617722
O2    O     O_R   0.500000 0.714650 0.363150 -0.617725
O3    O     O_R   0.500000 0.714650 0.636850 -0.627794
O4    O     O_R   0.500000 0.285350 0.363150 -0.627791
H1    H     H_    0.918746 0.123907 0.558677 0.178512
H2    H     H_    0.080282 0.875844 0.437098 0.184280
H3    H     H_    0.918741 0.876094 0.441320 0.178513
H4    H     H_    0.080287 0.124160 0.562893 0.184273
C1    C     C_R   0.500032 0.218039 0.499965 0.979278
C2    C     C_R   0.500032 0.781961 0.500035 0.979277
O5    O     O_R   0.367850 0.500000 0.636890 -0.635378
O6    O     O_R   0.632150 0.500000 0.363110 -0.627682
O7    O     O_R   0.632150 0.500000 0.636890 -0.627683
O8    O     O_R   0.367850 0.500000 0.363110 -0.635397
C3    C     C_R   0.326707 0.500004 0.500000 1.044821
C4    C     C_R   0.673180 0.499999 0.500000 1.034994
Zn1   Zn    Zn3+2 0.500000 0.500000 0.682780 0.991581
Zn2   Zn    Zn3+2 0.500000 0.500000 0.317220 0.991576
N1    N     N_1   0.500000 0.500000 0.073640 -0.045594
N2    N     N_1   0.500000 0.500000 0.926360 -0.045591
C5    C     C_R   0.813046 0.637034 0.490056 0.381165
C6    C     C_R   0.186587 0.365972 0.533716 0.373673
C7    C     C_R   0.813048 0.362965 0.509945 0.381164
C8    C     C_R   0.186586 0.634036 0.466281 0.373684
C9    C     C_R   0.768180 0.499999 0.500000 -0.291457
C10   C     C_R   0.231519 0.500004 0.499998 -0.298280
C11   C     C_R   0.906237 0.363103 0.517804 0.026114
C12   C     C_R   0.093306 0.635861 0.473873 0.023560
C13   C     C_R   0.906235 0.636898 0.482195 0.026114
C14   C     C_R   0.093308 0.364143 0.526123 0.023565
C15   C     C_R   0.952988 0.500001 0.499999 -0.026796
C16   C     C_R   0.046604 0.500002 0.499998 -0.024346
C17   C     C_R   0.953336 0.229246 0.541520 -0.196282
C18   C     C_R   0.045992 0.770333 0.454825 -0.196044
C19   C     C_R   0.953332 0.770755 0.458477 -0.196284
C20   C     C_R   0.045995 0.229671 0.545171 -0.196042
C21   C     C_1   0.500049 0.065213 0.499951 -0.181792
C22   C     C_1   0.500049 0.934787 0.500048 -0.181778
O9    O     O_3   0.764948 0.769443 0.478659 -0.625296
C23   C     C_3   0.754210 0.828860 0.638726 -0.307982
H5    H     H_    0.819469 0.865156 0.691215 0.170610
H6    H     H_    0.721217 0.747804 0.723272 0.173965
H7    H     H_    0.710387 0.928871 0.631554 0.216434
O10   O     O_3   0.234765 0.235102 0.558593 -0.607060
C24   C     C_3   0.243138 0.210016 0.729672 -0.279715
H8    H     H_    0.177081 0.188922 0.788257 0.152504
H9    H     H_    0.276897 0.304942 0.792945 0.176069
H10   H     H_    0.284948 0.108795 0.748753 0.201134
O11   O     O_3   0.764951 0.230555 0.521342 -0.625297
C25   C     C_3   0.754213 0.171139 0.361274 -0.307986
H11   H     H_    0.819471 0.134842 0.308785 0.170610
H12   H     H_    0.721219 0.252195 0.276729 0.173964
H13   H     H_    0.710390 0.071129 0.368447 0.216436
O12   O     O_3   0.234760 0.764911 0.441419 -0.607052
C26   C     C_3   0.243133 0.790015 0.270344 -0.279804
H14   H     H_    0.177065 0.810944 0.211718 0.152484
H15   H     H_    0.276986 0.695166 0.207100 0.176142
H16   H     H_    0.284856 0.891340 0.251279 0.201152

loop_
_geom_bond_atom_site_label_1
_geom_bond_atom_site_label_2
_geom_bond_distance
_ccdc_geom_bond_type
C8    O12   1.387010 S    
C25   H12   1.112639 S    
C26   H14   1.111635 S    
C21   C22   1.164190 T    
C14   C20   1.401645 A    
O2    Zn2   1.951640 S    
C8    C12   1.395110 A    
O8    Zn2   2.009212 S    
O1    Zn1   1.951641 S    
N1    N2    1.195246 T    
C5    O9    1.386363 S    
O7    Zn1   2.009211 S    
C2    C22   1.364147 S    
O4    Zn2   1.952182 S    
Zn1   N2    1.976767 S    
C26   H15   1.111481 S    
C25   H11   1.112139 S    
C12   C18   1.401646 A    
C13   C15   1.415004 A    
O3    C2    1.262845 A    
C24   H8    1.111604 S    
C11   C17   1.400052 A    
C14   C16   1.415211 A    
H3    C19   1.082014 S    
C26   H16   1.109395 S    
O5    C3    1.269654 A    
O6    C4    1.268835 A    
C1    C21   1.364147 S    
C23   H5    1.112141 S    
C8    C10   1.399063 A    
O3    Zn1   1.952181 S    
C7    C11   1.393758 A    
C7    C9    1.397212 A    
H4    C20   1.081830 S    
C6    O10   1.387010 S    
C7    O11   1.386362 S    
C25   H13   1.108632 S    
O9    C23   1.411900 S    
C11   C15   1.415002 A    
O2    C2    1.262568 A    
O1    C1    1.262568 A    
H2    C18   1.081831 S    
C12   C16   1.415212 A    
C17   C20   1.384710 A    
C24   H9    1.111472 S    
O10   C24   1.412046 S    
C18   C19   1.384707 A    
C6    C10   1.399062 A    
O7    C4    1.268835 A    
O6    Zn2   2.009209 S    
C4    C9    1.419355 S    
O11   C25   1.411900 S    
C13   C19   1.400050 A    
O12   C26   1.412043 S    
Zn2   N1    1.976767 S    
C3    C10   1.422156 S    
C5    C9    1.397211 A    
C6    C14   1.395107 A    
O4    C1    1.262845 A    
O8    C3    1.269651 A    
C5    C13   1.393756 A    
C23   H7    1.108633 S    
O5    Zn1   2.009211 S    
C15   C16   1.398677 A    
C23   H6    1.112640 S    
C24   H10   1.109372 S    
H1    C17   1.082013 S    
