data_mof_unit_54955.cif
_audit_creation_date              2012-12-10T18:53:01-0500
_audit_creation_method            fapswitch 2.2
_symmetry_space_group_name_H-M    P1
_symmetry_Int_Tables_number       1
_space_group_crystal_system       triclinic
_cell_length_a                    9.829532
_cell_length_b                    10.625245
_cell_length_c                    16.688928
_cell_angle_alpha                 89.878468
_cell_angle_beta                  84.512161
_cell_angle_gamma                 90.494393
_cell_volume                      1734.95017796

loop_
_atom_site_label
_atom_site_type_symbol
_atom_type_description
_atom_site_fract_x
_atom_site_fract_y
_atom_site_fract_z
_atom_type_partial_charge
C1    C     C_R   0.500859 0.739715 0.497704 0.920389
C2    C     C_R   0.499560 0.260060 0.501320 0.961942
C3    C     C_R   0.570464 0.933120 0.554470 -0.297023
C4    C     C_R   0.434741 0.066291 0.441769 -0.289999
C5    C     C_R   0.570383 0.062071 0.557170 0.389321
C6    C     C_R   0.435006 0.937066 0.438955 0.383736
C7    C     C_R   0.500211 0.127615 0.501187 -0.183830
C8    C     C_R   0.502165 0.871847 0.496347 -0.159042
C9    C     C_R   0.934681 0.422518 0.450008 -0.302501
C10   C     C_R   0.065158 0.578135 0.549947 -0.313935
C11   C     C_R   0.079854 0.417864 0.451706 0.588319
C12   C     C_R   0.918748 0.579048 0.550767 0.612238
C13   C     C_R   0.480346 0.502661 0.653519 0.954626
C14   C     C_R   0.519749 0.502262 0.346869 0.960345
C15   C     C_R   0.466092 0.532163 0.738939 -0.178175
C16   C     C_R   0.533173 0.534818 0.262573 -0.171627
C17   C     C_R   0.562176 0.492033 0.790482 0.303930
C18   C     C_R   0.467190 0.463875 0.207234 0.309087
C19   C     C_R   0.551462 0.533153 0.870453 0.381283
C20   C     C_R   0.465803 0.508103 0.128293 0.414924
C21   C     C_R   0.446462 0.619266 0.897574 0.001317
C22   C     C_R   0.526406 0.627699 0.106667 -0.033343
C23   C     C_R   0.351038 0.656019 0.845513 -0.198348
C24   C     C_R   0.596139 0.693999 0.162572 -0.178750
C25   C     C_R   0.360174 0.612547 0.767259 -0.253424
C26   C     C_R   0.600086 0.647650 0.239808 -0.191189
C27   C     C_2   0.422452 0.662771 0.981530 0.374733
C28   C     C_2   0.529033 0.682275 0.025078 0.374508
H1    H     H_    0.650205 0.702957 0.283127 0.180732
H2    H     H_    0.286438 0.645453 0.727871 0.179774
H3    H     H_    0.269129 0.719540 0.865488 0.177088
H4    H     H_    0.645874 0.783260 0.146934 0.169477
H5    H     H_    0.621035 0.880428 0.598519 0.185990
H6    H     H_    0.386656 0.119148 0.396871 0.216081
H7    H     H_    0.881614 0.364622 0.409942 0.170715
H8    H     H_    0.119046 0.636766 0.589302 0.160201
N1    N     N_R   0.142790 0.500030 0.500020 -0.121262
N2    N     N_R   0.857210 0.499970 0.499980 -0.119671
O1    O     O_R   0.385380 0.683250 0.500010 -0.597590
O2    O     O_R   0.614620 0.316750 0.499990 -0.583385
O3    O     O_R   0.614710 0.683220 0.500000 -0.599833
O4    O     O_R   0.385290 0.316780 0.500000 -0.594306
O5    O     O_R   0.371780 0.500040 0.615800 -0.642319
O6    O     O_R   0.628220 0.499960 0.384200 -0.643193
O7    O     O_R   0.601110 0.500010 0.615800 -0.518465
O8    O     O_R   0.398890 0.499990 0.384200 -0.528833
Zn1   Zn    Zn3+2 0.346870 0.500020 0.500000 1.030929
Zn2   Zn    Zn3+2 0.653130 0.499980 0.500000 1.039396
Cl1   Cl    Cl    0.693711 0.386447 0.756628 -0.482195
Cl2   Cl    Cl    0.389866 0.317702 0.236696 -0.547849
O9    O     O_3   0.653725 0.724915 0.988233 -0.610018
C29   C     C_3   0.652090 0.857422 0.979020 0.049665
H9    H     H_    0.755069 0.893139 0.990389 0.191917
H10   H     H_    0.577749 0.905572 0.023419 0.120771
C30   C     C_3   0.624781 0.893320 0.893035 -0.446596
H11   H     H_    0.688884 0.835165 0.849191 0.248946
H12   H     H_    0.515758 0.875104 0.884615 0.209991
C31   C     C_3   0.655947 0.032265 0.875836 -0.735974
H13   H     H_    0.592578 0.092238 0.918928 0.286057
H14   H     H_    0.632293 0.055562 0.813824 0.301885
H15   H     H_    0.765810 0.052929 0.880738 0.266374
O10   O     O_3   0.289870 0.651849 0.018377 -0.603014
C32   C     C_3   0.246478 0.769405 0.050347 0.024490
H16   H     H_    0.265923 0.845877 0.004614 0.130326
H17   H     H_    0.300415 0.792302 0.104251 0.162611
C33   C     C_3   0.092916 0.761993 0.075393 -0.255337
H18   H     H_    0.038121 0.738235 0.022047 0.240354
H19   H     H_    0.071894 0.686276 0.121098 0.251835
C34   C     C_3   0.038758 0.886264 0.110635 -0.912058
H20   H     H_    0.090348 0.910863 0.164968 0.286271
H21   H     H_    0.927178 0.877315 0.128067 0.258945
H22   H     H_    0.056304 0.962944 0.065379 0.275463
Cl3   Cl    Cl    0.394411 0.406636 0.058928 -0.456184
Cl4   Cl    Cl    0.666018 0.466775 0.934486 -0.470013
Cl5   Cl    Cl    0.655176 0.136812 0.632497 -0.589014
Cl6   Cl    Cl    0.357112 0.860839 0.361145 -0.653302
O11   O     O_3   0.162728 0.335620 0.404311 -0.582212
C35   C     C_3   0.100389 0.217576 0.390380 0.098452
H23   H     H_    0.175392 0.162351 0.351289 0.218132
H24   H     H_    0.012156 0.226768 0.354142 0.136002
C36   C     C_3   0.064453 0.141516 0.468406 -0.418153
H25   H     H_    0.158237 0.127155 0.499355 0.247852
H26   H     H_    0.989805 0.192829 0.510150 0.244278
C37   C     C_3   0.002015 0.013759 0.450727 -0.843368
H27   H     H_    0.905829 0.026389 0.421785 0.264559
H28   H     H_    0.977992 0.960994 0.507865 0.263280
H29   H     H_    0.074692 0.957901 0.410436 0.295073
O12   O     O_3   0.831590 0.653741 0.601476 -0.606074
C38   C     C_3   0.895372 0.744646 0.647499 0.016650
H30   H     H_    0.820230 0.820704 0.661660 0.185471
H31   H     H_    0.983783 0.792717 0.613528 0.128216
C39   C     C_3   0.929392 0.688469 0.727896 -0.308053
H32   H     H_    0.833333 0.655537 0.762435 0.259081
H33   H     H_    0.997488 0.606111 0.717589 0.235535
C40   C     C_3   0.998714 0.785626 0.777942 -0.933900
H34   H     H_    0.097892 0.816142 0.746028 0.257482
H35   H     H_    0.017878 0.743476 0.836711 0.280916
H36   H     H_    0.932436 0.869056 0.789345 0.275398

loop_
_geom_bond_atom_site_label_1
_geom_bond_atom_site_label_2
_ccdc_geom_bond_type
C33   H19   S    
C30   H11   S    
C32   H17   S    
C1    C8    S    
C2    C7    S    
C37   H29   S    
C36   H25   S    
C40   H36   S    
C14   O8    A    
O11   C35   S    
C10   N1    A    
O1    Zn1   S    
C19   C21   A    
C24   C26   A    
C28   O9    S    
C35   H24   S    
C15   C25   A    
C33   C34   S    
C3    H5    S    
C31   H14   S    
C18   C20   A    
C34   H21   S    
C11   N1    A    
O2    Zn2   S    
C9    N2    A    
C11   O11   S    
C40   H34   S    
C38   H31   S    
N2    Zn2   S    
C29   C30   S    
C31   H15   S    
C33   H18   S    
C21   C27   S    
C32   C33   S    
C22   C28   S    
C4    C7    A    
C36   H26   S    
C29   H10   S    
C16   C26   A    
C4    H6    S    
C12   O12   S    
O9    C29   S    
C37   H27   S    
C4    C6    A    
C3    C8    A    
C17   Cl1   S    
C5    C7    A    
C35   H23   S    
C6    C8    A    
C31   H13   S    
C39   C40   S    
C23   H3    S    
C5    Cl5   S    
C34   H22   S    
C24   H4    S    
O10   C32   S    
C27   O10   S    
C13   C15   S    
C39   H33   S    
C38   C39   S    
C9    C11   A    
C10   C12   A    
C1    O3    A    
C20   C22   A    
C21   C23   A    
C22   C24   A    
N1    Zn1   S    
C13   O5    A    
C36   C37   S    
C29   H9    S    
C18   Cl2   S    
C14   O6    A    
O7    Zn2   S    
C25   H2    S    
C15   C17   A    
O8    Zn1   S    
C19   Cl4   S    
C37   H28   S    
C3    C5    A    
C40   H35   S    
C6    Cl6   S    
C30   H12   S    
C13   O7    A    
C35   C36   S    
C2    O4    A    
C39   H32   S    
C17   C19   A    
O3    Zn2   S    
C20   Cl3   S    
C14   C16   S    
O4    Zn1   S    
C23   C25   A    
C12   N2    A    
C34   H20   S    
C1    O1    A    
C32   H16   S    
C2    O2    A    
O12   C38   S    
C26   H1    S    
C16   C18   A    
C30   C31   S    
C27   C28   D    
C9    H7    S    
C10   H8    S    
C38   H30   S    
O5    Zn1   S    
O6    Zn2   S    
