data_mof_unit_8978.cif
_audit_creation_date              2012-12-10T18:33:30-0500
_audit_creation_method            fapswitch 2.2
_symmetry_space_group_name_H-M    P1
_symmetry_Int_Tables_number       1
_space_group_crystal_system       triclinic
_cell_length_a                    8.720307
_cell_length_b                    15.116259
_cell_length_c                    13.942059
_cell_angle_alpha                 90.474727
_cell_angle_beta                  98.450941
_cell_angle_gamma                 91.126887
_cell_volume                      1817.3975966

loop_
_atom_site_label
_atom_site_type_symbol
_atom_type_description
_atom_site_fract_x
_atom_site_fract_y
_atom_site_fract_z
_atom_type_partial_charge
C1    C     C_R   0.502630 0.330101 0.500051 0.800207
C2    C     C_R   0.502672 0.669780 0.500515 0.797472
C3    C     C_R   0.635942 0.529624 0.122047 -0.101245
C4    C     C_R   0.445025 0.423080 0.884913 -0.095608
C5    C     C_R   0.626351 0.533196 0.222431 0.052955
C6    C     C_R   0.439304 0.428532 0.783182 0.044805
C7    C     C_R   0.378350 0.463512 0.195193 0.182250
C8    C     C_R   0.566326 0.568719 0.799961 0.169702
C9    C     C_R   0.377540 0.467467 0.094234 -0.212163
C10   C     C_R   0.559882 0.569129 0.900302 -0.221415
C11   C     C_R   0.507787 0.497313 0.055221 0.033911
C12   C     C_R   0.504603 0.495477 0.945798 0.038849
C13   C     C_R   0.203699 0.499961 0.474946 0.881039
C14   C     C_R   0.796297 0.500170 0.525042 0.879038
C15   C     C_2   0.037402 0.500045 0.461341 -0.332657
C16   C     C_2   0.962583 0.500224 0.538587 -0.355074
C17   C     C_R   0.586333 0.094210 0.575580 -0.049073
C18   C     C_R   0.600938 0.907228 0.449407 -0.047863
C19   C     C_R   0.592208 0.187031 0.576472 -0.067259
C20   C     C_R   0.606581 0.814558 0.450218 -0.062742
C21   C     C_R   0.505095 0.233368 0.500323 -0.066845
C22   C     C_R   0.505156 0.766241 0.500975 -0.061327
C23   C     C_R   0.415565 0.187171 0.423892 -0.269903
C24   C     C_R   0.401375 0.809902 0.551359 -0.240289
C25   C     C_R   0.406867 0.094945 0.422269 0.038531
C26   C     C_R   0.392265 0.901889 0.550258 0.040808
C27   C     C_R   0.493027 0.048214 0.499069 0.074370
C28   C     C_R   0.493030 0.950848 0.498551 0.070421
Cu1   Cu    Cu3+1 0.500000 0.499990 0.596430 0.950823
Cu2   Cu    Cu3+1 0.500000 0.500010 0.403570 0.961569
H1    H     H_    0.976447 0.499912 0.387485 0.187456
H2    H     H_    0.023592 0.500336 0.612429 0.181969
H3    H     H_    0.348799 0.223663 0.366031 0.131207
H4    H     H_    0.324094 0.771425 0.589901 0.144701
H5    H     H_    0.723415 0.560185 0.271916 0.152695
H6    H     H_    0.390096 0.373711 0.737695 0.148604
H7    H     H_    0.276293 0.443571 0.045906 0.188481
H8    H     H_    0.604077 0.626347 0.943709 0.188117
N1    N     N_R   0.500000 0.500020 0.258690 -0.224650
N2    N     N_R   0.500000 0.499980 0.741310 -0.223541
O1    O     O_R   0.500010 0.371450 0.581430 -0.584646
O2    O     O_R   0.499990 0.628550 0.418570 -0.561809
O3    O     O_R   0.500010 0.371460 0.418560 -0.605505
O4    O     O_R   0.499990 0.628540 0.581440 -0.607641
O5    O     O_R   0.274840 0.499990 0.562640 -0.575393
O6    O     O_R   0.725160 0.500010 0.437360 -0.583939
O7    O     O_R   0.274840 0.500000 0.399770 -0.600971
O8    O     O_R   0.725160 0.500000 0.600230 -0.605595
C29   C     C_1   0.676971 0.045699 0.652884 0.263495
N3    N     N_1   0.749148 0.006928 0.714395 -0.214320
C30   C     C_1   0.706837 0.957963 0.398902 0.262210
N4    N     N_1   0.791250 0.998473 0.358746 -0.227449
C31   C     C_1   0.691874 0.234138 0.653629 0.276574
N5    N     N_1   0.771335 0.271705 0.715134 -0.245787
C32   C     C_1   0.720334 0.769500 0.402331 0.264947
N6    N     N_1   0.811214 0.733610 0.364278 -0.268966
C33   C     C_2   0.305294 0.051558 0.339234 0.408684
H9    H     H_    0.249387 0.091777 0.280570 0.081717
O9    O     O_2   0.280700 0.971767 0.334931 -0.515372
C34   C     C_2   0.274939 0.942616 0.603544 0.405646
H10   H     H_    0.207421 0.900908 0.645495 0.079818
O10   O     O_2   0.250094 0.021790 0.601051 -0.525602
C35   C     C_1   0.781281 0.555204 0.091256 0.272944
N7    N     N_1   0.898007 0.575612 0.066747 -0.217997
C36   C     C_1   0.396175 0.340903 0.924138 0.238869
N8    N     N_1   0.357101 0.274920 0.955477 -0.230877
C37   C     C_2   0.250997 0.412396 0.229170 0.395363
H11   H     H_    0.271726 0.373936 0.294516 0.098289
O11   O     O_2   0.120956 0.410382 0.182473 -0.554234
C38   C     C_2   0.657159 0.640843 0.762664 0.405098
H12   H     H_    0.723725 0.628755 0.704602 0.106795
O12   O     O_2   0.662510 0.714976 0.798694 -0.542671

loop_
_geom_bond_atom_site_label_1
_geom_bond_atom_site_label_2
_ccdc_geom_bond_type
C2    C22   S    
C13   O5    A    
C32   N6    T    
C1    C21   S    
C38   H12   S    
C25   C27   A    
C3    C35   S    
C16   H2    S    
Cu2   O6    S    
C26   C28   A    
Cu2   O2    S    
C17   C27   A    
C10   H8    S    
C11   C12   S    
C19   C31   S    
C13   C15   S    
Cu1   O5    S    
C3    C5    A    
C18   C28   A    
C14   O6    A    
C31   N5    T    
C15   H1    S    
C9    C11   A    
C33   H9    S    
Cu1   Cu2   S    
C26   C34   S    
C10   C12   A    
C2    O2    A    
C20   C32   S    
C5    H5    S    
Cu1   N2    S    
C1    O1    A    
C37   H11   S    
C19   C21   A    
C6    H6    S    
C18   C30   S    
C29   N3    T    
C22   C24   A    
C5    N1    A    
Cu1   O4    S    
C4    C36   S    
C14   C16   S    
Cu2   O3    S    
C33   O9    D    
C4    C6    A    
C4    C12   A    
C20   C22   A    
Cu1   O8    S    
C7    C37   S    
C15   C16   D    
C25   C33   S    
C7    C9    A    
Cu2   O7    S    
C27   C28   S    
C6    N2    A    
C3    C11   A    
C23   H3    S    
C18   C20   A    
C34   O10   D    
C36   N8    T    
C2    O4    A    
Cu2   N1    S    
C13   O7    A    
C14   O8    A    
C7    N1    A    
C17   C19   A    
C38   O12   D    
C8    N2    A    
Cu1   O1    S    
C23   C25   A    
C35   N7    T    
C8    C38   S    
C21   C23   A    
C1    O3    A    
C8    C10   A    
C17   C29   S    
C30   N4    T    
C24   C26   A    
C34   H10   S    
C37   O11   D    
C9    H7    S    
C24   H4    S    
