data_mof_unit_11649.cif
_audit_creation_date              2012-12-11T14:41:11-0500
_audit_creation_method            fapswitch 2.2
_symmetry_space_group_name_H-M    P1
_symmetry_Int_Tables_number       1
_space_group_crystal_system       monoclinic
_cell_length_a                    6.930541
_cell_length_b                    17.878897
_cell_length_c                    19.092369
_cell_angle_alpha                 90.0
_cell_angle_beta                  90.0
_cell_angle_gamma                 90.000045
_cell_volume                      2365.74362756

loop_
_atom_site_label
_atom_site_type_symbol
_atom_type_description
_atom_site_fract_x
_atom_site_fract_y
_atom_site_fract_z
_atom_type_partial_charge
O1    O     O_R   0.377350 0.828520 0.186660 -0.548669
O2    O     O_R   0.622650 0.171480 0.813340 -0.556024
O3    O     O_R   0.122650 0.171480 0.686660 -0.548669
O4    O     O_R   0.877350 0.828520 0.313340 -0.556024
O5    O     O_R   0.877350 0.671480 0.313340 -0.548669
O6    O     O_R   0.122650 0.328520 0.686660 -0.556024
O7    O     O_R   0.622650 0.328520 0.813340 -0.548669
O8    O     O_R   0.377350 0.671480 0.186660 -0.556024
O9    O     O_R   0.707090 0.671930 0.178410 -0.536095
O10   O     O_R   0.292910 0.328070 0.821590 -0.525412
O11   O     O_R   0.792910 0.328070 0.678410 -0.536096
O12   O     O_R   0.207090 0.671930 0.321590 -0.525412
O13   O     O_R   0.207090 0.828070 0.321590 -0.536096
O14   O     O_R   0.792910 0.171930 0.678410 -0.525412
O15   O     O_R   0.292910 0.171930 0.821590 -0.536096
O16   O     O_R   0.707090 0.828070 0.178410 -0.525412
C1    C     C_R   0.538610 0.647045 0.160315 0.693735
C2    C     C_R   0.461218 0.353139 0.839526 0.684578
C3    C     C_R   0.961390 0.352955 0.660315 0.693735
C4    C     C_R   0.038782 0.646861 0.339526 0.684579
C5    C     C_R   0.038610 0.852954 0.339685 0.693735
C6    C     C_R   0.961218 0.146861 0.660474 0.684579
C7    C     C_R   0.461390 0.147045 0.839685 0.693735
C8    C     C_R   0.538782 0.853139 0.160474 0.684579
O17   O     O_3   0.543850 0.750000 0.294270 -0.371235
O18   O     O_3   0.456150 0.250000 0.705730 -0.371234
O19   O     O_3   0.956150 0.250000 0.794270 -0.371234
O20   O     O_3   0.043850 0.750000 0.205730 -0.371235
V1    V     V_3+5 0.818700 0.750000 0.241790 1.441704
V2    V     V_3+5 0.181300 0.250000 0.758210 1.441705
V3    V     V_3+5 0.681300 0.250000 0.741790 1.441705
V4    V     V_3+5 0.318700 0.750000 0.258210 1.441704
C9    C     C_R   0.963406 0.413759 0.606778 -0.125266
C10   C     C_R   0.037328 0.586125 0.393205 -0.138913
C11   C     C_R   0.536594 0.586241 0.106778 -0.125266
C12   C     C_R   0.462672 0.413875 0.893205 -0.138910
C13   C     C_R   0.463406 0.086241 0.893222 -0.125266
C14   C     C_R   0.537328 0.913875 0.106795 -0.138913
C15   C     C_R   0.036594 0.913759 0.393222 -0.125266
C16   C     C_R   0.962672 0.086125 0.606795 -0.138912
C17   C     C_R   0.209813 0.479985 0.442839 -0.098155
C18   C     C_R   0.792451 0.520891 0.558067 -0.136918
C19   C     C_R   0.290189 0.520016 0.942838 -0.098155
C20   C     C_R   0.707546 0.479108 0.058068 -0.136917
C21   C     C_R   0.709815 0.020014 0.057161 -0.098155
C22   C     C_R   0.292449 0.979110 0.941933 -0.136918
C23   C     C_R   0.790187 0.979985 0.557161 -0.098155
C24   C     C_R   0.207548 0.020891 0.441933 -0.136918
C25   C     C_R   0.191404 0.535386 0.392314 -0.104678
C26   C     C_R   0.814888 0.466851 0.609813 -0.184519
C27   C     C_R   0.308598 0.464615 0.892313 -0.104681
C28   C     C_R   0.685110 0.533148 0.109814 -0.184519
C29   C     C_R   0.691405 0.964614 0.107686 -0.104678
C30   C     C_R   0.314887 0.033149 0.890187 -0.184518
C31   C     C_R   0.808596 0.035386 0.607686 -0.104680
C32   C     C_R   0.185111 0.966851 0.390186 -0.184519
C33   C     C_R   0.895864 0.579978 0.446710 -0.082659
C34   C     C_R   0.095315 0.416263 0.549952 -0.053600
C35   C     C_R   0.604135 0.420021 0.946710 -0.082662
C36   C     C_R   0.404686 0.583738 0.049952 -0.053598
C37   C     C_R   0.395863 0.920022 0.053290 -0.082658
C38   C     C_R   0.595316 0.083737 0.950048 -0.053600
C39   C     C_R   0.104136 0.079978 0.553290 -0.082659
C40   C     C_R   0.904686 0.916263 0.450048 -0.053598
C41   C     C_R   0.917764 0.524258 0.500110 0.111594
C42   C     C_R   0.074331 0.472624 0.497264 0.105061
C43   C     C_R   0.582235 0.475742 0.000111 0.111593
C44   C     C_R   0.425670 0.527376 0.997264 0.105064
C45   C     C_R   0.417764 0.975742 0.999890 0.111594
C46   C     C_R   0.574331 0.027376 0.002736 0.105061
C47   C     C_R   0.082236 0.024258 0.499890 0.111594
C48   C     C_R   0.925670 0.972624 0.502736 0.105062
H1    H     H_    0.712980 0.466275 0.652882 0.130147
H2    H     H_    0.301239 0.538926 0.352032 0.141544
H3    H     H_    0.787016 0.533724 0.152883 0.130148
H4    H     H_    0.198763 0.461075 0.852031 0.141541
H5    H     H_    0.212978 0.033725 0.847118 0.130147
H6    H     H_    0.801240 0.961074 0.147967 0.141545
H7    H     H_    0.287018 0.966276 0.347117 0.130147
H8    H     H_    0.698761 0.038926 0.647968 0.141544
H9    H     H_    0.335767 0.444524 0.439550 0.169642
H10   H     H_    0.676768 0.560600 0.565216 0.173587
H11   H     H_    0.164237 0.555478 0.939549 0.169642
H12   H     H_    0.823227 0.439398 0.065217 0.173588
H13   H     H_    0.835768 0.055475 0.060449 0.169643
H14   H     H_    0.176766 0.939400 0.934785 0.173587
H15   H     H_    0.664234 0.944524 0.560450 0.169642
H16   H     H_    0.323230 0.060601 0.434784 0.173587
C49   C     C_2   0.247484 0.358131 0.544200 0.304441
H17   H     H_    0.342692 0.346724 0.587924 0.087768
O21   O     O_2   0.265136 0.321503 0.490610 -0.528811
C50   C     C_2   0.732640 0.633824 0.447577 0.393546
H18   H     H_    0.758785 0.692556 0.437361 0.090823
O22   O     O_2   0.567009 0.612639 0.456344 -0.537220
C51   C     C_2   0.252521 0.641870 0.044199 0.304439
H19   H     H_    0.157313 0.653280 0.087922 0.087769
O23   O     O_2   0.234871 0.678498 0.990608 -0.528812
C52   C     C_2   0.767357 0.366174 0.947578 0.393548
H20   H     H_    0.741211 0.307442 0.937361 0.090824
O24   O     O_2   0.932989 0.387358 0.956347 -0.537218
C53   C     C_2   0.747486 0.141868 0.955799 0.304442
H21   H     H_    0.842694 0.153275 0.912075 0.087769
O25   O     O_2   0.765141 0.178496 0.009389 -0.528811
C54   C     C_2   0.232639 0.866176 0.052423 0.393545
H22   H     H_    0.258783 0.807444 0.062639 0.090822
O26   O     O_2   0.067009 0.887361 0.043657 -0.537221
C55   C     C_2   0.752519 0.858130 0.455800 0.304439
H23   H     H_    0.657312 0.846721 0.412077 0.087769
O27   O     O_2   0.734867 0.821502 0.509391 -0.528811
C56   C     C_2   0.267359 0.133824 0.552423 0.393546
H24   H     H_    0.241215 0.192557 0.562639 0.090824
O28   O     O_2   0.432990 0.112639 0.543655 -0.537220

loop_
_geom_bond_atom_site_label_1
_geom_bond_atom_site_label_2
_ccdc_geom_bond_type
C9    C34   A    
C31   H8    S    
C33   C50   S    
C19   H11   S    
O13   V4    S    
C51   H19   S    
C18   H10   S    
O14   V3    S    
C28   H3    S    
C19   C27   A    
C54   O26   D    
C13   C38   A    
O5    C4    A    
C15   C40   A    
O11   C3    A    
C53   H21   S    
C16   C39   A    
O15   V2    S    
O20   V1    S    
C38   C46   A    
C56   H24   S    
C22   C45   A    
C35   C43   A    
C12   C35   A    
C34   C42   A    
C19   C44   A    
C18   C41   A    
C8    C14   S    
C55   H23   S    
C24   H16   S    
C49   O21   D    
O4    V1    S    
O9    V1    S    
C14   C37   A    
C4    C10   S    
C20   C28   A    
O17   V4    S    
O15   C7    A    
O11   V3    S    
O18   V3    S    
C53   O25   D    
O7    C2    A    
O12   V4    S    
O19   V2    S    
C55   O27   D    
C22   C30   A    
C17   C25   A    
C54   H22   S    
O5    V1    S    
O17   V1    S    
O7    V3    S    
C20   C43   A    
O19   V3    S    
C43   C44   A    
O8    V4    S    
O20   V4    S    
C37   C54   S    
C27   H4    S    
C3    C9    S    
C26   H1    S    
C30   H5    S    
C6    C16   S    
O16   V1    S    
C7    C13   S    
O1    V4    S    
C11   C36   A    
C23   H15   S    
O3    V2    S    
C21   H13   S    
O6    C3    A    
C10   C33   A    
O10   V2    S    
C15   C32   A    
C5    C15   S    
C16   C31   A    
C17   H9    S    
O12   C4    A    
C50   O22   D    
O13   C5    A    
C32   H7    S    
C12   C27   A    
C18   C26   A    
C13   C30   A    
O9    C1    A    
O6    V2    S    
C39   C47   A    
O18   V2    S    
C52   O24   D    
C24   C47   A    
O2    C7    A    
C40   C55   S    
C23   C31   A    
C37   C45   A    
C24   C32   A    
C10   C25   A    
C21   C46   A    
C33   C41   A    
C20   H12   S    
C51   O23   D    
C17   C42   A    
O8    C1    A    
C38   C53   S    
C39   C56   S    
C29   H6    S    
C9    C26   A    
C47   C48   A    
C41   C42   A    
O4    C5    A    
O14   C6    A    
C14   C29   A    
O10   C2    A    
C50   H18   S    
C40   C48   A    
C45   C46   A    
C34   C49   S    
C56   O28   D    
C23   C48   A    
C21   C29   A    
C36   C51   S    
C36   C44   A    
O1    C8    A    
O16   C8    A    
C52   H20   S    
C11   C28   A    
C35   C52   S    
C25   H2    S    
O2    V3    S    
O3    C6    A    
C1    C11   S    
C49   H17   S    
C2    C12   S    
C22   H14   S    
