data_mof_unit_43509.cif
_audit_creation_date              2012-10-26T18:33:59-0400
_audit_creation_method            fapswitch 2.2
_symmetry_space_group_name_H-M    P1
_symmetry_Int_Tables_number       1
_space_group_crystal_system       triclinic
_cell_length_a                    10.956641
_cell_length_b                    10.788119
_cell_length_c                    9.606264
_cell_angle_alpha                 89.620499
_cell_angle_beta                  100.768514
_cell_angle_gamma                 92.173182
_cell_volume                      1114.67722658

loop_
_atom_site_label
_atom_site_type_symbol
_atom_type_description
_atom_site_fract_x
_atom_site_fract_y
_atom_site_fract_z
_atom_type_partial_charge
C1    C     C_R   0.501053 0.262759 0.500496 0.564126
C2    C     C_2   0.874733 0.510873 0.584079 0.261490
C3    C     C_2   0.072675 0.569721 0.515327 0.274514
C4    C     C_2   0.935671 0.571841 0.492963 0.294482
C5    C     C_R   0.403944 0.063804 0.412934 0.254263
C6    C     C_R   0.595838 0.936113 0.586978 0.255444
C7    C     C_R   0.402295 0.933354 0.409410 -0.049974
C8    C     C_R   0.597371 0.066532 0.590685 -0.050673
C9    C     C_R   0.497465 0.871329 0.499291 -0.006289
C10   C     C_R   0.502298 0.128599 0.500691 -0.008647
C11   C     C_2   0.303275 0.861294 0.312284 0.263714
C12   C     C_R   0.498811 0.737218 0.499478 0.573883
C13   C     C_2   0.696202 0.138518 0.688107 0.264723
C14   C     C_R   0.262747 0.503223 0.444271 0.549412
C15   C     C_R   0.737598 0.503451 0.556043 0.553149
C16   C     C_R   0.430868 0.412850 0.062680 0.392568
C17   C     C_R   0.569151 0.587010 0.937177 0.396265
C18   C     C_R   0.430934 0.412110 0.913755 0.310193
C19   C     C_R   0.568445 0.588210 0.085780 0.304756
C20   C     C_2   0.126699 0.513657 0.418212 0.242896
Cu1   Cu    Cu3+1 0.500000 0.500020 0.640660 1.099069
Cu2   Cu    Cu3+1 0.500000 0.499980 0.359340 1.089997
H1    H     H_    0.932427 0.678625 0.329153 0.353545
H2    H     H_    0.770332 0.918050 0.669789 0.357946
H3    H     H_    0.271439 0.770657 0.343443 0.106970
H4    H     H_    0.727729 0.229368 0.657305 0.098720
H5    H     H_    0.087528 0.665655 0.688337 0.354140
H6    H     H_    0.310609 0.272313 0.052045 0.380012
H7    H     H_    0.690475 0.726688 0.947892 0.380672
H8    H     H_    0.883545 0.410214 0.754047 0.345258
H9    H     H_    0.106860 0.422538 0.240975 0.365065
H10   H     H_    0.336219 0.347544 0.738208 0.385898
H11   H     H_    0.656903 0.655651 0.261605 0.413179
H12   H     H_    0.229555 0.081923 0.329610 0.358231
N1    N     N_R   0.500030 0.500030 0.852080 -0.259221
N2    N     N_R   0.499970 0.499970 0.147920 -0.264687
O1    O     O_R   0.499990 0.319660 0.618740 -0.524866
O2    O     O_3   0.143930 0.624839 0.634719 -0.675473
O3    O     O_3   0.359299 0.328500 0.124407 -0.589700
O4    O     O_3   0.640911 0.671174 0.875435 -0.580931
O5    O     O_3   0.942228 0.454672 0.702429 -0.694792
O6    O     O_3   0.053133 0.465366 0.296214 -0.690714
O7    O     O_3   0.362271 0.318495 0.835464 -0.679834
O8    O     O_3   0.635996 0.682612 0.163276 -0.671242
O9    O     O_3   0.308569 0.131248 0.337522 -0.619548
O10   O     O_3   0.691350 0.868704 0.662175 -0.615669
O11   O     O_2   0.259578 0.900347 0.194617 -0.436563
O12   O     O_R   0.500010 0.680340 0.381260 -0.526717
O13   O     O_2   0.740053 0.099164 0.805587 -0.436377
O14   O     O_R   0.499990 0.319630 0.381170 -0.415501
O15   O     O_R   0.500010 0.680370 0.618830 -0.404731
O16   O     O_R   0.320690 0.500020 0.575130 -0.492315
O17   O     O_R   0.679310 0.499980 0.424870 -0.501946
O18   O     O_R   0.320680 0.499990 0.337560 -0.478945
O19   O     O_R   0.679320 0.500010 0.662440 -0.479733
O20   O     O_3   0.871410 0.635354 0.378712 -0.689495

loop_
_geom_bond_atom_site_label_1
_geom_bond_atom_site_label_2
_ccdc_geom_bond_type
C2    C4    D    
H5    O2    S    
H8    O5    S    
C8    C13   S    
Cu1   N1    S    
H9    O6    S    
Cu2   N2    S    
C1    O14   A    
C20   O6    S    
C12   O12   A    
C1    O1    A    
Cu2   O14   S    
H2    O10   S    
C6    C9    A    
Cu1   O19   S    
H1    O20   S    
Cu2   O18   S    
H12   O9    S    
C18   O7    S    
C4    O20   S    
C7    C11   S    
C2    C15   S    
C5    O9    S    
C13   O13   D    
C15   O17   A    
H7    O4    S    
C5    C10   A    
C17   C19   A    
H10   O7    S    
Cu2   O12   S    
Cu2   O17   S    
C5    C7    A    
C19   N2    A    
Cu1   O16   S    
C6    O10   S    
C9    C12   S    
C14   O16   A    
C13   H4    S    
Cu1   O15   S    
C11   H3    S    
C2    O5    S    
C3    C4    S    
C14   C20   S    
C3    C20   D    
C12   O15   A    
Cu1   O1    S    
C19   O8    S    
C8    C10   A    
C18   N1    A    
C7    C9    A    
C17   N1    A    
C6    C8    A    
C16   O3    S    
H6    O3    S    
C14   O18   A    
Cu1   Cu2   S    
H11   O8    S    
C11   O11   D    
C16   C18   A    
C16   N2    A    
C1    C10   S    
C3    O2    S    
C17   O4    S    
C15   O19   A    
