data_mof_unit_25715.cif
_audit_creation_date              2012-12-11T15:16:37-0500
_audit_creation_method            fapswitch 2.2
_symmetry_space_group_name_H-M    P1
_symmetry_Int_Tables_number       1
_space_group_crystal_system       triclinic
_cell_length_a                    25.166436
_cell_length_b                    7.264943
_cell_length_c                    21.94659
_cell_angle_alpha                 89.641271
_cell_angle_beta                  109.981522
_cell_angle_gamma                 89.971798
_cell_volume                      3770.92184687

loop_
_atom_site_label
_atom_site_type_symbol
_atom_type_description
_atom_site_fract_x
_atom_site_fract_y
_atom_site_fract_z
_atom_type_partial_charge
O1    O     O_R   0.554350 0.505270 0.581390 -0.534395
O2    O     O_R   0.445650 0.005270 0.418610 -0.529865
O3    O     O_R   0.553380 0.177580 0.454800 -0.535567
O4    O     O_R   0.446620 0.677580 0.545200 -0.531106
C1    C     C_R   0.564939 0.345481 0.436925 0.755380
C2    C     C_R   0.433530 0.844932 0.560814 0.732822
O5    O     O_R   0.560970 0.175640 0.583140 -0.541124
O6    O     O_R   0.439030 0.675640 0.416860 -0.519543
O7    O     O_R   0.453290 0.004120 0.547860 -0.513260
O8    O     O_R   0.546710 0.504120 0.452140 -0.505884
C3    C     C_R   0.576529 0.343603 0.607023 0.821040
C4    C     C_R   0.423308 0.845177 0.392993 0.853164
O9    O     O_3   0.464660 0.338800 0.488280 -0.359119
O10   O     O_3   0.535340 0.838800 0.511720 -0.372387
V1    V     V_3+5 0.506560 0.064420 0.502170 1.547824
V2    V     V_3+5 0.493440 0.564420 0.497830 1.566411
C5    C     C_R   0.143988 0.916373 0.288484 -0.065150
C6    C     C_R   0.856812 0.424026 0.711491 -0.136820
H1    H     H_    0.129568 0.916464 0.329683 0.194621
H2    H     H_    0.871242 0.422950 0.670330 0.175545
C7    C     C_R   0.120015 0.936493 0.172096 -0.127696
C8    C     C_R   0.880141 0.439635 0.827679 -0.090151
C9    C     C_R   0.396933 0.917930 0.276692 0.147622
C10   C     C_R   0.606116 0.299534 0.725105 0.147524
C11   C     C_R   0.357908 0.976191 0.217239 0.200070
C12   C     C_R   0.647206 0.273553 0.786488 0.209905
C13   C     C_R   0.300247 0.974275 0.207980 -0.134640
C14   C     C_R   0.704163 0.303597 0.795144 -0.133662
C15   C     C_R   0.279226 0.900836 0.254660 0.026748
C16   C     C_R   0.721762 0.372625 0.745055 0.020698
C17   C     C_R   0.318818 0.852191 0.317122 -0.014346
C18   C     C_R   0.680832 0.382288 0.680862 -0.018784
C19   C     C_R   0.219571 0.894965 0.242630 -0.004405
C20   C     C_R   0.780283 0.411999 0.756379 -0.000166
C21   C     C_R   0.201136 0.883175 0.296700 0.009651
C22   C     C_R   0.798601 0.420374 0.702094 0.038003
C23   C     C_R   0.239444 0.833691 0.358070 0.169269
C24   C     C_R   0.758942 0.426478 0.638814 0.159255
C25   C     C_R   0.297214 0.805598 0.367107 0.137290
C26   C     C_R   0.700461 0.416068 0.628301 0.128341
C27   C     C_R   0.177149 0.900314 0.179216 0.175266
C28   C     C_R   0.821774 0.443328 0.819297 0.149996
C29   C     C_R   0.104171 0.949824 0.227429 0.116520
C30   C     C_R   0.897460 0.425034 0.773592 0.127602
C31   C     C_R   0.378532 0.861071 0.327757 -0.118061
C32   C     C_R   0.622147 0.348140 0.671629 -0.114840
H3    H     H_    0.272201 0.041223 0.165040 0.173245
H4    H     H_    0.734883 0.261913 0.840838 0.175184
C33   C     C_R   0.128299 0.771962 0.890159 -0.102276
C34   C     C_R   0.871470 0.271881 0.109478 -0.144234
H5    H     H_    0.118383 0.644543 0.909759 0.149465
H6    H     H_    0.877403 0.148020 0.085325 0.140831
C35   C     C_R   0.164896 0.765725 0.854358 -0.149279
C36   C     C_R   0.837108 0.263621 0.147873 -0.178230
H7    H     H_    0.182091 0.633832 0.847844 0.167298
H8    H     H_    0.816876 0.134629 0.151539 0.164358
C37   C     C_R   0.179664 0.926522 0.827790 -0.030332
C38   C     C_R   0.827866 0.420272 0.180162 0.011831
C39   C     C_R   0.156059 0.096650 0.838191 0.206539
C40   C     C_R   0.854473 0.587591 0.173770 0.223535
C41   C     C_R   0.119595 0.101081 0.874354 -0.117120
C42   C     C_R   0.888223 0.595006 0.134115 -0.167106
H9    H     H_    0.101951 0.232437 0.880965 0.143621
H10   H     H_    0.908584 0.723366 0.129810 0.114266
C43   C     C_R   0.105166 0.939838 0.900776 -0.099762
C44   C     C_R   0.897213 0.437947 0.101772 -0.058367
N1    N     N_R   0.248588 0.057693 0.780669 -0.281351
N2    N     N_R   0.758596 0.553813 0.224699 -0.215444
N3    N     N_R   0.281371 0.045464 0.744337 -0.229067
N4    N     N_R   0.725478 0.543939 0.260675 -0.212949
C45   C     C_R   0.285242 0.885950 0.714229 0.573818
C46   C     C_R   0.722852 0.387964 0.293974 0.566285
N5    N     N_R   0.256311 0.737031 0.723850 -0.239695
N6    N     N_R   0.753603 0.239536 0.287897 -0.244711
N7    N     N_R   0.223419 0.749574 0.760258 -0.267261
N8    N     N_R   0.786630 0.249043 0.251558 -0.263605
C47   C     C_R   0.218106 0.911258 0.788770 0.507178
C48   C     C_R   0.790335 0.407363 0.219803 0.508239
C49   C     C_R   0.355069 0.721928 0.675785 -0.135219
C50   C     C_R   0.665446 0.210435 0.347867 -0.120179
H11   H     H_    0.355812 0.610309 0.709035 0.170691
H12   H     H_    0.677650 0.086587 0.329817 0.224334
C51   C     C_R   0.390789 0.712555 0.639060 -0.154261
C52   C     C_R   0.630533 0.201207 0.385711 -0.168297
H13   H     H_    0.418213 0.593799 0.645117 0.163656
H14   H     H_    0.622254 0.070293 0.402824 0.222104
C53   C     C_R   0.392500 0.856028 0.596513 -0.164386
C54   C     C_R   0.605534 0.359778 0.400106 -0.181270
C55   C     C_R   0.355006 0.007796 0.589114 0.204767
C56   C     C_R   0.622005 0.530621 0.380701 0.236186
C57   C     C_R   0.319389 0.017784 0.626870 0.272908
C58   C     C_R   0.667353 0.538755 0.357061 0.273462
C59   C     C_R   0.320211 0.875681 0.671607 -0.094832
C60   C     C_R   0.685323 0.379187 0.333923 -0.099636
O11   O     O_R   0.953220 0.285790 0.047790 -0.545812
O12   O     O_R   0.046780 0.785790 0.952210 -0.528824
O13   O     O_R   0.939020 0.617570 0.916840 -0.518845
O14   O     O_R   0.060980 0.117570 0.083160 -0.537921
C61   C     C_R   0.924011 0.448881 0.892844 0.794648
C62   C     C_R   0.075760 0.947886 0.107253 0.749048
O15   O     O_R   0.946600 0.615450 0.045180 -0.538369
O16   O     O_R   0.053400 0.115450 0.954820 -0.544739
O17   O     O_R   0.054370 0.786770 0.081410 -0.525421
O18   O     O_R   0.945630 0.286770 0.918590 -0.543434
C63   C     C_R   0.934718 0.446862 0.061980 0.708426
C64   C     C_R   0.065763 0.947342 0.938484 0.724033
O19   O     O_3   0.035300 0.454160 0.011680 -0.371327
O20   O     O_3   0.964700 0.954160 0.988320 -0.377972
V3    V     V_3+5 0.993450 0.728620 0.997830 1.507665
V4    V     V_3+5 0.006550 0.228620 0.002170 1.462040
N9    N     N_3   0.046810 0.985795 0.222525 -0.653773
H15   H     H_    0.034427 0.111954 0.198681 0.232202
H16   H     H_    0.021046 0.882779 0.194439 0.217122
N10   N     N_3   0.956743 0.421422 0.782044 -0.665866
H17   H     H_    0.962718 0.425450 0.737193 0.243085
H18   H     H_    0.972983 0.295078 0.803454 0.224367
N11   N     N_3   0.166506 0.267102 0.811223 -0.669081
H19   H     H_    0.156380 0.252438 0.761179 0.271661
H20   H     H_    0.209191 0.300749 0.832614 0.264305
N12   N     N_3   0.848616 0.748045 0.208997 -0.612473
H21   H     H_    0.870455 0.859211 0.198478 0.221740
H22   H     H_    0.868409 0.719248 0.258345 0.248589
Br1   Br    Br    0.348008 0.197061 0.524316 -0.517387
Br2   Br    Br    0.577190 0.748138 0.371654 -0.542384
Br3   Br    Br    0.266875 0.221022 0.613516 -0.431713
Br4   Br    Br    0.713530 0.754503 0.373065 -0.514489
N13   N     N_3   0.218912 0.806748 0.411094 -0.657783
H23   H     H_    0.239603 0.898206 0.448178 0.271770
H24   H     H_    0.227601 0.671871 0.428493 0.261473
N14   N     N_3   0.778548 0.446708 0.584770 -0.664868
H25   H     H_    0.761604 0.567198 0.559254 0.258420
H26   H     H_    0.765170 0.333774 0.554094 0.249628
Br5   Br    Br    0.191723 0.812700 0.103067 -0.581150
Br6   Br    Br    0.802013 0.536592 0.891370 -0.579331
N15   N     N_3   0.456331 0.927180 0.287106 -0.620812
H27   H     H_    0.464901 0.844091 0.252841 0.265128
H28   H     H_    0.466621 0.063093 0.279871 0.264618
N16   N     N_3   0.547525 0.267601 0.715768 -0.676138
H29   H     H_    0.535180 0.357617 0.745471 0.237246
H30   H     H_    0.543097 0.132575 0.730073 0.258789
N17   N     N_3   0.377714 0.046223 0.167426 -0.649690
H31   H     H_    0.393857 0.934890 0.149255 0.242092
H32   H     H_    0.344177 0.099325 0.128515 0.248149
N18   N     N_3   0.630665 0.209706 0.839520 -0.647815
H33   H     H_    0.609028 0.317319 0.852280 0.239560
H34   H     H_    0.666181 0.181947 0.880377 0.250642
N19   N     N_3   0.333505 0.729254 0.427218 -0.663554
H35   H     H_    0.319180 0.597461 0.432936 0.266795
H36   H     H_    0.331215 0.811778 0.464888 0.235105
N20   N     N_3   0.661450 0.431999 0.563399 -0.686920
H37   H     H_    0.666475 0.560251 0.544248 0.247892
H38   H     H_    0.670061 0.327851 0.535495 0.217126

loop_
_geom_bond_atom_site_label_1
_geom_bond_atom_site_label_2
_ccdc_geom_bond_type
C51   C53   A    
C9    C31   A    
C13   C15   A    
N19   H35   S    
N1    C47   A    
C50   C52   A    
O2    C4    A    
C2    O7    A    
C27   Br5   S    
N10   H17   S    
N15   H27   S    
O5    C3    A    
C34   C36   A    
C33   C43   A    
O14   V4    S    
C24   N14   S    
N19   H36   S    
C10   C12   A    
C49   C59   A    
N11   H20   S    
C37   C39   A    
C38   C40   A    
C15   C19   A    
O20   V3    S    
C40   C42   A    
N3    C45   A    
C42   H10   S    
O11   C63   A    
C5    H1    S    
C7    C29   A    
C1    C54   S    
C8    C30   A    
N9    H15   S    
C20   C28   A    
C33   H5    S    
O1    C3    A    
C34   H6    S    
O16   C64   A    
C55   C57   A    
C20   C22   A    
C46   C60   S    
O5    V1    S    
C61   O18   A    
C30   N10   S    
O6    V2    S    
C24   C26   A    
O15   C63   A    
N5    N7    A    
C29   N9    S    
C12   N18   S    
O13   C61   A    
N12   H22   S    
C35   H7    S    
N2    C48   A    
C23   C25   A    
C36   H8    S    
C39   C41   A    
C16   C20   A    
C37   C47   S    
C42   C44   A    
N18   H34   S    
C45   N5    A    
C7    C62   S    
C35   C37   A    
N18   H33   S    
C55   Br1   S    
C10   N16   S    
C62   O17   A    
C2    C53   S    
N1    N3    A    
N17   H32   S    
O4    V2    S    
N14   H26   S    
N13   H24   S    
C6    C30   A    
C57   C59   A    
O13   V3    S    
C56   C58   A    
O6    C4    A    
C58   C60   A    
C26   N20   S    
N9    H16   S    
O1    V2    S    
O2    V1    S    
N7    C47   A    
N6    N8    A    
C7    C27   A    
C46   N6    A    
C51   H13   S    
C54   C56   A    
O14   C62   A    
C53   C55   A    
O19   V4    S    
N20   H38   S    
O16   V4    S    
O4    C2    A    
C44   C63   S    
C50   C60   A    
N13   H23   S    
C43   C64   S    
O3    V1    S    
N12   H21   S    
O18   V4    S    
C49   H11   S    
C45   C59   S    
C36   C38   A    
C13   H3    S    
N15   H28   S    
O12   C64   A    
C14   H4    S    
C56   Br2   S    
C8    C61   S    
C57   Br3   S    
C21   C23   A    
N20   H37   S    
C18   C32   A    
C41   H9    S    
C11   N17   S    
C52   C54   A    
N8    C48   A    
C4    C31   S    
O3    C1    A    
O11   V4    S    
C58   Br4   S    
N10   H18   S    
C34   C44   A    
N16   H30   S    
C11   C13   A    
O12   V3    S    
C12   C14   A    
C9    N15   S    
O17   V3    S    
C19   C27   A    
C14   C16   A    
N14   H25   S    
O7    V1    S    
C10   C32   A    
C1    O8    A    
C15   C17   A    
O8    V2    S    
N11   H19   S    
C16   C18   A    
C8    C28   A    
C6    C22   A    
C33   C35   A    
C22   C24   A    
C19   C21   A    
C50   H12   S    
C17   C25   A    
C28   Br6   S    
C40   N12   S    
C6    H2    S    
C18   C26   A    
N16   H29   S    
C38   C48   S    
C49   C51   A    
C41   C43   A    
C9    C11   A    
C39   N11   S    
C17   C31   A    
O9    V2    S    
C25   N19   S    
C5    C29   A    
N2    N4    A    
O10   V1    S    
C52   H14   S    
C3    C32   S    
N4    C46   A    
C5    C21   A    
N17   H31   S    
O15   V3    S    
C23   N13   S    
