data_mof_unit_40989.cif
_audit_creation_date              2012-12-10T19:25:49-0500
_audit_creation_method            fapswitch 2.2
_symmetry_space_group_name_H-M    P1
_symmetry_Int_Tables_number       1
_space_group_crystal_system       triclinic
_cell_length_a                    9.839298
_cell_length_b                    10.556954
_cell_length_c                    16.932808
_cell_angle_alpha                 90.178397
_cell_angle_beta                  85.927323
_cell_angle_gamma                 89.826077
_cell_volume                      1754.40244818

loop_
_atom_site_label
_atom_site_type_symbol
_atom_type_description
_atom_site_fract_x
_atom_site_fract_y
_atom_site_fract_z
_atom_type_partial_charge
C1    C     C_R   0.500032 0.742166 0.499989 0.956452
C2    C     C_3   0.622588 0.957449 0.468393 -0.244109
C3    C     C_3   0.951218 0.613159 0.506345 0.217895
C4    C     C_3   0.047930 0.387039 0.494245 0.256396
C5    C     C_3   0.053618 0.564671 0.441589 0.376793
C6    C     C_3   0.944636 0.435055 0.559027 0.407657
C7    C     C_3   0.039757 0.548817 0.564675 0.224518
C8    C     C_3   0.959885 0.451033 0.436117 0.244806
C9    C     C_R   0.482334 0.501281 0.651770 0.928679
C10   C     C_R   0.518659 0.493505 0.348185 0.930079
C11   C     C_R   0.479692 0.513317 0.736414 -0.209995
C12   C     C_R   0.500039 0.257542 0.499783 0.837571
C13   C     C_R   0.531692 0.466643 0.264199 -0.280817
C14   C     C_R   0.544921 0.620361 0.765103 0.300367
C15   C     C_R   0.459095 0.541578 0.213569 0.273283
C16   C     C_R   0.596935 0.615973 0.840227 0.398873
C17   C     C_R   0.472000 0.516108 0.131933 0.396991
C18   C     C_R   0.569465 0.510092 0.888426 -0.067040
C19   C     C_R   0.572521 0.429414 0.101905 -0.054239
C20   C     C_R   0.493124 0.408644 0.861076 -0.256627
C21   C     C_R   0.642885 0.354509 0.152658 -0.243892
C22   C     C_R   0.450142 0.407897 0.785110 0.335581
C23   C     C_3   0.402862 0.958469 0.456361 0.594194
C24   C     C_R   0.620336 0.368811 0.233859 0.370912
C25   C     C_2   0.605312 0.514768 0.970667 -0.048014
C26   C     C_2   0.600489 0.412872 0.017010 -0.226000
C27   C     C_3   0.257612 0.527866 0.086549 0.067806
C28   C     C_3   0.241037 0.431014 0.020629 -0.334301
C29   C     C_3   0.094517 0.383537 0.021529 -0.961649
C30   C     C_3   0.806800 0.711803 0.832060 0.059713
C31   C     C_3   0.902414 0.649468 0.888086 -0.384562
C32   C     C_3   0.050817 0.657492 0.855547 -0.909066
C33   C     C_3   0.218155 0.988680 0.379783 0.080477
C34   C     C_3   0.597805 0.040295 0.542764 0.589497
C35   C     C_3   0.080561 0.988875 0.428196 -0.333531
C36   C     C_3   0.971100 0.058138 0.385150 -0.818395
C37   C     C_3   0.720140 0.042720 0.656128 0.068772
C38   C     C_3   0.631895 0.115773 0.719233 -0.323875
C39   C     C_3   0.667215 0.082246 0.802949 -0.939152
C40   C     C_3   0.012698 0.681850 0.329668 0.179366
C41   C     C_3   0.029393 0.624820 0.246470 -0.347104
C42   C     C_3   0.902927 0.646210 0.200858 -0.941577
C43   C     C_3   0.946992 0.338175 0.683370 0.079833
C44   C     C_3   0.060631 0.239490 0.667364 -0.326423
C45   C     C_3   0.522968 0.040136 0.423743 -0.369588
C46   C     C_3   0.099030 0.176312 0.743646 -0.941620
C47   C     C_3   0.477091 0.958308 0.575392 -0.378554
C48   C     C_3   0.499682 0.121936 0.498975 -0.092019
C49   C     C_3   0.500662 0.877262 0.500167 -0.091155
C50   C     C_3   0.377141 0.041178 0.530848 -0.293698
H1    H     H_    0.604803 0.317367 0.993035 0.148582
H2    H     H_    0.355951 0.697414 0.201925 0.350913
H3    H     H_    0.847885 0.738589 0.566988 0.346127
H4    H     H_    0.161244 0.269054 0.435430 0.333405
H5    H     H_    0.008900 0.647280 0.659611 0.307800
H6    H     H_    0.993036 0.362653 0.337855 0.314200
H7    H     H_    0.639362 0.282977 0.334056 0.338877
H8    H     H_    0.360506 0.310688 0.705453 0.333304
H9    H     H_    0.185347 0.607166 0.078866 0.169957
H10   H     H_    0.228010 0.483645 0.144977 0.132271
H11   H     H_    0.269019 0.475571 0.962516 0.242208
H12   H     H_    0.615946 0.607743 0.997415 0.218152
H13   H     H_    0.309877 0.349077 0.028316 0.219610
H14   H     H_    0.065217 0.335640 0.078512 0.270213
H15   H     H_    0.085424 0.314792 0.972428 0.273191
H16   H     H_    0.023408 0.463644 0.013527 0.263425
H17   H     H_    0.840215 0.811073 0.821347 0.167261
H18   H     H_    0.816512 0.663210 0.773214 0.130847
H19   H     H_    0.891278 0.697482 0.946713 0.236723
H20   H     H_    0.874720 0.548197 0.896272 0.219033
H21   H     H_    0.066456 0.602259 0.799782 0.279751
H22   H     H_    0.117756 0.617680 0.899280 0.268183
H23   H     H_    0.465190 0.328633 0.898361 0.182391
H24   H     H_    0.080400 0.757595 0.844250 0.270880
H25   H     H_    0.202092 0.958791 0.318183 0.168421
H26   H     H_    0.261007 0.086263 0.375598 0.103308
H27   H     H_    0.047442 0.890396 0.440108 0.281874
H28   H     H_    0.091215 0.033431 0.486642 0.252317
H29   H     H_    0.012729 0.145232 0.356481 0.264631
H30   H     H_    0.885279 0.085277 0.427966 0.309624
H31   H     H_    0.932049 0.996337 0.338749 0.230479
H32   H     H_    0.828394 0.052232 0.669261 0.177955
H33   H     H_    0.698870 0.939358 0.657943 0.131743
H34   H     H_    0.715048 0.283805 0.129035 0.190380
H35   H     H_    0.647083 0.219065 0.710098 0.262920
H36   H     H_    0.522805 0.094560 0.713193 0.238915
H37   H     H_    0.652240 0.979759 0.814223 0.276138
H38   H     H_    0.599832 0.135946 0.846527 0.282031
H39   H     H_    0.774413 0.107511 0.811816 0.247325
H40   H     H_    0.026506 0.785313 0.323495 0.136296
H41   H     H_    0.905852 0.667972 0.354933 0.167005
H42   H     H_    0.117459 0.670448 0.213744 0.216604
H43   H     H_    0.049823 0.521767 0.249522 0.236308
H44   H     H_    0.813386 0.598483 0.231177 0.295422
H45   H     H_    0.538543 0.076094 0.362298 0.173002
H46   H     H_    0.920056 0.606003 0.140271 0.258680
H47   H     H_    0.881293 0.749139 0.196181 0.259009
H48   H     H_    0.873470 0.302250 0.730750 0.165631
H49   H     H_    0.987551 0.427131 0.707326 0.143634
H50   H     H_    0.027327 0.165057 0.626540 0.262414
H51   H     H_    0.151974 0.286654 0.638765 0.246688
H52   H     H_    0.123325 0.248867 0.788103 0.301130
H53   H     H_    0.189274 0.114213 0.730836 0.287262
H54   H     H_    0.013712 0.116996 0.768673 0.245356
H55   H     H_    0.456588 0.918315 0.635526 0.198579
H56   H     H_    0.279101 0.080603 0.556467 0.187779
H57   H     H_    0.721309 0.917024 0.444453 0.199524
H58   H     H_    0.591359 0.797389 0.747772 0.345255
N1    N     N_3   0.136700 0.499970 0.500060 -0.168995
N2    N     N_3   0.863300 0.500030 0.499940 -0.163728
O1    O     O_R   0.383390 0.686040 0.500000 -0.532421
O2    O     O_3   0.379543 0.640116 0.245109 -0.722521
O3    O     O_3   0.894895 0.734648 0.513290 -0.772368
O4    O     O_3   0.104620 0.266581 0.486130 -0.774655
O5    O     O_3   0.089005 0.605971 0.631479 -0.728420
O6    O     O_3   0.911407 0.396894 0.368288 -0.687364
O7    O     O_3   0.687353 0.285996 0.280821 -0.715979
O8    O     O_3   0.385377 0.300485 0.760553 -0.792259
O9    O     O_3   0.390935 0.579085 0.080858 -0.653362
O10   O     O_3   0.671857 0.715985 0.867563 -0.663092
O11   O     O_3   0.305933 0.899007 0.411214 -0.590284
O12   O     O_R   0.616610 0.313960 0.500000 -0.542952
O13   O     O_3   0.706364 0.096034 0.580838 -0.600214
O14   O     O_3   0.114584 0.634053 0.377243 -0.561035
O15   O     O_3   0.872859 0.358357 0.616107 -0.583084
O16   O     O_R   0.616650 0.686050 0.499970 -0.614921
O17   O     O_R   0.383350 0.313950 0.500030 -0.644434
O18   O     O_R   0.369590 0.500020 0.615820 -0.585455
O19   O     O_R   0.630410 0.499980 0.384180 -0.587963
O20   O     O_R   0.602840 0.500020 0.615790 -0.584636
O21   O     O_R   0.397160 0.499980 0.384210 -0.559365
O22   O     O_3   0.563109 0.724437 0.716235 -0.805626
Zn1   Zn    Zn3+2 0.344250 0.499990 0.500020 1.056162
Zn2   Zn    Zn3+2 0.655750 0.500010 0.499980 1.058519

loop_
_geom_bond_atom_site_label_1
_geom_bond_atom_site_label_2
_ccdc_geom_bond_type
C4    N1    S    
C34   O13   S    
C23   C45   S    
C41   C42   S    
C35   C36   S    
C43   H48   S    
C39   H37   S    
C12   C48   S    
C43   O15   S    
C32   H22   S    
C12   O17   A    
C14   O22   S    
C9    O20   A    
C46   H52   S    
C5    O14   S    
C24   O7    S    
C30   O10   S    
C38   H36   S    
C42   H46   S    
C4    O4    S    
C28   C29   S    
C19   C21   A    
C43   H49   S    
C3    C7    S    
C27   H10   S    
C16   O10   S    
C32   H24   S    
C30   C31   S    
C11   C14   A    
C23   C49   S    
H2    O2    S    
C3    N2    S    
C2    H57   S    
H8    O8    S    
C15   C17   A    
C7    O5    S    
C19   C26   S    
C10   O21   A    
O12   Zn2   S    
C33   C35   S    
C37   O13   S    
C33   H25   S    
C31   H20   S    
C41   H43   S    
C44   C46   S    
C47   H55   S    
C32   H21   S    
C30   H17   S    
C4    C8    S    
C28   H11   S    
C2    C34   S    
C48   C50   S    
C29   H14   S    
C33   O11   S    
C6    N2    S    
O20   Zn2   S    
C18   C25   S    
C39   H38   S    
H3    O3    S    
C47   C50   S    
C2    C45   S    
C40   O14   S    
C9    O18   A    
C38   H35   S    
N1    Zn1   S    
C1    O16   A    
C4    C6    S    
C3    O3    S    
C42   H47   S    
C17   O9    S    
O1    Zn1   S    
C23   C50   S    
C3    C5    S    
C25   C26   D    
C46   H54   S    
C35   H27   S    
C7    N1    S    
C13   C24   A    
C43   C44   S    
C37   C38   S    
C2    C49   S    
C8    N2    S    
C33   H26   S    
C31   C32   S    
C21   H34   S    
C36   H31   S    
H6    O6    S    
C9    C11   S    
C23   O11   S    
C36   H29   S    
C29   H15   S    
C40   C41   S    
C20   C22   A    
C13   C15   A    
C36   H30   S    
C14   C16   A    
C37   H32   S    
N2    Zn2   S    
C34   C48   S    
C45   H45   S    
H7    O7    S    
C45   C48   S    
C22   O8    S    
C35   H28   S    
C42   H44   S    
C15   O2    S    
O17   Zn1   S    
C6    O15   S    
O21   Zn1   S    
C10   C13   S    
C5    C8    S    
C44   H51   S    
C6    C7    S    
C27   O9    S    
C47   C49   S    
C46   H53   S    
C11   C22   A    
C10   O19   A    
C27   H9    S    
C26   H1    S    
C1    O1    A    
C44   H50   S    
C38   C39   S    
H5    O5    S    
H4    O4    S    
C17   C19   A    
C20   H23   S    
C18   C20   A    
C25   H12   S    
C40   H41   S    
O19   Zn2   S    
H58   O22   S    
C8    O6    S    
C29   H16   S    
C28   H13   S    
C31   H19   S    
C41   H42   S    
C12   O12   A    
O16   Zn2   S    
C16   C18   A    
C21   C24   A    
C27   C28   S    
C50   H56   S    
C37   H33   S    
C34   C47   S    
C5    N1    S    
C40   H40   S    
O18   Zn1   S    
C1    C49   S    
C39   H39   S    
C30   H18   S    
