data_mof_unit_54148.cif
_audit_creation_date              2012-12-10T16:48:42-0500
_audit_creation_method            fapswitch 2.2
_symmetry_space_group_name_H-M    P1
_symmetry_Int_Tables_number       1
_space_group_crystal_system       triclinic
_cell_length_a                    7.832796
_cell_length_b                    8.461313
_cell_length_c                    10.717712
_cell_angle_alpha                 88.158272
_cell_angle_beta                  98.566588
_cell_angle_gamma                 93.900242
_cell_volume                      700.598354888

loop_
_atom_site_label
_atom_site_type_symbol
_atom_type_description
_atom_site_fract_x
_atom_site_fract_y
_atom_site_fract_z
_atom_type_partial_charge
C1    C     C_R   0.549582 0.794003 0.513057 0.844903
C2    C     C_R   0.460008 0.205268 0.518045 0.823086
C3    C     C_R   0.570431 0.486416 0.736161 0.814240
C4    C     C_R   0.427625 0.504091 0.264211 0.834024
C5    C     C_2   0.604389 0.454612 0.871041 0.257026
C6    C     C_2   0.384306 0.497295 0.129127 0.249187
C7    C     C_2   0.467588 0.426824 0.931989 -0.190657
C8    C     C_2   0.485453 0.416960 0.067282 -0.186033
C9    C     C_2   0.583500 0.955455 0.553132 0.031569
C10   C     C_2   0.448645 0.042590 0.559561 0.061900
H1    H     H_    0.591629 0.353005 0.117518 0.201426
H2    H     H_    0.336024 0.426045 0.882339 0.226663
H3    H     H_    0.983885 0.386895 0.404481 0.220132
H4    H     H_    0.016028 0.610766 0.596941 0.265385
N1    N     N_2   0.940600 0.458860 0.467170 -0.126923
N2    N     N_2   0.059400 0.541140 0.532830 -0.111781
O1    O     O_R   0.391630 0.738350 0.508060 -0.558980
O2    O     O_R   0.608370 0.261650 0.491940 -0.579384
O3    O     O_R   0.674540 0.711990 0.487010 -0.574382
O4    O     O_R   0.325460 0.288010 0.512990 -0.574505
O5    O     O_R   0.411370 0.508250 0.688780 -0.611873
O6    O     O_R   0.588630 0.491750 0.311220 -0.624196
O7    O     O_R   0.694270 0.481880 0.667740 -0.559919
O8    O     O_R   0.305730 0.518120 0.332260 -0.583136
Zn1   Zn    Zn3+2 0.311100 0.517600 0.514050 1.096658
Zn2   Zn    Zn3+2 0.688900 0.482400 0.485950 1.083334
Cl1   Cl    Cl    0.217928 0.612379 0.052787 -0.445278
Cl2   Cl    Cl    0.819437 0.453570 0.948035 -0.460697
S1    S     S_3+6 0.788206 0.014887 0.636825 0.130154
O9    O     O_2   0.894837 0.095709 0.545212 -0.189812
O10   O     O_2   0.769494 0.129558 0.737500 -0.258066
O11   O     O_3   0.885158 0.856083 0.705074 -0.441865
H5    H     H_    0.809721 0.813820 0.766448 0.359826
S2    S     S_3+6 0.282031 0.975970 0.647411 0.125485
O12   O     O_2   0.137428 0.900326 0.556858 -0.192718
O13   O     O_2   0.345884 0.855077 0.746322 -0.268895
O14   O     O_3   0.210123 0.127864 0.717829 -0.426876
H6    H     H_    0.305340 0.158325 0.785994 0.340978

loop_
_geom_bond_atom_site_label_1
_geom_bond_atom_site_label_2
_ccdc_geom_bond_type
S1    O9    D    
C2    O2    A    
C5    Cl2   S    
C4    O6    A    
C9    C10   D    
C1    O1    A    
C6    Cl1   S    
O2    Zn2   S    
C9    S1    S    
O1    Zn1   S    
O11   H5    S    
C7    C8    S    
S1    O10   D    
O14   H6    S    
C8    H1    S    
C4    C6    S    
S1    O11   S    
S2    O13   D    
H3    N1    S    
C7    H2    S    
C4    O8    A    
H4    N2    S    
C3    O5    A    
C1    O3    A    
O4    Zn1   S    
C2    O4    A    
N1    N2    D    
S2    O14   S    
C1    C9    S    
O8    Zn1   S    
C10   S2    S    
S2    O12   D    
O6    Zn2   S    
O7    Zn2   S    
N2    Zn1   S    
C5    C7    D    
O3    Zn2   S    
O5    Zn1   S    
N1    Zn2   S    
C6    C8    D    
C3    O7    A    
C3    C5    S    
C2    C10   S    
