data_mof_unit_55261.cif
_audit_creation_date              2012-10-26T20:13:53-0400
_audit_creation_method            fapswitch 2.2
_symmetry_space_group_name_H-M    P1
_symmetry_Int_Tables_number       1
_space_group_crystal_system       triclinic
_cell_length_a                    8.725509
_cell_length_b                    10.835051
_cell_length_c                    9.604474
_cell_angle_alpha                 90.926669
_cell_angle_beta                  97.913147
_cell_angle_gamma                 91.3153
_cell_volume                      898.965183411

loop_
_atom_site_label
_atom_site_type_symbol
_atom_type_description
_atom_site_fract_x
_atom_site_fract_y
_atom_site_fract_z
_atom_type_partial_charge
C1    C     C_R   0.495598 0.262236 0.498007 0.551605
C2    C     C_R   0.631513 0.530174 0.943444 0.154984
C3    C     C_3   0.728073 0.645417 0.947719 0.101703
C4    C     C_R   0.204039 0.499643 0.463888 0.542560
C5    C     C_3   0.722698 0.651860 0.106170 0.121411
C6    C     C_R   0.489857 0.737066 0.499670 0.544062
C7    C     C_R   0.795938 0.500485 0.536105 0.555057
C8    C     C_2   0.037991 0.498696 0.444208 -0.148018
C9    C     C_2   0.961968 0.501598 0.555763 -0.136392
C10   C     C_R   0.497013 0.065948 0.619931 -0.025773
C11   C     C_R   0.476918 0.128362 0.493592 -0.036231
C12   C     C_R   0.405638 0.930843 0.372758 0.280119
C13   C     C_R   0.421877 0.059842 0.368640 0.264805
C14   C     C_R   0.461524 0.869131 0.498439 -0.043179
C15   C     C_R   0.490501 0.939404 0.622741 -0.024396
C16   C     C_3   0.616291 0.936241 0.744881 -0.252801
C17   C     C_3   0.624671 0.076108 0.740148 -0.237332
C18   C     C_R   0.630277 0.532865 0.089919 0.086230
C19   C     C_R   0.378841 0.449799 0.057599 0.378901
C20   C     C_R   0.378720 0.449933 0.910259 0.377633
Cu1   Cu    Cu3+1 0.499990 0.499980 0.640670 0.990565
Cu2   Cu    Cu3+1 0.500010 0.500020 0.359330 1.006147
H1    H     H_    0.978093 0.495038 0.337198 0.144845
H2    H     H_    0.571632 0.904008 0.841200 0.156586
H3    H     H_    0.722417 0.891309 0.718915 0.144023
H4    H     H_    0.587579 0.122032 0.833905 0.166299
H5    H     H_    0.734704 0.112932 0.708825 0.153683
H6    H     H_    0.298334 0.343645 0.187901 0.374370
H7    H     H_    0.298716 0.340267 0.758834 0.352195
H8    H     H_    0.932221 0.701593 0.919973 0.330010
H9    H     H_    0.669959 0.719484 0.884496 0.124200
H10   H     H_    0.836999 0.643583 0.171971 0.174266
H11   H     H_    0.537979 0.754003 0.086032 0.344612
H12   H     H_    0.021793 0.505211 0.662778 0.205052
H13   H     H_    0.479981 0.150688 0.215413 0.331887
H14   H     H_    0.284754 0.794737 0.278378 0.328877
N1    N     N_R   0.500980 0.500930 0.148050 -0.285490
N2    N     N_R   0.500990 0.500890 0.852140 -0.304721
O1    O     O_R   0.500000 0.319640 0.618810 -0.525222
O2    O     O_3   0.876380 0.620507 0.916104 -0.675841
O3    O     O_3   0.639371 0.752749 0.147367 -0.662471
O4    O     O_3   0.382238 0.115681 0.241783 -0.638600
O5    O     O_3   0.340969 0.869130 0.251281 -0.625826
O6    O     O_3   0.255684 0.391580 0.105858 -0.614402
O7    O     O_R   0.500020 0.319680 0.381230 -0.522590
O8    O     O_R   0.274830 0.499980 0.591380 -0.491714
O9    O     O_R   0.274850 0.500020 0.353800 -0.488479
O10   O     O_R   0.499980 0.680320 0.618770 -0.511041
O11   O     O_R   0.500000 0.680360 0.381190 -0.442638
O12   O     O_R   0.725150 0.499980 0.646200 -0.450329
O13   O     O_R   0.725170 0.500020 0.408620 -0.504545
O14   O     O_3   0.255702 0.391365 0.829247 -0.638657

loop_
_geom_bond_atom_site_label_1
_geom_bond_atom_site_label_2
_ccdc_geom_bond_type
C8    C9    D    
C2    C18   A    
C20   N2    A    
C2    N2    A    
C19   C20   A    
Cu1   O1    S    
C4    C8    S    
C5    H10   S    
H11   O3    S    
Cu1   O10   S    
C2    C3    S    
C7    O13   A    
C20   O14   S    
Cu1   O8    S    
C4    O8    A    
Cu1   Cu2   S    
C12   C13   A    
C3    H9    S    
C11   C13   A    
C1    O7    A    
C16   C17   S    
C6    O10   A    
Cu2   O11   S    
C17   H4    S    
C13   O4    S    
C18   N1    A    
C12   C14   A    
C3    O2    S    
Cu2   O9    S    
C12   O5    S    
C10   C15   A    
C6    O11   A    
C9    H12   S    
H7    O14   S    
C6    C14   S    
C10   C11   A    
C1    O1    A    
C10   C17   S    
H8    O2    S    
C15   C16   S    
C17   H5    S    
C8    H1    S    
C19   O6    S    
C16   H2    S    
Cu2   O7    S    
C16   H3    S    
C7    C9    S    
H13   O4    S    
C5    O3    S    
C14   C15   A    
Cu1   O12   S    
H14   O5    S    
C5    C18   S    
C19   N1    A    
Cu2   N1    S    
H6    O6    S    
Cu1   N2    S    
C7    O12   A    
Cu2   O13   S    
C3    C5    S    
C4    O9    A    
C1    C11   S    
