data_mof_unit_67694.cif
_audit_creation_date              2013-03-05T16:49:09-0500
_audit_creation_method            fapswitch 2.2
_symmetry_space_group_name_H-M    P1
_symmetry_Int_Tables_number       1
_space_group_crystal_system       triclinic
_cell_length_a                    11.077839
_cell_length_b                    10.868944
_cell_length_c                    9.643973
_cell_angle_alpha                 83.426056
_cell_angle_beta                  92.963506
_cell_angle_gamma                 88.765372
_cell_volume                      1151.55786507

loop_
_atom_site_label
_atom_site_type_symbol
_atom_site_description
_atom_site_fract_x
_atom_site_fract_y
_atom_site_fract_z
_atom_type_partial_charge
O1    O     O_R   0.500060 0.316850 0.620870 -0.534062
O2    O     O_R   0.499940 0.683150 0.379130 -0.552322
O3    O     O_R   0.500000 0.316860 0.379090 -0.525632
O4    O     O_R   0.500000 0.683140 0.620910 -0.519775
C1    C     C_R   0.502289 0.259576 0.506785 0.902300
C2    C     C_R   0.496486 0.740454 0.493014 0.881716
O5    O     O_R   0.319670 0.500010 0.620890 -0.550572
O6    O     O_R   0.680330 0.499990 0.379110 -0.535593
O7    O     O_R   0.319620 0.500010 0.379110 -0.553704
O8    O     O_R   0.680380 0.499990 0.620890 -0.546972
C3    C     C_R   0.263067 0.501602 0.497138 0.866143
C4    C     C_R   0.737216 0.496814 0.503206 0.828532
Cu1   Cu    Cu3+1 0.500030 0.499990 0.643150 1.118617
Cu2   Cu    Cu3+1 0.499970 0.500010 0.356850 1.118357
H1    H     H_    0.115111 0.911720 0.960994 0.162752
H2    H     H_    0.880156 0.087584 0.041655 0.162667
C5    C     C_R   0.103470 0.880286 0.183265 -0.169296
C6    C     C_R   0.896972 0.116779 0.820025 -0.169290
H3    H     H_    0.091490 0.978246 0.190692 0.156755
H4    H     H_    0.908678 0.018526 0.813542 0.156867
C7    C     C_R   0.102199 0.793266 0.302304 -0.072121
C8    C     C_R   0.900885 0.202765 0.700543 -0.054311
C9    C     C_R   0.105178 0.664281 0.286523 -0.080664
C10   C     C_R   0.894158 0.332037 0.714228 -0.095720
C11   C     C_R   0.114567 0.626792 0.150386 0.353736
C12   C     C_R   0.880914 0.371154 0.848986 0.295212
C13   C     C_R   0.121929 0.718018 0.035503 -0.085167
C14   C     C_R   0.872739 0.280849 0.964636 -0.093166
H5    H     H_    0.127816 0.692844 0.930682 0.213539
H6    H     H_    0.865075 0.307075 0.068746 0.216726
C15   C     C_R   0.114184 0.843068 0.051622 -0.027959
C16   C     C_R   0.882488 0.155413 0.950439 -0.028039
C17   C     C_R   0.928063 0.578004 0.404160 -0.008066
C18   C     C_R   0.073750 0.419561 0.601298 -0.021153
C19   C     C_R   0.871891 0.498020 0.505767 -0.004171
C20   C     C_R   0.129195 0.496983 0.495391 0.007354
C21   C     C_R   0.945747 0.419091 0.604356 0.053490
C22   C     C_R   0.055193 0.576811 0.397849 0.048101
C23   C     C_3   0.525575 0.012712 0.634603 -0.123382
C24   C     C_3   0.472287 0.987476 0.364272 -0.136147
C25   C     C_3   0.605136 0.945033 0.538959 -0.074723
C26   C     C_3   0.392387 0.055159 0.459837 -0.080275
C27   C     C_3   0.494545 0.878493 0.482221 -0.054128
C28   C     C_3   0.503078 0.121723 0.516837 -0.048989
C29   C     C_3   0.414470 0.947207 0.577561 -0.137708
C30   C     C_3   0.583296 0.052977 0.421555 -0.140684
C31   C     C_3   0.473354 0.606831 0.032773 0.313308
C32   C     C_3   0.526710 0.393491 0.967213 0.293946
C33   C     C_3   0.394005 0.534238 0.936592 -0.221634
C34   C     C_3   0.606223 0.466328 0.063197 -0.183463
H7    H     H_    0.306718 0.565439 0.881184 0.227454
H8    H     H_    0.692740 0.433042 0.118837 0.241129
N1    N     N_3   0.500090 0.499970 0.858290 -0.279353
N2    N     N_3   0.499910 0.500030 0.141710 -0.276679
C35   C     C_3   0.577735 0.574394 0.947252 0.336730
C36   C     C_3   0.422347 0.426312 0.051995 0.323600
N3    N     N_R   0.452291 0.731053 0.067009 0.136193
O9    O     O_R   0.370569 0.801387 0.993801 -0.392405
O10   O     O_R   0.538143 0.781706 0.135093 -0.339085
N4    N     N_R   0.546979 0.268619 0.934455 0.137222
O11   O     O_R   0.626985 0.198108 0.010264 -0.398171
O12   O     O_R   0.460411 0.217665 0.867869 -0.314926
N5    N     N_R   0.660853 0.668648 0.891995 0.177284
O13   O     O_R   0.705855 0.747825 0.970046 -0.248382
O14   O     O_R   0.698971 0.669482 0.767945 -0.270711
N6    N     N_R   0.336562 0.333901 0.103116 0.171406
O15   O     O_R   0.303020 0.326639 0.229731 -0.270673
O16   O     O_R   0.281547 0.267283 0.017146 -0.284548
C37   C     C_2   0.079473 0.842010 0.436992 0.334622
H9    H     H_    0.063115 0.940270 0.438463 0.049875
O17   O     O_2   0.076315 0.774534 0.546830 -0.490655
C38   C     C_2   0.927125 0.152591 0.567714 0.392813
H10   H     H_    0.942767 0.053968 0.568006 0.033966
O18   O     O_2   0.932656 0.218936 0.457411 -0.480055
N7    N     N_R   0.106267 0.499076 0.123284 0.165732
O19   O     O_R   0.064655 0.414050 0.213017 -0.281913
O20   O     O_R   0.126068 0.469930 0.999423 -0.387689
N8    N     N_R   0.890264 0.499292 0.874564 0.160892
O21   O     O_R   0.934356 0.582923 0.785120 -0.301650
O22   O     O_R   0.870488 0.529929 0.997629 -0.311924
C39   C     C_2   0.855499 0.670263 0.306127 0.485478
H11   H     H_    0.862025 0.768396 0.314142 0.086910
O23   O     O_2   0.794790 0.637783 0.209158 -0.439384
C40   C     C_2   0.146264 0.338172 0.713960 0.464050
H12   H     H_    0.113151 0.320502 0.817474 0.137295
O24   O     O_2   0.240338 0.285261 0.692649 -0.466252
C41   C     C_2   0.728618 0.890105 0.578967 0.446491
H13   H     H_    0.787876 0.931925 0.651174 0.104312
O25   O     O_2   0.763585 0.798576 0.529513 -0.568518
C42   C     C_2   0.267759 0.105629 0.416153 0.486453
H14   H     H_    0.211334 0.058699 0.346416 0.082543
O26   O     O_2   0.228471 0.198765 0.458532 -0.480299
C43   C     C_2   0.554441 0.004821 0.788391 0.577064
H15   H     H_    0.483323 0.988152 0.860638 0.143255
O27   O     O_2   0.657566 0.016048 0.833912 -0.521741
C44   C     C_2   0.445416 0.996282 0.209783 0.575902
H16   H     H_    0.518371 0.008787 0.139406 0.141835
O28   O     O_2   0.342208 0.991191 0.161483 -0.517572
C45   C     C_2   0.315243 0.900007 0.668489 0.396163
H17   H     H_    0.261333 0.965185 0.718151 0.103236
O29   O     O_2   0.295183 0.789802 0.688553 -0.498056
C46   C     C_2   0.683609 0.100483 0.332351 0.393166
H18   H     H_    0.734835 0.036224 0.278424 0.085478
O30   O     O_2   0.708041 0.209833 0.319184 -0.499137

loop_
_geom_bond_atom_site_label_1
_geom_bond_atom_site_label_2
_geom_bond_distance
_ccdc_geom_bond_type
N6    O16   1.298971 A    
C41   H13   1.077273 S    
N5    O14   1.288225 A    
C38   O18   1.219967 D    
C43   H15   1.083030 S    
C13   H5    1.081848 S    
C18   C21   1.419928 A    
N7    O19   1.300736 A    
C39   H11   1.081884 S    
C42   H14   1.073334 S    
C31   C33   1.539078 S    
C24   C30   1.543315 S    
C30   C46   1.504479 S    
C34   N2    1.493868 S    
C18   C40   1.505789 S    
O1    C1    1.325746 A    
C35   N5    1.465484 S    
C3    C20   1.484232 S    
C19   C21   1.418413 A    
C40   O24   1.217531 D    
N8    O22   1.296805 A    
N3    O10   1.295950 A    
N4    O12   1.295905 A    
O4    Cu1   1.977596 S    
C37   O17   1.219926 D    
H2    C16   1.082909 S    
C23   C43   1.493294 S    
C17   C19   1.412261 A    
C24   C27   1.551682 S    
C33   H7    1.107473 S    
C44   O28   1.216872 D    
C34   H8    1.106714 S    
C25   C30   1.540214 S    
C36   N6    1.459856 S    
C24   C26   1.544514 S    
C18   C20   1.420876 A    
C23   C29   1.543322 S    
C32   C34   1.540454 S    
N6    O15   1.288964 A    
C43   O27   1.216197 D    
Cu1   Cu2   2.761010 S    
C25   C27   1.543639 S    
O2    C2    1.324985 A    
C26   C28   1.545570 S    
C24   C44   1.495928 S    
C8    C38   1.488117 S    
C39   O23   1.213350 D    
C28   C30   1.550929 S    
C32   N4    1.443827 S    
Cu1   N1    2.074745 S    
N1    C35   1.497615 S    
C32   N1    1.484820 S    
C25   C41   1.494658 S    
N2    C36   1.496785 S    
C13   C15   1.386935 A    
C46   H18   1.084853 S    
C14   C16   1.388194 A    
C40   H12   1.079365 S    
C23   C25   1.542785 S    
C29   C45   1.503789 S    
N8    O21   1.300784 A    
C5    C7    1.402252 A    
C7    C37   1.488924 S    
N4    O11   1.297227 A    
C11   N7    1.445612 S    
C26   C29   1.542533 S    
O5    C3    1.317289 A    
O7    Cu2   2.020395 S    
C31   N3    1.443206 S    
N7    O20   1.298492 A    
C42   O26   1.214632 D    
C45   H17   1.084856 S    
O6    C4    1.319931 A    
C44   H16   1.082875 S    
C10   C21   1.483572 S    
C12   N8    1.446902 S    
C4    C19   1.491204 S    
C46   O30   1.218532 D    
O7    C3    1.328985 A    
O3    Cu2   1.977596 S    
O8    C4    1.329520 A    
C31   N2    1.487229 S    
O4    C2    1.314904 A    
Cu2   N2    2.074744 S    
C1    C28   1.490144 S    
C2    C27   1.491613 S    
C7    C9    1.427250 A    
C5    C15   1.385862 A    
C8    C10   1.426923 A    
O1    Cu1   2.026405 S    
C9    C22   1.487803 S    
C31   C35   1.513019 S    
C32   C36   1.509689 S    
O6    Cu2   1.998426 S    
C45   O29   1.218369 D    
C6    C8    1.401217 A    
C34   C35   1.541535 S    
C10   C12   1.426453 A    
C38   H10   1.081816 S    
O3    C1    1.313538 A    
O8    Cu1   2.020395 S    
H1    C15   1.082915 S    
C23   C28   1.551042 S    
C11   C13   1.406618 A    
C33   C36   1.536981 S    
C12   C14   1.406818 A    
C17   C22   1.412631 A    
C41   O25   1.215855 D    
C14   H6    1.081596 S    
C27   C29   1.550194 S    
N3    O9    1.297289 A    
C33   N1    1.492421 S    
C20   C22   1.418618 A    
C5    H3    1.081087 S    
C6    H4    1.082266 S    
C9    C11   1.426654 A    
C37   H9    1.081215 S    
O2    Cu2   2.026405 S    
N5    O13   1.297576 A    
O5    Cu1   1.998426 S    
C6    C16   1.386648 A    
C26   C42   1.496253 S    
C17   C39   1.488336 S    
