data_mof_unit_49709.cif
_audit_creation_date              2012-10-26T20:44:56-0400
_audit_creation_method            fapswitch 2.2
_symmetry_space_group_name_H-M    P1
_symmetry_Int_Tables_number       1
_space_group_crystal_system       triclinic
_cell_length_a                    12.721334
_cell_length_b                    13.90068
_cell_length_c                    23.530728
_cell_angle_alpha                 89.98486
_cell_angle_beta                  92.815378
_cell_angle_gamma                 97.766541
_cell_volume                      4117.82934047

loop_
_atom_site_label
_atom_site_type_symbol
_atom_type_description
_atom_site_fract_x
_atom_site_fract_y
_atom_site_fract_z
_atom_type_partial_charge
C1    C     C_R   0.483771 0.315888 0.499288 0.550387
C2    C     C_R   0.589943 0.525824 0.707201 0.234590
C3    C     C_R   0.571682 0.451231 0.239841 -0.062872
C4    C     C_R   0.583029 0.526116 0.766447 -0.045055
C5    C     C_R   0.493829 0.495006 0.209216 0.200427
C6    C     C_R   0.486236 0.496834 0.791185 0.195819
C7    C     C_1   0.525401 0.787217 0.501699 -0.027600
C8    C     C_1   0.474896 0.212819 0.498137 -0.026594
C9    C     C_2   0.545048 0.979247 0.503939 0.294673
C10   C     C_2   0.455918 0.020837 0.495542 0.293986
C11   C     C_1   0.466267 0.125882 0.496954 -0.012614
C12   C     C_R   0.516270 0.684119 0.500699 0.549432
C13   C     C_1   0.534451 0.874179 0.502728 -0.014602
C14   C     C_2   0.026778 0.471702 0.482200 0.247060
C15   C     C_2   0.973250 0.531176 0.512767 0.242025
C16   C     C_R   0.500470 0.498685 0.390802 0.576406
C17   C     C_R   0.499386 0.500268 0.609401 0.563430
C18   C     C_1   0.854804 0.520633 0.510084 0.166268
C19   C     C_1   0.145300 0.480444 0.488033 0.159375
C20   C     C_R   0.501082 0.583184 0.881105 0.400801
C21   C     C_R   0.467100 0.408901 0.119032 0.397695
C22   C     C_R   0.460004 0.410221 0.879775 0.399589
C23   C     C_R   0.419001 0.538363 0.238065 -0.078803
C24   C     C_R   0.510469 0.581682 0.120236 0.400172
C25   C     C_R   0.459595 0.408195 0.939394 0.028482
C26   C     C_R   0.507231 0.583905 0.060598 0.027793
C27   C     C_R   0.481805 0.496262 0.969995 -0.029246
C28   C     C_R   0.484124 0.495887 0.030024 -0.029227
C29   C     C_R   0.502354 0.584675 0.940725 0.027575
C30   C     C_R   0.463859 0.407477 0.059336 0.028313
C31   C     C_R   0.438947 0.320453 0.969042 -0.125727
C32   C     C_R   0.527031 0.671718 0.030960 -0.125553
C33   C     C_R   0.440939 0.320108 0.028390 -0.126434
C34   C     C_R   0.394846 0.468545 0.756549 -0.074615
C35   C     C_R   0.524456 0.672113 0.971636 -0.124963
C36   C     C_3   0.742423 0.391007 0.308193 0.012841
C37   C     C_3   0.735983 0.287998 0.283755 -0.267107
C38   C     C_3   0.836001 0.274337 0.253258 -0.483283
C39   C     C_3   0.754974 0.490986 0.689078 0.013654
C40   C     C_3   0.863464 0.534966 0.669214 -0.238582
C41   C     C_3   0.939627 0.459259 0.667291 -0.466003
C42   C     C_3   0.272324 0.011238 0.470393 0.008236
C43   C     C_3   0.219652 0.049455 0.521525 -0.262331
C44   C     C_3   0.129919 0.106477 0.502312 -0.485819
C45   C     C_R   0.422123 0.538903 0.297124 -0.202111
C46   C     C_3   0.729942 0.988262 0.526248 0.005339
C47   C     C_3   0.734180 0.962625 0.589706 -0.261641
C48   C     C_3   0.828237 0.908673 0.605243 -0.477506
C49   C     C_3   0.996531 0.691328 0.545389 -0.005264
C50   C     C_3   0.028380 0.742677 0.489748 -0.262210
C51   C     C_3   0.986277 0.840127 0.484729 -0.487958
C52   C     C_3   0.027387 0.352515 0.410440 -0.001789
C53   C     C_3   0.071189 0.413132 0.360009 -0.276824
C54   C     C_3   0.145086 0.359137 0.326594 -0.465814
C55   C     C_R   0.400036 0.470054 0.697538 -0.190574
C56   C     C_R   0.500837 0.496901 0.328366 0.023834
C57   C     C_R   0.497025 0.499053 0.672112 0.010446
C58   C     C_R   0.577229 0.452244 0.300120 0.247838
Cu1   Cu    Cu3+1 0.395330 0.493960 0.496390 0.981481
Cu2   Cu    Cu3+1 0.604670 0.506040 0.503610 1.034676
H1    H     H_    0.424928 0.251173 0.049902 0.166786
H2    H     H_    0.544803 0.740385 0.053476 0.167272
H3    H     H_    0.806134 0.399687 0.342526 0.186173
H4    H     H_    0.767497 0.448033 0.276511 0.108929
H5    H     H_    0.725693 0.234746 0.318973 0.183647
H6    H     H_    0.666133 0.272264 0.253432 0.183251
H7    H     H_    0.848540 0.327407 0.218123 0.156079
H8    H     H_    0.827599 0.199844 0.235066 0.162071
H9    H     H_    0.906161 0.283941 0.283597 0.143534
H10   H     H_    0.723970 0.426695 0.661953 0.152357
H11   H     H_    0.765630 0.467089 0.733976 0.117091
H12   H     H_    0.540437 0.741060 0.950133 0.168153
H13   H     H_    0.853624 0.566004 0.626182 0.192105
H14   H     H_    0.898014 0.594775 0.698638 0.168861
H15   H     H_    0.950395 0.426993 0.710021 0.144854
H16   H     H_    0.018128 0.494155 0.653850 0.187160
H17   H     H_    0.908503 0.400884 0.636243 0.153572
H18   H     H_    0.212355 0.958126 0.447128 0.153648
H19   H     H_    0.295546 0.069609 0.439181 0.126772
H20   H     H_    0.187383 0.987280 0.548062 0.169187
H21   H     H_    0.278850 0.097528 0.548423 0.170469
H22   H     H_    0.161828 0.171182 0.477683 0.150863
H23   H     H_    0.357996 0.571385 0.214564 0.142656
H24   H     H_    0.091764 0.131218 0.540116 0.152435
H25   H     H_    0.068868 0.060296 0.475420 0.139354
H26   H     H_    0.803545 0.037686 0.517625 0.158342
H27   H     H_    0.731340 0.923559 0.498591 0.123895
H28   H     H_    0.741457 0.030469 0.615426 0.177046
H29   H     H_    0.659964 0.916288 0.600699 0.172489
H30   H     H_    0.820633 0.839066 0.581280 0.150864
H31   H     H_    0.829970 0.892430 0.651453 0.166711
H32   H     H_    0.903961 0.953883 0.595480 0.139751
H33   H     H_    0.035567 0.736439 0.581439 0.162525
H34   H     H_    0.319524 0.446238 0.775408 0.144124
H35   H     H_    0.909778 0.687514 0.550978 0.121018
H36   H     H_    0.116426 0.754565 0.488507 0.187714
H37   H     H_    0.995999 0.696883 0.452566 0.157720
H38   H     H_    0.898067 0.829121 0.482977 0.147946
H39   H     H_    0.013311 0.876808 0.445087 0.143752
H40   H     H_    0.016155 0.887456 0.521612 0.143532
H41   H     H_    0.973817 0.288528 0.392928 0.152440
H42   H     H_    0.091024 0.321972 0.435865 0.126907
H43   H     H_    0.004145 0.429743 0.331313 0.150856
H44   H     H_    0.115999 0.483334 0.374963 0.166442
H45   H     H_    0.363164 0.572926 0.318572 0.133514
H46   H     H_    0.215140 0.345891 0.354105 0.169094
H47   H     H_    0.173444 0.403619 0.289771 0.158782
H48   H     H_    0.102667 0.288583 0.310519 0.143797
H49   H     H_    0.327856 0.448223 0.671765 0.143458
H50   H     H_    0.625930 0.416086 0.215735 0.118751
H51   H     H_    0.653240 0.549737 0.793416 0.135577
H52   H     H_    0.421564 0.251765 0.946522 0.167617
N1    N     N_R   0.481139 0.496784 0.851973 -0.395977
N2    N     N_R   0.490477 0.495106 0.148153 -0.394682
N3    N     N_1   0.238030 0.484870 0.490960 -0.208039
N4    N     N_1   0.761970 0.515130 0.509040 -0.204747
O1    O     O_R   0.399110 0.356330 0.496510 -0.508285
O2    O     O_2   0.446334 0.324997 0.147766 -0.507583
O3    O     O_2   0.441068 0.326343 0.849856 -0.502831
O4    O     O_2   0.534357 0.665248 0.150157 -0.500923
O5    O     O_3   0.646244 0.402688 0.333424 -0.549723
O6    O     O_3   0.685031 0.561627 0.683971 -0.553530
O7    O     O_3   0.357854 0.961291 0.488591 -0.592612
O8    O     O_3   0.642814 0.038936 0.512243 -0.589328
O9    O     O_3   0.032548 0.599280 0.549251 -0.608963
O10   O     O_3   0.966250 0.405693 0.444458 -0.602042
O11   O     O_R   0.600890 0.643670 0.503490 -0.504785
O12   O     O_R   0.575900 0.366540 0.502610 -0.471074
O13   O     O_R   0.424100 0.633460 0.497390 -0.477296
O14   O     O_R   0.411590 0.494870 0.414830 -0.518626
O15   O     O_R   0.588410 0.505130 0.585170 -0.463311
O16   O     O_R   0.588370 0.505070 0.420930 -0.445064
O17   O     O_R   0.411630 0.494930 0.579070 -0.502607
O18   O     O_2   0.519539 0.667356 0.852395 -0.493836

loop_
_geom_bond_atom_site_label_1
_geom_bond_atom_site_label_2
_ccdc_geom_bond_type
C25   C31   A    
C15   C18   S    
Cu1   O14   S    
C26   C32   A    
C23   C45   A    
C5    N2    S    
C17   O15   A    
C1    C8    S    
C1    O12   A    
Cu2   O16   S    
C7    C13   T    
C2    C57   A    
C12   O11   A    
C53   C54   S    
C24   N2    A    
C52   H42   S    
C21   O2    S    
C39   O6    S    
C23   H23   S    
C54   H47   S    
C36   C37   S    
C24   C26   A    
C44   H22   S    
C41   H17   S    
C20   N1    A    
C27   C29   A    
C53   H44   S    
C9    O8    S    
C40   H13   S    
C22   C25   A    
C9    C13   S    
C22   N1    A    
C45   C56   A    
C40   H14   S    
C58   O5    S    
C48   H31   S    
C37   H5    S    
C31   H52   S    
C31   C33   A    
C36   H3    S    
C16   O14   A    
C9    C10   D    
C51   H38   S    
C38   H9    S    
Cu1   Cu2   S    
Cu1   O1    S    
C48   H30   S    
C55   H49   S    
C47   H29   S    
C46   O8    S    
C22   O3    S    
Cu2   O15   S    
C45   H45   S    
C42   O7    S    
C20   C29   A    
C2    O6    S    
C51   H39   S    
C7    C12   S    
C52   H41   S    
C24   O4    S    
C12   O13   A    
C54   H46   S    
C32   C35   A    
Cu2   O12   S    
C4    C6    A    
C10   O7    S    
C18   N4    T    
C39   C40   S    
C52   O10   S    
C3    C5    A    
C43   H20   S    
Cu1   O17   S    
C6    C34   A    
C2    C4    A    
C43   C44   S    
C16   C56   S    
C6    N1    S    
C37   C38   S    
C41   H15   S    
C47   C48   S    
C5    C23   A    
C19   N3    T    
C37   H6    S    
C50   C51   S    
C34   C55   A    
C1    O1    A    
C49   H35   S    
Cu1   N3    S    
C40   C41   S    
C4    H51   S    
C38   H8    S    
C35   H12   S    
C42   H18   S    
C55   C57   A    
C17   O17   A    
C43   H21   S    
Cu2   N4    S    
C42   C43   S    
C44   H25   S    
C52   C53   S    
C46   H27   S    
C51   H40   S    
C46   C47   S    
Cu1   O13   S    
C50   H37   S    
C30   C33   A    
C14   C19   S    
Cu2   O11   S    
C34   H34   S    
C21   N2    A    
C44   H24   S    
C25   C27   A    
C49   O9    S    
C21   C30   A    
C29   C35   A    
C26   C28   A    
C14   O10   S    
C54   H48   S    
C49   H33   S    
C47   H28   S    
C28   C30   A    
C36   O5    S    
C32   H2    S    
C41   H16   S    
C50   H36   S    
C53   H43   S    
C8    C11   T    
C39   H10   S    
C56   C58   A    
C16   O16   A    
C10   C11   S    
C3    C58   A    
C42   H19   S    
C38   H7    S    
C33   H1    S    
C49   C50   S    
C48   H32   S    
C27   C28   A    
C39   H11   S    
C14   C15   D    
C3    H50   S    
C20   O18   S    
C36   H4    S    
C15   O9    S    
C17   C57   S    
C46   H26   S    
