data_mof_unit_45069.cif
_audit_creation_date              2012-12-11T15:15:41-0500
_audit_creation_method            fapswitch 2.2
_symmetry_space_group_name_H-M    P1
_symmetry_Int_Tables_number       1
_space_group_crystal_system       triclinic
_cell_length_a                    19.174229
_cell_length_b                    19.2978
_cell_length_c                    20.412558
_cell_angle_alpha                 107.042599
_cell_angle_beta                  106.0944
_cell_angle_gamma                 112.446972
_cell_volume                      5992.26217582

loop_
_atom_site_label
_atom_site_type_symbol
_atom_type_description
_atom_site_fract_x
_atom_site_fract_y
_atom_site_fract_z
_atom_type_partial_charge
C1    C     C_R   0.083969 0.087950 0.353501 -0.130175
C2    C     C_R   0.244583 0.072323 0.507428 -0.000207
C3    C     C_R   0.236827 0.383353 0.699936 -0.065611
C4    C     C_R   0.249531 0.394154 0.638609 -0.130778
C5    C     C_R   0.187444 0.392828 0.581704 -0.174696
C6    C     C_R   0.793707 0.613203 0.175087 0.108225
C7    C     C_R   0.852790 0.615339 0.235501 -0.134941
C8    C     C_R   0.930801 0.629946 0.237583 -0.119160
C9    C     C_R   0.950432 0.643177 0.179682 -0.104425
C10   C     C_R   0.891760 0.641042 0.119252 -0.129768
C11   C     C_R   0.813343 0.625541 0.116596 -0.166668
C12   C     C_R   0.425069 0.428960 0.991959 0.189453
C13   C     C_R   0.161585 0.184577 0.718264 -0.146013
C14   C     C_R   0.339492 0.379597 0.972212 -0.099485
C15   C     C_R   0.279929 0.394165 0.930537 -0.131195
C16   C     C_R   0.305346 0.458586 0.909057 -0.098516
C17   C     C_R   0.390181 0.507914 0.928368 -0.130062
C18   C     C_R   0.449921 0.493523 0.969944 -0.176998
C19   C     C_R   0.547032 0.365819 0.895658 0.143662
C20   C     C_R   0.563180 0.432888 0.876567 -0.162381
C21   C     C_R   0.645110 0.488732 0.892465 -0.128319
C22   C     C_R   0.711470 0.477965 0.927090 -0.091367
C23   C     C_R   0.696172 0.411763 0.946515 -0.105498
C24   C     C_R   0.762018 0.921908 0.502279 -0.151110
C25   C     C_R   0.614358 0.355802 0.930825 -0.184126
C26   C     C_R   0.463126 0.520788 0.159320 0.130790
C27   C     C_R   0.426765 0.570782 0.152488 -0.142865
C28   C     C_R   0.345980 0.545345 0.147594 -0.103531
C29   C     C_R   0.301154 0.470220 0.149891 -0.093358
C30   C     C_R   0.337177 0.420554 0.157444 -0.130328
C31   C     C_R   0.417917 0.445705 0.162309 -0.158225
C32   C     C_R   0.993941 0.978285 0.966147 0.146301
C33   C     C_R   0.985662 0.049266 0.992956 -0.170556
C34   C     C_R   0.949339 0.058058 0.043284 -0.128028
C35   C     C_R   0.008430 0.769960 0.440168 -0.169426
C36   C     C_R   0.921199 0.996317 0.067395 -0.081600
C37   C     C_R   0.928626 0.925273 0.040653 -0.098822
C38   C     C_R   0.964232 0.915853 0.989781 -0.133087
C39   C     C_R   0.850371 0.147445 0.617090 0.068658
C40   C     C_R   0.791539 0.174486 0.604047 -0.162906
C41   C     C_R   0.812935 0.255649 0.651139 -0.110571
C42   C     C_R   0.893749 0.311255 0.710610 -0.104221
C43   C     C_R   0.953746 0.286323 0.722027 -0.123583
C44   C     C_R   0.932840 0.205569 0.674406 -0.136854
C45   C     C_R   0.241004 0.202389 0.725156 0.045946
C46   C     C_R   0.962274 0.720929 0.466024 0.030892
C47   C     C_R   0.252278 0.000673 0.485021 0.035346
C48   C     C_R   0.001901 0.975340 0.725073 0.000211
C49   C     C_R   0.034804 0.660558 0.524759 -0.053173
C50   C     C_R   0.963994 0.649361 0.468878 0.059869
C51   C     C_R   0.754555 0.986025 0.544355 0.014971
C52   C     C_R   0.895841 0.570826 0.415564 -0.300041
C53   C     C_R   0.898762 0.500211 0.414351 0.149620
C54   C     C_R   0.970016 0.509546 0.469178 0.006619
C55   C     C_R   0.842862 0.785127 0.285806 -0.126530
C56   C     C_R   0.037832 0.589991 0.525154 0.121486
C57   C     C_R   0.831870 0.420686 0.358988 -0.205414
C58   C     C_R   0.835166 0.349782 0.357619 -0.209213
C59   C     C_R   0.905018 0.358249 0.412026 0.147192
C60   C     C_R   0.973024 0.438400 0.468343 0.026998
C61   C     C_R   0.043241 0.447380 0.524464 0.076607
C62   C     C_R   0.764469 0.736411 0.281265 0.046992
C63   C     C_R   0.109866 0.527673 0.579852 -0.216743
C64   C     C_R   0.107294 0.598232 0.579962 -0.197224
C65   C     C_R   0.907315 0.287626 0.411720 -0.285169
C66   C     C_R   0.975494 0.296681 0.467396 0.043017
C67   C     C_R   0.951449 0.195325 0.518762 -0.134364
C68   C     C_R   0.044004 0.375549 0.524577 -0.070539
C69   C     C_R   0.396335 0.048915 0.575244 -0.275977
C70   C     C_R   0.326834 0.993855 0.503814 0.099315
C71   C     C_R   0.322993 0.924312 0.453155 -0.268297
C72   C     C_R   0.388833 0.909595 0.472268 0.147393
C73   C     C_R   0.973587 0.222984 0.468693 0.070541
C74   C     C_R   0.461698 0.967877 0.541597 0.025873
C75   C     C_R   0.465323 0.037378 0.593894 0.141796
C76   C     C_R   0.384379 0.839699 0.421170 -0.211966
C77   C     C_R   0.455170 0.831846 0.434999 -0.210491
C78   C     C_R   0.530453 0.894611 0.499335 0.139275
C79   C     C_R   0.766305 0.776654 0.351064 -0.132139
C80   C     C_R   0.533139 0.960430 0.555114 0.024498
C81   C     C_R   0.609459 0.023654 0.619820 0.140568
C82   C     C_R   0.610978 0.088796 0.674754 -0.210013
C83   C     C_R   0.538882 0.095491 0.661905 -0.208879
C84   C     C_R   0.237859 0.185880 0.653729 -0.145229
C85   C     C_R   0.604754 0.899074 0.502821 -0.254981
C86   C     C_R   0.681486 0.969593 0.559690 0.111127
C87   C     C_R   0.683921 0.025660 0.623226 -0.278767
C88   C     C_R   0.311306 0.222318 0.792784 0.148013
C89   C     C_R   0.295992 0.190036 0.843711 -0.191804
C90   C     C_R   0.361139 0.220419 0.914358 -0.186886
C91   C     C_R   0.031531 0.202640 0.456894 -0.113100
C92   C     C_R   0.441406 0.283659 0.934235 0.157205
C93   C     C_R   0.460137 0.305500 0.878339 0.045074
C94   C     C_R   0.393872 0.274810 0.807612 -0.259451
C95   C     C_R   0.927819 0.760870 0.501255 0.029987
C96   C     C_R   0.642203 0.516673 0.115733 -0.242812
C97   C     C_R   0.710249 0.594953 0.171374 0.015700
C98   C     C_R   0.614973 0.625277 0.215755 -0.254339
C99   C     C_R   0.547375 0.545813 0.161354 0.021940
C100  C     C_R   0.560901 0.491847 0.109385 0.071309
C101  C     C_2   0.493042 0.345581 0.014674 -0.326867
C102  C     C_2   0.489958 0.417046 0.039781 -0.003455
C103  C     C_R   0.827291 0.061254 0.566815 0.015375
C104  C     C_R   0.696569 0.651388 0.221391 0.067001
C105  C     C_R   0.102555 0.030246 0.235307 0.122518
C106  C     C_R   0.174140 0.931033 0.452624 -0.147627
C107  C     C_R   0.122838 0.969313 0.204887 -0.220857
C108  C     C_R   0.158230 0.973385 0.154150 -0.164600
C109  C     C_R   0.173231 0.038166 0.132363 0.218153
C110  C     C_R   0.159621 0.102762 0.167277 -0.215914
C111  C     C_R   0.123768 0.099077 0.218121 0.046130
C112  C     C_R   0.032485 0.969134 0.912646 0.010409
C113  C     C_R   0.999911 0.975422 0.845690 -0.232258
C114  C     C_R   0.100834 0.950689 0.807950 -0.204958
C115  C     C_R   0.014700 0.948717 0.289145 -0.143718
C116  C     C_R   0.134815 0.945497 0.874876 -0.180380
C117  C     C_R   0.015626 0.049167 0.719603 0.008226
C118  C     C_R   0.101892 0.955710 0.927791 0.147386
C119  C     C_2   0.186434 0.032218 0.063657 -0.207489
C120  C     C_2   0.143289 0.958181 0.001169 -0.232659
C121  C     C_R   0.034398 0.966991 0.794046 0.133660
C122  C     C_R   0.061684 0.022369 0.286252 0.053153
C123  C     C_R   0.009776 0.112335 0.776538 0.092241
C124  C     C_R   0.930803 0.105009 0.763150 -0.153068
C125  C     C_R   0.920776 0.156861 0.819477 -0.089455
C126  C     C_R   0.988813 0.214221 0.890897 -0.100807
C127  C     C_R   0.066310 0.218277 0.906619 -0.140915
C128  C     C_R   0.957743 0.910812 0.652876 -0.156479
C129  C     C_R   0.076292 0.166339 0.850357 -0.168262
C130  C     C_R   0.297504 0.153121 0.506898 0.103739
C131  C     C_R   0.369128 0.167699 0.493421 -0.146919
C132  C     C_R   0.415203 0.241024 0.489053 -0.109026
C133  C     C_R   0.389833 0.300409 0.495978 -0.080009
C134  C     C_R   0.318105 0.286380 0.506985 -0.139837
C135  C     C_R   0.272524 0.213777 0.512552 -0.168778
C136  C     C_R   0.112617 0.381621 0.586616 0.154151
C137  C     C_R   0.101342 0.373200 0.649449 -0.148577
C138  C     C_R   0.162622 0.372627 0.705199 -0.115380
H1    H     H_    0.132395 0.152386 0.375995 0.109940
H2    H     H_    0.855535 0.225474 0.369344 0.136191
H3    H     H_    0.164462 0.536804 0.623529 0.144346
H4    H     H_    0.159934 0.659125 0.623392 0.144097
H5    H     H_    0.397058 0.101050 0.615050 0.133155
H6    H     H_    0.268636 0.881714 0.398217 0.119769
H7    H     H_    0.327734 0.793740 0.368741 0.126330
H8    H     H_    0.452764 0.780449 0.392570 0.129815
H9    H     H_    0.601957 0.853167 0.454827 0.120755
H10   H     H_    0.867040 0.771675 0.244870 0.117917
H11   H     H_    0.743406 0.075610 0.670769 0.137130
H12   H     H_    0.156258 0.865830 0.425443 0.099669
H13   H     H_    0.668944 0.137217 0.725050 0.132564
H14   H     H_    0.541931 0.148383 0.703008 0.136177
H15   H     H_    0.233005 0.144888 0.830570 0.119724
H16   H     H_    0.603256 0.667175 0.253747 0.125593
H17   H     H_    0.652608 0.475684 0.075407 0.156074
H18   H     H_    0.406048 0.295498 0.765979 0.119673
H19   H     H_    0.911756 0.208070 0.542202 0.130281
H20   H     H_    0.541681 0.338762 0.049816 0.142269
H21   H     H_    0.346717 0.202637 0.956677 0.125293
H22   H     H_    0.110500 0.917696 0.219531 0.121727
H23   H     H_    0.935830 0.845672 0.638296 0.126198
H24   H     H_    0.947366 0.986359 0.833490 0.139863
H25   H     H_    0.127464 0.943865 0.767683 0.128749
H26   H     H_    0.116401 0.899674 0.004991 0.130423
H27   H     H_    0.170740 0.153010 0.150668 0.107192
H28   H     H_    0.720839 0.751494 0.371574 0.092706
H29   H     H_    0.207880 0.088996 0.056020 0.132127
H30   H     H_    0.170430 0.923947 0.129565 0.113313
H31   H     H_    0.187839 0.935358 0.886208 0.131054
H32   H     H_    0.066825 0.221523 0.426107 0.095992
H33   H     H_    0.997571 0.886080 0.251676 0.095816
H34   H     H_    0.144427 0.195538 0.764027 0.106815
H35   H     H_    0.288955 0.190766 0.639525 0.110473
H36   H     H_    0.872123 0.694726 0.549851 0.099197
H37   H     H_    0.807560 0.672150 0.462008 0.102797
H38   H     H_    0.876678 0.058266 0.709325 0.118390
H39   H     H_    0.860011 0.151832 0.808044 0.103359
H40   H     H_    0.980957 0.254069 0.934615 0.098207
H41   H     H_    0.118260 0.260561 0.962852 0.107121
H42   H     H_    0.135447 0.167407 0.864981 0.105668
H43   H     H_    0.389522 0.122478 0.483911 0.125409
H44   H     H_    0.469983 0.251067 0.478930 0.106651
H45   H     H_    0.037998 0.753780 0.404971 0.103748
H46   H     H_    0.425008 0.356663 0.491645 0.098467
H47   H     H_    0.297078 0.331388 0.510193 0.103648
H48   H     H_    0.216824 0.205276 0.519576 0.129444
H49   H     H_    0.079310 0.774934 0.610648 0.112753
H50   H     H_    0.129816 0.775724 0.554021 0.120929
H51   H     H_    0.044163 0.365160 0.654003 0.119578
H52   H     H_    0.152277 0.363315 0.752147 0.099078
H53   H     H_    0.284423 0.383192 0.743283 0.114464
H54   H     H_    0.307342 0.403045 0.635104 0.110656
H55   H     H_    0.197105 0.399605 0.533615 0.106547
H56   H     H_    0.841177 0.565000 0.374874 0.127598
H57   H     H_    0.838169 0.605729 0.280614 0.109443
H58   H     H_    0.975909 0.630711 0.283888 0.108865
H59   H     H_    0.010972 0.654808 0.181513 0.097649
H60   H     H_    0.906935 0.651130 0.074363 0.101917
H61   H     H_    0.768243 0.623941 0.069551 0.121660
H62   H     H_    0.319132 0.331198 0.990511 0.107435
H63   H     H_    0.214207 0.356280 0.915719 0.112919
H64   H     H_    0.259463 0.470850 0.878024 0.101113
H65   H     H_    0.409746 0.557787 0.911654 0.112290
H66   H     H_    0.515609 0.532856 0.985234 0.121613
H67   H     H_    0.777303 0.413452 0.316758 0.129111
H68   H     H_    0.512637 0.442575 0.850148 0.110542
H69   H     H_    0.657161 0.540405 0.877929 0.107293
H70   H     H_    0.774825 0.521191 0.939221 0.097231
H71   H     H_    0.747720 0.403752 0.973677 0.111957
H72   H     H_    0.603433 0.304403 0.945694 0.109216
H73   H     H_    0.460275 0.628505 0.149475 0.109111
H74   H     H_    0.317947 0.583683 0.141626 0.101757
H75   H     H_    0.238506 0.450483 0.145799 0.095038
H76   H     H_    0.302389 0.362364 0.159177 0.103083
H77   H     H_    0.444924 0.406397 0.167718 0.111320
H78   H     H_    0.724077 0.855791 0.485350 0.102219
H79   H     H_    0.008020 0.098085 0.975453 0.124147
H80   H     H_    0.943550 0.113072 0.064033 0.104861
H81   H     H_    0.893789 0.003605 0.106903 0.103161
H82   H     H_    0.906693 0.877429 0.059272 0.102805
H83   H     H_    0.968365 0.859835 0.968691 0.094825
H84   H     H_    0.065428 0.165068 0.203261 0.107538
H85   H     H_    0.160988 0.220571 0.278875 0.095486
H86   H     H_    0.729065 0.132786 0.557331 0.128754
H87   H     H_    0.766869 0.275471 0.641365 0.112921
H88   H     H_    0.910214 0.374017 0.747176 0.102752
H89   H     H_    0.782953 0.288397 0.314495 0.128991
H90   H     H_    0.016786 0.329893 0.767285 0.106047
H91   H     H_    0.981015 0.188555 0.682564 0.123828
N1    N     N_R   0.052580 0.056040 0.395500 -0.046684
N2    N     N_R   0.890210 0.849400 0.355780 -0.040020
N3    N     N_R   0.997110 0.161140 0.539580 -0.042651
N4    N     N_R   0.841950 0.845400 0.395490 -0.038051
N5    N     N_R   0.045360 0.165140 0.499870 -0.044225
N6    N     N_R   0.877490 0.041510 0.539580 -0.061302
N7    N     N_R   0.009820 0.969030 0.355780 -0.036966
N8    N     N_R   0.158050 0.154600 0.604510 -0.042930
N9    N     N_3   0.856622 0.721310 0.514316 -0.225715
N10   N     N_3   0.103016 0.742978 0.581339 -0.222851
N11   N     N_3   0.104842 0.162865 0.248683 -0.227737
N12   N     N_R   0.954640 0.834860 0.500130 -0.045113
N13   N     N_R   0.122510 0.958490 0.460420 -0.043765
N14   N     N_R   0.990180 0.030970 0.644220 -0.063405
N15   N     N_R   0.947420 0.943960 0.604500 -0.043772
N16   N     N_R   0.165270 0.045500 0.500140 -0.059602
N17   N     N_R   0.109790 0.150600 0.644220 -0.039738
N18   N     N_R   0.002890 0.838860 0.460420 -0.042817
N19   N     N_R   0.834730 0.954500 0.499860 -0.044928
Ni1   Ni    Ni4+2 0.104370 0.104380 0.500010 0.209607
Ni2   Ni    Ni4+2 0.895630 0.895620 0.499990 0.209740
Ni3   Ni    Ni4+2 0.006300 0.904810 0.408930 0.209828
Ni4   Ni    Ni4+2 0.993700 0.095190 0.591070 0.207964

loop_
_geom_bond_atom_site_label_1
_geom_bond_atom_site_label_2
_ccdc_geom_bond_type
C8    C9    A    
C5    C136  A    
C66   C68   A    
C39   C103  S    
C98   H16   S    
C126  C127  A    
C106  H12   S    
C24   H78   S    
C41   C42   A    
C4    H54   S    
C130  C135  A    
C20   H68   S    
C72   C76   A    
N2    Ni3   S    
C81   C82   A    
C57   C58   A    
C7    C8    A    
N17   Ni4   S    
C77   C78   A    
C52   C53   A    
C105  C107  A    
C91   N5    A    
C26   C27   A    
C101  C102  D    
N15   Ni2   S    
C40   H86   S    
N13   Ni3   S    
C38   H83   S    
C92   C93   A    
C36   C37   A    
C71   H6    S    
C2    N16   A    
H85   N11   S    
H36   N9    S    
C30   C31   A    
C110  H27   S    
C78   C80   A    
C96   H17   S    
C31   H77   S    
C35   H45   S    
N14   N15   A    
C98   C99   A    
C55   C62   A    
C57   H67   S    
C108  C109  A    
C51   C86   S    
C61   C63   A    
C90   H21   S    
C17   H65   S    
C110  C111  A    
C112  C113  A    
C132  H44   S    
C113  H24   S    
C1    C122  A    
C65   H2    S    
C90   C92   A    
C1    N1    A    
C13   H34   S    
C46   C95   A    
C19   C20   A    
N19   Ni2   S    
C132  C133  A    
C84   H35   S    
N8    N17   A    
C50   C52   A    
C107  C108  A    
C56   C64   A    
C8    H58   S    
C70   C71   A    
N3    Ni4   S    
C32   C38   A    
N1    Ni1   S    
C9    C10   A    
C135  H48   S    
C34   C36   A    
C82   H13   S    
C19   C93   S    
C49   N10   S    
C26   C99   S    
C24   C51   A    
C13   N17   A    
C105  C111  A    
C59   C60   A    
C115  C122  A    
C74   C80   A    
C21   C22   A    
C123  C129  A    
C114  C121  A    
C134  H47   S    
N8    Ni1   S    
C138  H52   S    
N6    Ni4   S    
C106  N13   A    
C16   H64   S    
C10   H60   S    
N5    Ni1   S    
C27   H73   S    
C115  N7    A    
C15   H63   S    
C11   H61   S    
C9    H59   S    
N4    Ni2   S    
C107  H22   S    
C6    C7    A    
C62   C104  S    
C42   H88   S    
C129  H42   S    
C54   C56   A    
N13   N16   A    
C101  H20   S    
C74   C75   A    
C25   H72   S    
C6    C97   S    
C55   N2    A    
C62   C79   A    
C123  C124  A    
C45   C88   S    
C52   H56   S    
C76   C77   A    
C73   C91   A    
C72   C74   A    
C116  C118  A    
C10   C11   A    
C48   C121  S    
C53   C57   A    
C86   C87   A    
C16   C17   A    
C54   C60   A    
C23   H71   S    
C84   N8    A    
C58   C59   A    
C85   C86   A    
C66   C73   S    
C14   H62   S    
C41   H87   S    
C60   C61   A    
C95   N9    S    
C44   H91   S    
C127  C129  A    
C47   C70   S    
C12   C102  S    
C37   C38   A    
C3    H53   S    
C48   C128  A    
C133  H46   S    
C89   H15   S    
C99   C100  A    
C68   C136  S    
C47   C106  A    
C96   C97   A    
C100  C102  S    
C17   C18   A    
C63   H3    S    
C22   H70   S    
C67   H19   S    
C3    C138  A    
C81   C87   A    
C20   C21   A    
N1    N7    A    
C4    C5    A    
C30   H76   S    
C79   N4    A    
C48   C117  A    
C92   C101  S    
C95   N12   A    
C67   C73   A    
C117  N14   A    
C78   C85   A    
C115  H33   S    
C40   C41   A    
C12   C14   A    
C76   H7    S    
C65   C66   A    
N18   Ni3   S    
N2    N4    A    
C43   C44   A    
C125  H39   S    
C133  C134  A    
C128  N15   A    
C49   C50   A    
C137  H51   S    
C24   N19   A    
C45   C84   A    
C69   H5    S    
C42   C43   A    
N7    Ni3   S    
C7    H57   S    
C3    C4    A    
H37   N9    S    
C119  H29   S    
N6    N19   A    
C6    C11   A    
C43   H90   S    
C109  C119  S    
C5    H55   S    
C83   H14   S    
C137  C138  A    
C105  C122  S    
N16   Ni1   S    
C28   C29   A    
C103  N6    A    
N14   Ni4   S    
C32   C112  S    
C91   H32   S    
N3    N5    A    
N12   N18   A    
C22   C23   A    
N12   Ni2   S    
C85   H9    S    
C29   H75   S    
C80   C81   A    
C1    H1    S    
C67   N3    A    
C114  C116  A    
C119  C120  D    
C34   H80   S    
C53   C54   A    
C39   C44   A    
C124  H38   S    
C33   H79   S    
C2    C47   A    
C28   H74   S    
C49   C56   A    
C93   C94   A    
C46   C50   S    
C134  C135  A    
C35   N18   A    
C111  N11   S    
C127  H41   S    
C32   C33   A    
C21   H69   S    
C130  C131  A    
C117  C123  S    
C71   C72   A    
H50   N10   S    
C131  C132  A    
C59   C65   A    
C13   C45   A    
C131  H43   S    
C61   C68   A    
C75   C83   A    
C114  H25   S    
C125  C126  A    
C64   H4    S    
C98   C104  A    
C55   H10   S    
C96   C100  A    
H84   N11   S    
C128  H23   S    
C2    C130  S    
C33   C34   A    
C116  H31   S    
C69   C75   A    
C36   H81   S    
C23   C25   A    
C79   H28   S    
C108  H30   S    
C69   C70   A    
C19   C25   A    
C118  C120  S    
H49   N10   S    
C97   C104  A    
C126  H40   S    
C120  H26   S    
C29   C30   A    
C63   C64   A    
C39   C40   A    
C26   C31   A    
C113  C121  A    
C88   C89   A    
C94   H18   S    
C82   C83   A    
C87   H11   S    
C12   C18   A    
C27   C28   A    
C88   C94   A    
C112  C118  A    
C14   C15   A    
C136  C137  A    
C18   H66   S    
C37   H82   S    
C89   C90   A    
C109  C110  A    
C35   C46   A    
C51   C103  A    
C77   H8    S    
C58   H89   S    
C15   C16   A    
C124  C125  A    
