data_mof_unit_5484.cif
_audit_creation_date              2012-12-11T20:55:38-0500
_audit_creation_method            fapswitch 2.2
_symmetry_space_group_name_H-M    P1
_symmetry_Int_Tables_number       1
_space_group_crystal_system       triclinic
_cell_length_a                    8.42387
_cell_length_b                    19.027362
_cell_length_c                    22.833055
_cell_angle_alpha                 99.123243
_cell_angle_beta                  89.691412
_cell_angle_gamma                 91.92245
_cell_volume                      3611.44234545

loop_
_atom_site_label
_atom_site_type_symbol
_atom_type_description
_atom_site_fract_x
_atom_site_fract_y
_atom_site_fract_z
_atom_type_partial_charge
Ba1   Ba    Ba6+2 0.157290 0.533910 0.474710 1.697223
Ba2   Ba    Ba6+2 0.652900 0.466090 0.525240 1.664012
C1    C     C_3   0.364427 0.675844 0.255018 0.514894
C2    C     C_R   0.996547 0.270406 0.473840 -0.020657
C3    C     C_R   0.147566 0.182609 0.540386 -0.119380
C4    C     C_3   0.896574 0.719927 0.328772 0.942370
C5    C     C_R   0.209025 0.251296 0.537952 0.118412
C6    C     C_R   0.664795 0.809588 0.450928 -0.084612
C7    C     C_R   0.587941 0.747830 0.464317 0.004704
C8    C     C_R   0.858522 0.802710 0.526663 -0.105671
C9    C     C_R   0.810975 0.730396 0.525865 0.116842
C10   C     C_R   0.031591 0.150172 0.498870 -0.006328
C11   C     C_R   0.123068 0.296948 0.510167 -0.201985
C12   C     C_3   0.392106 0.667814 0.319354 0.360891
C13   C     C_R   0.788509 0.845016 0.487136 0.046862
C14   C     C_R   0.661477 0.707931 0.502477 -0.197321
C15   C     C_R   0.231678 0.027845 0.523204 -0.076856
C16   C     C_3   0.914441 0.784109 0.294646 -0.074374
C17   C     C_R   0.322646 0.973681 0.537751 -0.075119
C18   C     C_R   0.272861 0.904075 0.519541 -0.074559
C19   C     C_R   0.124852 0.890030 0.492906 -0.083880
C20   C     C_R   0.012710 0.942869 0.494882 0.010067
C21   C     C_R   0.070763 0.015559 0.505231 0.036900
C22   C     C_R   0.849957 0.922599 0.482601 -0.028182
C23   C     C_3   0.408384 0.695810 0.657873 0.359189
C24   C     C_R   0.750665 0.978860 0.470745 0.027289
C25   C     C_R   0.807646 0.052017 0.482257 0.023106
C26   C     C_R   0.969866 0.071980 0.496640 -0.014254
C27   C     C_R   0.594391 0.966546 0.447337 -0.080393
C28   C     C_3   0.868104 0.264041 0.337094 0.299264
C29   C     C_R   0.506056 0.021000 0.431564 -0.076255
C30   C     C_R   0.552794 0.090632 0.451412 -0.074871
C31   C     C_R   0.695404 0.104992 0.481408 -0.074820
C32   C     C_R   0.648084 0.519390 0.332847 -0.357630
C33   C     C_R   0.392937 0.544241 0.941589 -0.041911
C34   C     C_3   0.298191 0.754988 0.686078 -0.137642
C35   C     C_R   0.346323 0.538851 0.881672 0.612858
C36   C     C_R   0.261743 0.416778 0.880028 0.568913
C37   C     C_R   0.313689 0.419466 0.939088 -0.011318
C38   C     C_R   0.378625 0.483802 0.970100 -0.047180
C39   C     C_R   0.453933 0.608645 0.973631 -0.071040
C40   C     C_3   0.858861 0.263492 0.269854 -0.082772
C41   C     C_R   0.499667 0.613003 0.032819 -0.062106
C42   C     C_R   0.488254 0.552807 0.061576 -0.031846
C43   C     C_R   0.428864 0.487821 0.029952 -0.054440
C44   C     C_R   0.303026 0.359208 0.967774 -0.067922
C45   C     C_3   0.915767 0.276569 0.669512 0.856055
C46   C     C_R   0.357257 0.362599 0.025955 -0.073023
C47   C     C_R   0.420320 0.426793 0.057803 -0.047507
C48   C     C_R   0.475203 0.431299 0.116765 0.667527
C49   C     C_R   0.534881 0.556381 0.121252 0.572008
C50   C     C_2   0.089229 0.456544 0.770140 -0.024750
C51   C     C_3   0.046761 0.465414 0.707214 -0.003377
C52   C     C_3   0.965348 0.615249 0.656604 0.233482
C53   C     C_1   0.319843 0.491487 0.689653 0.066978
C54   C     C_2   0.364680 0.486174 0.744396 -0.110911
C55   C     C_2   0.241384 0.470599 0.788942 0.219428
C56   C     C_3   0.938449 0.222484 0.711790 -0.226105
C57   C     C_R   0.726666 0.529258 0.231469 -0.055376
C58   C     C_R   0.758057 0.542209 0.293245 -0.032803
C59   C     C_R   0.505276 0.484924 0.312845 -0.028151
C60   C     C_R   0.465671 0.478294 0.252384 0.508643
C61   C     C_R   0.574367 0.501010 0.210901 0.152840
C62   C     C_2   0.188878 0.459214 0.666963 -0.244215
C63   C     C_3   0.942593 0.628810 0.724073 0.414767
C64   C     C_3   0.319351 0.315613 0.392729 0.317715
C65   C     C_3   0.332126 0.235320 0.376485 -0.394829
C66   C     C_3   0.000386 0.305357 0.247996 -0.272419
C67   C     C_3   0.440904 0.316135 0.679872 0.325380
C68   C     C_3   0.851957 0.186787 0.236779 -0.448111
C69   C     C_3   0.580579 0.724536 0.661862 -0.357387
C70   C     C_3   0.283653 0.814281 0.648496 -0.518018
C71   C     C_3   0.774185 0.833974 0.304916 -0.402161
C72   C     C_3   0.825848 0.238980 0.615093 -0.245887
C73   C     C_3   0.327306 0.248883 0.758087 -0.260162
C74   C     C_3   0.578986 0.642907 0.519612 -0.253678
C75   C     C_3   0.858010 0.541814 0.188516 -0.271844
C76   C     C_3   0.069395 0.827945 0.309933 -0.305634
C77   C     C_3   0.465111 0.295030 0.741207 0.514945
C78   C     C_R   0.967384 0.195952 0.461636 -0.171171
F1    F     F_    0.087744 0.638582 0.752707 -0.689191
F2    F     F_    0.470485 0.725671 0.237864 -0.690660
F3    F     F_    0.064111 0.299752 0.652974 -0.808353
F4    F     F_    0.933557 0.740764 0.388054 -0.734887
F5    F     F_    0.601877 0.257785 0.742537 -0.705836
F6    F     F_    0.321595 0.449371 0.233808 -0.681723
H1    H     H_    0.314383 0.622740 0.328624 0.028616
H2    H     H_    0.267336 0.215814 0.334531 0.114524
H3    H     H_    0.280494 0.208381 0.412078 0.052371
H4    H     H_    0.458846 0.221443 0.370616 0.118898
H5    H     H_    0.517951 0.654519 0.324474 -0.099126
H6    H     H_    0.367622 0.679303 0.612117 0.016876
H7    H     H_    0.340168 0.778357 0.731297 0.135495
H8    H     H_    0.178160 0.731890 0.691405 0.189802
H9    H     H_    0.241988 0.691452 0.247646 0.033378
H10   H     H_    0.831417 0.187276 0.713675 0.132667
H11   H     H_    0.038295 0.187580 0.696388 0.048970
H12   H     H_    0.747748 0.289445 0.260009 0.131060
H13   H     H_    0.961674 0.250277 0.757567 0.137503
H14   H     H_    0.325842 0.342060 0.679925 -0.007242
H15   H     H_    0.536254 0.354756 0.671895 0.066999
H16   H     H_    0.475910 0.344151 0.774698 0.007570
H17   H     H_    0.885471 0.175103 0.426490 0.049355
H18   H     H_    0.187507 0.157037 0.576359 0.082635
H19   H     H_    0.627535 0.826950 0.411047 0.052630
H20   H     H_    0.953763 0.823885 0.556450 0.046634
H21   H     H_    0.159701 0.352588 0.514579 0.048515
H22   H     H_    0.296944 0.076696 0.523054 0.070978
H23   H     H_    0.086134 0.596195 0.645165 0.017441
H24   H     H_    0.441075 0.985426 0.555660 0.081025
H25   H     H_    0.353324 0.862033 0.523274 0.080925
H26   H     H_    0.771622 0.699370 0.324849 -0.119153
H27   H     H_    0.093432 0.837820 0.470845 0.179279
H28   H     H_    0.528444 0.917767 0.443363 0.064383
H29   H     H_    0.390709 0.009214 0.410899 0.078354
H30   H     H_    0.474398 0.133004 0.446380 0.092486
H31   H     H_    0.719654 0.158327 0.502873 0.127542
H32   H     H_    0.348268 0.314789 0.046129 0.122713
H33   H     H_    0.254360 0.308862 0.945034 0.120249
H34   H     H_    0.877995 0.573179 0.637833 0.035199
H35   H     H_    0.545187 0.663757 0.055911 0.137698
H36   H     H_    0.465958 0.656110 0.953094 0.130022
H37   H     H_    0.485683 0.499592 0.758857 0.118135
H38   H     H_    0.995760 0.447944 0.801397 0.093361
H39   H     H_    0.677372 0.525824 0.379513 0.097792
H40   H     H_    0.179138 0.437533 0.620134 0.078903
H41   H     H_    0.916340 0.762380 0.246425 0.099006
H42   H     H_    0.979809 0.238879 0.347212 -0.032413
H43   H     H_    0.763933 0.233042 0.350967 0.002013
H44   H     H_    0.991953 0.304354 0.199334 0.122519
H45   H     H_    0.870923 0.676580 0.737914 0.057763
H46   H     H_    0.000742 0.361942 0.269631 0.167072
H47   H     H_    0.114416 0.282070 0.258043 0.135124
H48   H     H_    0.961013 0.158699 0.245311 0.128107
H49   H     H_    0.746940 0.157263 0.251497 0.122038
H50   H     H_    0.840935 0.186560 0.188287 0.150546
H51   H     H_    0.607390 0.755211 0.706468 0.117800
H52   H     H_    0.661092 0.679582 0.655340 0.110695
H53   H     H_    0.604904 0.759180 0.627894 0.041207
H54   H     H_    0.398937 0.843696 0.646189 0.134017
H55   H     H_    0.243690 0.791890 0.602937 0.158846
H56   H     H_    0.877700 0.583181 0.738966 -0.000039
H57   H     H_    0.194730 0.852590 0.668774 0.148178
H58   H     H_    0.659536 0.803638 0.304572 0.189636
H59   H     H_    0.787665 0.870752 0.347553 0.122948
H60   H     H_    0.770602 0.867109 0.269054 0.144011
H61   H     H_    0.882718 0.188790 0.597287 0.025301
H62   H     H_    0.705863 0.222694 0.627771 0.148523
H63   H     H_    0.818759 0.273400 0.580476 0.121344
H64   H     H_    0.346396 0.235924 0.803210 0.136294
H65   H     H_    0.217680 0.278928 0.758156 0.108232
H66   H     H_    0.315969 0.198479 0.726161 0.126963
H67   H     H_    0.193195 0.328779 0.399112 -0.018450
H68   H     H_    0.452677 0.652417 0.527405 0.130558
H69   H     H_    0.596688 0.596202 0.484724 0.146677
H70   H     H_    0.617235 0.630685 0.562562 0.077830
H71   H     H_    0.963528 0.511650 0.197015 0.136207
H72   H     H_    0.825676 0.522572 0.141646 0.107487
H73   H     H_    0.890854 0.599450 0.193661 0.133551
H74   H     H_    0.074697 0.850180 0.357924 0.152643
H75   H     H_    0.173718 0.795217 0.298400 0.171226
H76   H     H_    0.077728 0.872848 0.284211 0.100180
H77   H     H_    0.387590 0.333298 0.434267 0.063859
H78   H     H_    0.379790 0.623650 0.226893 0.005697
N1    N     N_R   0.283260 0.475308 0.851272 -0.433050
N2    N     N_R   0.528212 0.496039 0.148627 -0.420670
O1    O     O_2   0.108070 0.674980 0.540650 -0.455828
O2    O     O_2   0.724562 0.457949 0.700632 -0.523169
O3    O     O_3   0.826187 0.332850 0.699170 -0.568424
O4    O     O_3   0.861930 0.586170 0.535430 -0.496518
O5    O     O_3   0.451480 0.461630 0.428900 -0.506803
O6    O     O_2   0.599240 0.538720 0.642170 -0.489405
O7    O     O_3   0.394350 0.638702 0.689791 -0.575199
O8    O     O_2   0.531061 0.244104 0.524491 -0.529133
O9    O     O_3   0.443683 0.255963 0.635722 -0.599943
O10   O     O_2   0.360167 0.591012 0.856707 -0.535620
O11   O     O_2   0.197784 0.362228 0.854178 -0.625006
O12   O     O_3   0.380036 0.347238 0.345893 -0.606791
O13   O     O_2   0.477233 0.377378 0.139534 -0.555931
O14   O     O_2   0.583215 0.613346 0.148709 -0.555302
O15   O     O_3   0.366390 0.628250 0.433820 -0.495546
O16   O     O_2   0.255736 0.748421 0.468861 -0.469214
O17   O     O_3   0.942551 0.679011 0.634661 -0.677543
O18   O     O_3   0.355401 0.730653 0.357678 -0.594794
O19   O     O_2   0.211060 0.461230 0.357810 -0.417702
O20   O     O_3   0.958150 0.591500 0.402390 -0.425556
O21   O     O_2   0.083080 0.537743 0.298864 -0.454109
O22   O     O_3   0.000401 0.666968 0.303822 -0.656147
O23   O     O_2   0.702240 0.324970 0.459330 -0.463518
O24   O     O_3   0.948380 0.413820 0.464520 -0.455569
O25   O     O_3   0.443920 0.371740 0.566130 -0.491123
O26   O     O_3   0.865566 0.334615 0.366332 -0.612507
O27   O     O_3   0.358830 0.538360 0.571050 -0.504048
O28   O     O_3   0.852160 0.408490 0.597560 -0.475041
P1    P     P_3+3 0.933470 0.664380 0.557030 0.982388
P2    P     P_3+3 0.383600 0.440030 0.365120 1.072794
P3    P     P_3+3 0.946292 0.584684 0.324939 1.006990
P4    P     P_3+3 0.876840 0.335610 0.442930 0.996565
P5    P     P_3+3 0.867321 0.414777 0.674938 0.993996
P6    P     P_3+3 0.393787 0.717250 0.430374 0.956588
P7    P     P_3+3 0.415899 0.553320 0.646802 0.967449
P8    P     P_3+3 0.405871 0.281309 0.566771 0.943710

loop_
_geom_bond_atom_site_label_1
_geom_bond_atom_site_label_2
_ccdc_geom_bond_type
O23   P4    D    
C70   H57   S    
C32   C58   A    
C53   C54   D    
C31   H31   S    
O2    P5    D    
C52   H34   S    
C36   N1    Am   
C17   C18   A    
Ba2   O23   S    
C65   H3    S    
C11   H21   S    
C6    H19   S    
C57   C75   S    
C69   H51   S    
C52   C63   S    
Ba1   O20   S    
C25   C31   A    
C64   O12   S    
C65   H2    S    
C15   C21   A    
O21   P3    D    
C72   H62   S    
C66   H47   S    
C33   C35   A    
C7    C14   A    
C9    P1    S    
C12   H1    S    
C2    C78   A    
C5    P8    S    
C8    C13   A    
C40   H12   S    
O4    P1    S    
C51   C62   S    
C55   N1    S    
Ba1   O1    S    
C73   H64   S    
C53   P7    S    
C4    O22   S    
Ba1   O4    S    
C40   C68   S    
O27   P7    S    
C54   C55   S    
O7    P7    S    
Ba1   Ba2   S    
C2    C11   A    
C66   H46   S    
C56   H10   S    
C27   H28   S    
C45   O3    S    
C65   H4    S    
C34   H7    S    
C61   N2    S    
O28   P5    S    
C73   H65   S    
C6    C7    A    
O18   P6    S    
C48   N2    Am   
O17   P1    S    
O20   P3    S    
C23   C69   S    
O25   P8    S    
C28   O26   S    
C41   H35   S    
C59   C60   A    
C7    P6    S    
Ba2   O5    S    
O3    P5    S    
Ba1   O24   S    
C2    P4    S    
C64   C65   S    
C3    H18   S    
C57   C58   A    
C36   O11   D    
C14   C74   S    
C19   C20   A    
C68   H50   S    
C39   C41   A    
C70   H55   S    
C56   H11   S    
O1    P1    D    
C29   H29   S    
C63   H45   S    
C69   H52   S    
C44   C46   A    
C44   H33   S    
C38   C43   A    
C4    C16   S    
C28   H42   S    
C4    F4    S    
C56   H13   S    
C78   H17   S    
C51   P5    S    
C54   H37   S    
C76   H75   S    
C72   H61   S    
Ba1   P2    S    
O16   P6    D    
Ba2   O25   S    
C45   C72   S    
C3    C10   A    
C19   H27   S    
C8    C9    A    
C15   H22   S    
C37   C38   A    
C3    C5    A    
Ba1   O15   S    
C46   H32   S    
O12   P2    S    
C74   H70   S    
C32   C59   A    
C52   H23   S    
C71   H59   S    
Ba2   O28   S    
C39   H36   S    
Ba1   O27   S    
C41   C42   A    
C60   C61   A    
C34   H8    S    
C16   H41   S    
C18   H25   S    
C60   F6    S    
C9    C14   A    
C63   F1    S    
C29   C30   A    
O8    P8    D    
C43   C47   A    
C73   H66   S    
C16   C76   S    
C53   C62   D    
C1    F2    S    
C24   C25   A    
C77   H16   S    
C35   N1    Am   
C21   C26   A    
C30   H30   S    
C66   H44   S    
C59   P2    S    
C1    C12   S    
C1    H78   S    
Ba2   O4    S    
C37   C44   A    
C58   P3    S    
C42   C49   A    
C76   H74   S    
C46   C47   A    
C75   H73   S    
C76   H76   S    
C6    C13   A    
O26   P4    S    
C68   H49   S    
C20   C22   A    
C57   C61   A    
C67   C77   S    
O19   P2    D    
C49   O14   D    
C77   F5    S    
C50   C51   S    
O24   P4    S    
C72   H63   S    
C17   H24   S    
C13   C22   S    
C23   H6    S    
Ba1   P1    S    
Ba2   P4    S    
C4    H26   S    
C42   C43   A    
Ba2   O24   S    
O9    P8    S    
C22   C24   A    
O5    P2    S    
C64   H67   S    
C12   O18   S    
C52   O17   S    
C69   H53   S    
C67   H15   S    
C16   C71   S    
C28   H43   S    
C75   H72   S    
C74   H69   S    
C62   H40   S    
C71   H60   S    
Ba2   O27   S    
Ba1   O19   S    
C48   O13   D    
C70   H54   S    
C27   C29   A    
C30   C31   A    
C35   O10   D    
C63   H56   S    
C50   H38   S    
C36   C37   A    
O22   P3    S    
C32   H39   S    
C10   C78   A    
C74   H68   S    
C15   C17   A    
Ba1   O5    S    
C64   H77   S    
C33   C38   A    
C40   C66   S    
O6    P7    D    
C33   C39   A    
C12   H5    S    
C8    H20   S    
C50   C55   D    
C23   C34   S    
C45   F3    S    
C67   H14   S    
C23   O7    S    
C5    C11   A    
C18   C19   A    
C10   C26   S    
C24   C27   A    
C47   C48   A    
C75   H71   S    
C25   C26   A    
C68   H48   S    
C20   C21   A    
C28   C40   S    
C49   N2    Am   
C1    H9    S    
C67   O9    S    
O15   P6    S    
C73   C77   S    
C34   C70   S    
Ba2   O6    S    
C45   C56   S    
C71   H58   S    
