data_mof_unit_65095.cif
_audit_creation_date              2012-12-10T18:42:17-0500
_audit_creation_method            fapswitch 2.2
_symmetry_space_group_name_H-M    P1
_symmetry_Int_Tables_number       1
_space_group_crystal_system       triclinic
_cell_length_a                    13.952498
_cell_length_b                    15.137299
_cell_length_c                    17.076341
_cell_angle_alpha                 87.428218
_cell_angle_beta                  93.833474
_cell_angle_gamma                 90.607246
_cell_volume                      3594.77840006

loop_
_atom_site_label
_atom_site_type_symbol
_atom_type_description
_atom_site_fract_x
_atom_site_fract_y
_atom_site_fract_z
_atom_type_partial_charge
C1    C     C_R   0.499572 0.330043 0.498878 0.860315
C2    C     C_R   0.500388 0.669944 0.500564 0.881483
C3    C     C_R   0.583531 0.186662 0.519957 -0.247366
C4    C     C_R   0.423817 0.810333 0.530735 -0.243305
C5    C     C_R   0.499332 0.233533 0.497308 -0.119828
C6    C     C_R   0.500514 0.766431 0.500835 -0.131869
C7    C     C_R   0.415659 0.187533 0.473052 -0.142147
C8    C     C_R   0.576197 0.815383 0.470254 -0.141971
C9    C     C_R   0.415846 0.095630 0.472793 -0.137432
C10   C     C_R   0.574411 0.907163 0.468068 -0.153431
C11   C     C_R   0.499154 0.048530 0.498245 -0.000642
C12   C     C_R   0.498573 0.951397 0.498981 -0.002504
C13   C     C_R   0.105352 0.565442 0.457871 -0.304516
C14   C     C_R   0.896406 0.459171 0.563114 -0.300361
C15   C     C_R   0.206278 0.563193 0.457055 0.796929
C16   C     C_R   0.795084 0.458314 0.560423 0.791300
C17   C     C_R   0.211097 0.437437 0.544398 0.065351
C18   C     C_R   0.788728 0.540210 0.439120 0.066974
C19   C     C_R   0.110202 0.436181 0.544100 -0.284871
C20   C     C_R   0.889496 0.538356 0.438678 -0.288777
C21   C     C_R   0.054831 0.500770 0.501331 0.072682
C22   C     C_R   0.945979 0.499737 0.501551 0.067207
C23   C     C_R   0.511817 0.496520 0.650789 0.876037
C24   C     C_R   0.488157 0.504405 0.349334 0.875948
C25   C     C_R   0.517892 0.492295 0.736898 -0.152703
C26   C     C_R   0.481902 0.512146 0.263456 -0.167185
C27   C     C_R   0.463052 0.552018 0.775068 -0.201363
C28   C     C_R   0.537702 0.455246 0.223385 -0.229066
C29   C     C_R   0.466804 0.551653 0.856647 -0.203655
C30   C     C_R   0.533940 0.459153 0.141896 -0.206194
C31   C     C_R   0.526060 0.491038 0.901658 0.265308
C32   C     C_R   0.473866 0.520742 0.098604 0.263831
C33   C     C_R   0.581678 0.432050 0.863910 0.566924
C34   C     C_R   0.417328 0.577240 0.138420 0.569032
C35   C     C_R   0.576883 0.430422 0.781641 -0.217739
C36   C     C_R   0.421954 0.575007 0.220915 -0.212530
C37   C     C_R   0.583179 0.094843 0.522040 0.633205
C38   C     C_R   0.423222 0.902261 0.530790 0.643427
Cu1   Cu    Cu3+1 0.596430 0.499990 0.500000 1.044444
Cu2   Cu    Cu3+1 0.403570 0.500010 0.500000 1.038872
H1    H     H_    0.584015 0.407094 0.255413 0.189703
H2    H     H_    0.417500 0.599550 0.741465 0.182205
H3    H     H_    0.075785 0.383857 0.577487 0.169437
H4    H     H_    0.923168 0.567681 0.388360 0.179262
H5    H     H_    0.578045 0.413780 0.113096 0.217087
H6    H     H_    0.423410 0.598708 0.884167 0.213500
H7    H     H_    0.649418 0.220927 0.537693 0.199017
H8    H     H_    0.365175 0.773442 0.555390 0.192750
H9    H     H_    0.350623 0.222552 0.453191 0.197888
H10   H     H_    0.635984 0.783075 0.446821 0.219312
H11   H     H_    0.351082 0.061353 0.452243 0.201630
H12   H     H_    0.632236 0.943647 0.441854 0.202376
H13   H     H_    0.067867 0.618690 0.424950 0.176837
H14   H     H_    0.934990 0.428153 0.613877 0.181656
N1    N     N_2   0.530680 0.485059 0.984910 -0.179916
N2    N     N_2   0.468879 0.528752 0.015253 -0.176901
N3    N     N_R   0.258690 0.500020 0.500000 -0.275304
N4    N     N_R   0.741310 0.499980 0.500000 -0.268657
O1    O     O_R   0.581430 0.371450 0.499990 -0.562755
O2    O     O_R   0.418570 0.628550 0.500010 -0.541984
O3    O     O_R   0.418560 0.371460 0.499990 -0.589356
O4    O     O_R   0.581440 0.628540 0.500010 -0.562106
O5    O     O_R   0.590350 0.499180 0.613920 -0.531755
O6    O     O_R   0.409650 0.500820 0.386080 -0.555295
O7    O     O_R   0.427480 0.499190 0.613920 -0.570522
O8    O     O_R   0.572520 0.500810 0.386080 -0.585014
F1    F     F_    0.251278 0.625578 0.413371 -0.645800
F2    F     F_    0.751406 0.414184 0.618769 -0.644587
C39   C     C_2   0.262186 0.369811 0.595165 0.933685
O9    O     O_2   0.265786 0.294063 0.573684 -0.585044
O10   O     O_R   0.297260 0.390054 0.670828 -0.732555
H15   H     H_    0.329154 0.337670 0.700713 0.346444
C40   C     C_2   0.738538 0.585785 0.370539 0.913508
O11   O     O_2   0.688440 0.649769 0.378812 -0.589147
O12   O     O_R   0.752861 0.558044 0.295232 -0.752701
H16   H     H_    0.715364 0.594533 0.252586 0.346145
F3    F     F_    0.636327 0.372325 0.908293 -0.603861
F4    F     F_    0.361537 0.637833 0.096194 -0.604114
C41   C     C_2   0.626918 0.358750 0.744928 1.033392
O13   O     O_2   0.706350 0.334703 0.771789 -0.463488
O14   O     O_R   0.581619 0.315950 0.681680 -0.765552
H17   H     H_    0.621135 0.265186 0.665052 0.347937
C42   C     C_2   0.370410 0.643454 0.260735 1.005202
O15   O     O_2   0.288964 0.664701 0.236794 -0.479830
O16   O     O_R   0.416538 0.686235 0.323760 -0.750809
H18   H     H_    0.375621 0.734027 0.344105 0.361008
F5    F     F_    0.664217 0.051477 0.549276 -0.644402
F6    F     F_    0.350490 0.942837 0.563692 -0.638343

loop_
_geom_bond_atom_site_label_1
_geom_bond_atom_site_label_2
_ccdc_geom_bond_type
N1    N2    D    
C17   C39   S    
Cu2   O2    S    
C27   C29   A    
C40   O12   S    
C40   O11   D    
C30   H5    S    
C9    H11   S    
C10   H12   S    
O14   H17   S    
O16   H18   S    
C1    C5    S    
C19   C21   A    
C24   C26   S    
C1    O1    A    
C2    O2    A    
C36   C42   S    
C28   H1    S    
C11   C37   A    
C3    H7    S    
C39   O10   S    
C17   C19   A    
C18   N4    A    
C31   C33   A    
C16   F2    S    
C34   C36   A    
C24   O8    A    
C23   O5    A    
C15   F1    S    
C24   O6    A    
C21   C22   S    
C15   N3    A    
C2    C6    S    
C20   H4    S    
C19   H3    S    
C13   H13   S    
C7    H9    S    
C4    C6    A    
Cu1   Cu2   S    
C41   O14   S    
C6    C8    A    
Cu1   N4    S    
Cu2   O3    S    
C38   F6    S    
C32   C34   A    
O12   H16   S    
C42   O15   D    
Cu1   O1    S    
C13   C21   A    
C16   N4    A    
C9    C11   A    
C10   C12   A    
C25   C35   A    
C26   C36   A    
C14   H14   S    
C20   C22   A    
C18   C40   S    
Cu2   O7    S    
C13   C15   A    
Cu1   O8    S    
C14   C16   A    
C8    H10   S    
C5    C7    A    
C4    H8    S    
C7    C9    A    
Cu1   O4    S    
Cu2   N3    S    
C42   O16   S    
C37   F5    S    
C4    C38   A    
C3    C5    A    
C1    O3    A    
C11   C12   S    
C25   C27   A    
Cu1   O5    S    
C26   C28   A    
Cu2   O6    S    
C29   H6    S    
C23   O7    A    
C28   C30   A    
O10   H15   S    
C29   C31   A    
C34   F4    S    
C30   C32   A    
C27   H2    S    
C14   C22   A    
C35   C41   S    
C33   C35   A    
C32   N2    S    
C18   C20   A    
C23   C25   S    
C12   C38   A    
C39   O9    D    
C41   O13   D    
C3    C37   A    
C8    C10   A    
C31   N1    S    
C33   F3    S    
C2    O4    A    
C17   N3    A    
