data_mof_unit_52578.cif
_audit_creation_date              2012-12-10T19:09:28-0500
_audit_creation_method            fapswitch 2.2
_symmetry_space_group_name_H-M    P1
_symmetry_Int_Tables_number       1
_space_group_crystal_system       triclinic
_cell_length_a                    14.834336
_cell_length_b                    15.495563
_cell_length_c                    9.993275
_cell_angle_alpha                 89.555868
_cell_angle_beta                  90.184587
_cell_angle_gamma                 89.952636
_cell_volume                      2297.03626258

loop_
_atom_site_label
_atom_site_type_symbol
_atom_type_description
_atom_site_fract_x
_atom_site_fract_y
_atom_site_fract_z
_atom_type_partial_charge
C1    C     C_R   0.125069 0.383345 0.500113 0.846339
C2    C     C_R   0.123830 0.617617 0.499840 0.886165
C3    C     C_R   0.623336 0.881879 0.500530 0.855903
C4    C     C_R   0.625770 0.115992 0.500189 0.880498
C5    C     C_3   0.909471 0.472546 0.079238 -0.364184
C6    C     C_3   0.907885 0.478369 0.919877 -0.370968
C7    C     C_3   0.406932 0.017881 0.079280 -0.376851
C8    C     C_3   0.408288 0.023934 0.919819 -0.358652
C9    C     C_R   0.879085 0.379570 0.500108 0.893014
C10   C     C_R   0.880046 0.621583 0.499803 0.857017
C11   C     C_R   0.379459 0.878896 0.499845 0.889558
C12   C     C_R   0.379550 0.120858 0.499661 0.861509
C13   C     C_3   0.814611 0.263386 0.638113 -0.516113
C14   C     C_3   0.839631 0.241286 0.394690 -0.505440
C15   C     C_3   0.812688 0.738635 0.364344 -0.532904
C16   C     C_3   0.837907 0.758921 0.606336 -0.441122
C17   C     C_3   0.310431 0.764436 0.637319 -0.527581
C18   C     C_3   0.340514 0.738370 0.397996 -0.510437
C19   C     C_3   0.319892 0.242290 0.366802 -0.521559
C20   C     C_3   0.334259 0.253688 0.614171 -0.427019
C21   C     C_3   0.238386 0.694493 0.640008 -0.022974
C22   C     C_3   0.264958 0.670475 0.386767 -0.047679
C23   C     C_3   0.250920 0.316038 0.366217 -0.011441
C24   C     C_3   0.261453 0.323763 0.622466 -0.074308
C25   C     C_3   0.748052 0.187930 0.638067 -0.029295
C26   C     C_3   0.763499 0.174340 0.381611 -0.052473
C27   C     C_3   0.740227 0.808414 0.362718 -0.003165
C28   C     C_3   0.764632 0.828714 0.615410 -0.078073
C29   C     C_3   0.714679 0.346739 0.471576 0.256350
C30   C     C_3   0.714523 0.652145 0.528646 0.263184
C31   C     C_3   0.215368 0.846633 0.461709 0.263299
C32   C     C_3   0.213616 0.152250 0.514695 0.257031
C33   C     C_3   0.812308 0.310076 0.500332 0.147140
C34   C     C_3   0.811700 0.690329 0.500135 0.101800
C35   C     C_3   0.311820 0.809531 0.498587 0.141808
C36   C     C_3   0.312098 0.189862 0.498975 0.103153
C37   C     C_3   0.193437 0.685020 0.499053 0.139492
C38   C     C_3   0.195933 0.316271 0.500108 0.121981
C39   C     C_3   0.696171 0.183523 0.500767 0.146997
C40   C     C_3   0.693395 0.814782 0.502110 0.127050
C41   C     C_3   0.145306 0.771656 0.466719 -0.609102
C42   C     C_3   0.145700 0.228816 0.513117 -0.548964
C43   C     C_3   0.645983 0.270841 0.481081 -0.602652
C44   C     C_3   0.645466 0.727875 0.531632 -0.561339
C45   C     C_3   0.066221 0.435221 0.085750 0.323155
C46   C     C_3   0.061611 0.430747 0.922019 0.222383
C47   C     C_3   0.022691 0.588970 0.916206 0.300694
C48   C     C_3   0.014194 0.591333 0.079000 0.261353
C49   C     C_3   0.526692 0.912036 0.084196 0.301140
C50   C     C_3   0.517778 0.909279 0.921406 0.260194
C51   C     C_3   0.562945 0.067516 0.914737 0.326242
C52   C     C_3   0.558386 0.071735 0.078322 0.221367
H1    H     H_    0.798379 0.307307 0.721995 0.166564
H2    H     H_    0.852357 0.270474 0.294531 0.169189
H3    H     H_    0.799926 0.694266 0.279798 0.166699
H4    H     H_    0.846077 0.729755 0.706502 0.168161
H5    H     H_    0.296986 0.810567 0.719361 0.171948
H6    H     H_    0.353208 0.765240 0.297251 0.179520
H7    H     H_    0.308926 0.201487 0.277232 0.162674
H8    H     H_    0.339547 0.220699 0.713057 0.155227
H9    H     H_    0.884597 0.240840 0.659640 0.165539
H10   H     H_    0.904462 0.210705 0.425396 0.164676
H11   H     H_    0.880459 0.767605 0.348279 0.170657
H12   H     H_    0.904465 0.787886 0.580704 0.173543
H13   H     H_    0.377907 0.735806 0.657649 0.167639
H14   H     H_    0.405636 0.709187 0.430535 0.164139
H15   H     H_    0.389971 0.267288 0.356294 0.168325
H16   H     H_    0.401791 0.283048 0.596191 0.178352
H17   H     H_    0.185405 0.717918 0.708474 0.162261
H18   H     H_    0.230721 0.682813 0.289467 0.151989
H19   H     H_    0.203067 0.302671 0.283541 0.153154
H20   H     H_    0.221821 0.310461 0.713885 0.147779
H21   H     H_    0.697781 0.201762 0.716988 0.156881
H22   H     H_    0.725446 0.192540 0.290351 0.148970
H23   H     H_    0.688303 0.786458 0.291243 0.158109
H24   H     H_    0.731218 0.820242 0.713744 0.146468
H25   H     H_    0.092406 0.784160 0.543101 0.154943
H26   H     H_    0.107999 0.767059 0.370114 0.172169
H27   H     H_    0.096575 0.222406 0.429149 0.168486
H28   H     H_    0.103796 0.228329 0.605496 0.156613
H29   H     H_    0.598147 0.280431 0.565422 0.161768
H30   H     H_    0.602879 0.268898 0.389612 0.166559
H31   H     H_    0.590294 0.717682 0.457459 0.162145
H32   H     H_    0.610985 0.730900 0.630361 0.163344
H33   H     H_    0.887989 0.407682 0.110203 0.152823
H34   H     H_    0.881430 0.417499 0.877936 0.166050
H35   H     H_    0.854352 0.522848 0.885855 0.169092
H36   H     H_    0.852237 0.507032 0.124661 0.168575
H37   H     H_    0.355602 0.971053 0.112349 0.167422
H38   H     H_    0.352755 0.987104 0.873755 0.171902
H39   H     H_    0.383842 0.087836 0.888485 0.151202
H40   H     H_    0.377421 0.077318 0.121552 0.164689
N1    N     N_3   0.998760 0.500000 0.138610 -0.065607
N2    N     N_3   0.998760 0.500000 0.861390 -0.081127
N3    N     N_3   0.498760 1.000000 0.138610 -0.080518
N4    N     N_3   0.498760 0.000000 0.861390 -0.065944
O1    O     O_R   0.092530 0.407440 0.616040 -0.674369
O2    O     O_R   0.092530 0.407440 0.383960 -0.569809
O3    O     O_R   0.092530 0.592560 0.383960 -0.589836
O4    O     O_R   0.092530 0.592560 0.616040 -0.598483
O5    O     O_R   0.592530 0.907440 0.616040 -0.611757
O6    O     O_R   0.592530 0.907440 0.383960 -0.583790
O7    O     O_R   0.592530 0.092560 0.383960 -0.658958
O8    O     O_R   0.592530 0.092560 0.616040 -0.584326
O9    O     O_R   0.907330 0.407420 0.616040 -0.646539
O10   O     O_R   0.907330 0.407420 0.383960 -0.620492
O11   O     O_R   0.907330 0.592580 0.383960 -0.645549
O12   O     O_R   0.907330 0.592580 0.616040 -0.587100
O13   O     O_R   0.407330 0.907420 0.616040 -0.635162
O14   O     O_R   0.407330 0.907420 0.383960 -0.599502
O15   O     O_R   0.407330 0.092580 0.383960 -0.659205
O16   O     O_R   0.407330 0.092580 0.616040 -0.608762
Zn1   Zn    Zn3+2 0.999890 0.500000 0.654960 0.926318
Zn2   Zn    Zn3+2 0.999890 0.500000 0.345040 0.956451
Zn3   Zn    Zn3+2 0.499890 1.000000 0.654960 0.952853
Zn4   Zn    Zn3+2 0.499890 1.000000 0.345040 0.927255
N5    N     N_3   0.274365 0.613110 0.694177 -0.464071
H41   H     H_    0.334904 0.597432 0.647790 0.188893
H42   H     H_    0.291427 0.622949 0.794501 0.167326
N6    N     N_3   0.299534 0.581820 0.383279 -0.441226
H43   H     H_    0.358404 0.575019 0.439656 0.181877
H44   H     H_    0.318383 0.568717 0.284695 0.179778
N7    N     N_3   0.295657 0.398788 0.339470 -0.435355
H45   H     H_    0.351323 0.406115 0.402454 0.218463
H46   H     H_    0.323611 0.396549 0.243642 0.151984
N8    N     N_3   0.304953 0.408417 0.633316 -0.483571
H47   H     H_    0.327799 0.416202 0.731603 0.172581
H48   H     H_    0.258986 0.457623 0.613271 0.213929
N9    N     N_3   0.794923 0.107473 0.672834 -0.462649
H49   H     H_    0.853600 0.101371 0.616972 0.193965
H50   H     H_    0.819003 0.112439 0.770892 0.157845
N10   N     N_3   0.797456 0.085987 0.363315 -0.456395
H51   H     H_    0.858777 0.075855 0.411938 0.187266
H52   H     H_    0.813092 0.078472 0.262124 0.167040
N11   N     N_3   0.776719 0.891416 0.315905 -0.434860
H53   H     H_    0.835219 0.906697 0.368995 0.219171
H54   H     H_    0.796868 0.884350 0.216408 0.159428
N12   N     N_3   0.804838 0.914767 0.611080 -0.471306
H55   H     H_    0.850385 0.919866 0.690784 0.171063
H56   H     H_    0.753801 0.958914 0.631114 0.234438
N13   N     N_3   0.691394 0.413352 0.570212 -0.449862
H57   H     H_    0.683393 0.386336 0.665453 0.162428
H58   H     H_    0.628231 0.439218 0.545766 0.185175
N14   N     N_3   0.711205 0.386650 0.337050 -0.465570
H59   H     H_    0.647713 0.414511 0.321603 0.172766
H60   H     H_    0.717958 0.340267 0.262586 0.164578
N15   N     N_3   0.686965 0.591065 0.423822 -0.473183
H61   H     H_    0.738008 0.546086 0.407670 0.217657
H62   H     H_    0.674632 0.622643 0.332832 0.158512
N16   N     N_3   0.713664 0.605611 0.657722 -0.437557
H63   H     H_    0.722393 0.648466 0.736918 0.152476
H64   H     H_    0.650021 0.577916 0.671343 0.183485
N17   N     N_3   0.189590 0.914001 0.557510 -0.451714
H65   H     H_    0.179472 0.887493 0.652675 0.161181
H66   H     H_    0.127069 0.939606 0.529002 0.182902
N18   N     N_3   0.216785 0.885565 0.326486 -0.462536
H67   H     H_    0.154337 0.914358 0.306293 0.171311
H68   H     H_    0.224735 0.838205 0.253665 0.157573
N19   N     N_3   0.190515 0.093268 0.404739 -0.474461
H69   H     H_    0.240487 0.046475 0.394471 0.221078
H70   H     H_    0.184914 0.126145 0.313432 0.161031
N20   N     N_3   0.205782 0.103676 0.641443 -0.442010
H71   H     H_    0.210651 0.145078 0.723147 0.159568
H72   H     H_    0.141260 0.076699 0.646845 0.183369
N21   N     N_3   0.049555 0.348729 0.147306 -0.412396
H73   H     H_    0.093066 0.302517 0.107207 0.142936
H74   H     H_    0.985420 0.322472 0.143753 0.154148
N22   N     N_3   0.032380 0.343352 0.879415 -0.489988
H75   H     H_    0.011616 0.343414 0.780381 0.250154
H76   H     H_    0.976661 0.320108 0.931342 0.134635
N23   N     N_3   0.962814 0.654034 0.852660 -0.392626
H77   H     H_    0.980802 0.716358 0.882262 0.145618
H78   H     H_    0.895102 0.647962 0.876507 0.156094
N24   N     N_3   0.938425 0.649679 0.112323 -0.501184
H79   H     H_    0.945667 0.678898 0.204818 0.227103
H80   H     H_    0.872279 0.633489 0.089153 0.151137
N25   N     N_3   0.470226 0.844614 0.148311 -0.392012
H81   H     H_    0.490712 0.783076 0.118386 0.146473
H82   H     H_    0.402028 0.847919 0.125693 0.157520
N26   N     N_3   0.444248 0.848315 0.887949 -0.501756
H83   H     H_    0.450780 0.822073 0.793282 0.228648
H84   H     H_    0.377919 0.861693 0.913756 0.151064
N27   N     N_3   0.542023 0.153112 0.852601 -0.408580
H85   H     H_    0.584469 0.200815 0.891193 0.142914
H86   H     H_    0.477254 0.177573 0.859864 0.152198
N28   N     N_3   0.525518 0.157948 0.120597 -0.491824
H87   H     H_    0.508880 0.158248 0.221162 0.251236
H88   H     H_    0.467250 0.178240 0.071395 0.136834
N29   N     N_3   0.157506 0.457513 0.134680 -0.375650
H89   H     H_    0.194181 0.498486 0.074430 0.134938
H90   H     H_    0.197713 0.402785 0.125998 0.154721
N30   N     N_3   0.153860 0.441034 0.872910 -0.515590
H91   H     H_    0.160740 0.472353 0.781816 0.266962
H92   H     H_    0.191782 0.384742 0.883874 0.163454
N31   N     N_3   0.113211 0.615720 0.872851 -0.414690
H93   H     H_    0.166248 0.584571 0.918784 0.149427
H94   H     H_    0.123365 0.680521 0.896987 0.128310
N32   N     N_3   0.092314 0.634616 0.142037 -0.413257
H95   H     H_    0.156786 0.617514 0.116241 0.144689
H96   H     H_    0.089851 0.701160 0.122987 0.134655
N33   N     N_3   0.618619 0.888969 0.127358 -0.415633
H97   H     H_    0.670318 0.922157 0.082074 0.147676
H98   H     H_    0.631523 0.824832 0.101989 0.128116
N34   N     N_3   0.597267 0.868694 0.858701 -0.416569
H99   H     H_    0.661084 0.887961 0.884866 0.140972
H100  H     H_    0.597231 0.802049 0.877237 0.138136
N35   N     N_3   0.655130 0.049205 0.866836 -0.389724
H101  H     H_    0.693067 0.008358 0.925855 0.136470
H102  H     H_    0.692742 0.105204 0.879625 0.154438
N36   N     N_3   0.651209 0.065283 0.127562 -0.514196
H103  H     H_    0.660988 0.032225 0.216833 0.281927
H104  H     H_    0.685604 0.123691 0.119103 0.164450

loop_
_geom_bond_atom_site_label_1
_geom_bond_atom_site_label_2
_ccdc_geom_bond_type
C16   C28   S    
C9    C33   S    
N23   H77   S    
C42   H28   S    
N8    H47   S    
C11   O13   A    
N7    H45   S    
N33   H97   S    
C10   O12   A    
N15   H61   S    
C8    N4    S    
C44   H31   S    
C25   N9    S    
O3    Zn2   S    
C31   N18   S    
N11   H53   S    
C45   C46   S    
N6    H43   S    
C22   N6    S    
N23   H78   S    
N21   H73   S    
C46   N22   S    
O10   Zn2   S    
C32   C36   S    
C47   N31   S    
N18   H67   S    
N15   H62   S    
C38   C42   S    
C51   N27   S    
C19   C36   S    
N5    H42   S    
N19   H69   S    
C41   H25   S    
C5    C6    S    
C51   N35   S    
C26   C39   S    
C30   N16   S    
C28   C40   S    
C9    O9    A    
C14   H10   S    
C4    O7    A    
C29   C33   S    
O16   Zn3   S    
C52   N3    S    
N11   H54   S    
N29   H90   S    
N24   H79   S    
C21   N5    S    
C17   C35   S    
C16   C34   S    
C5    H36   S    
C18   H6    S    
N17   H65   S    
C20   C24   S    
N26   H84   S    
N10   H51   S    
N25   H82   S    
C32   N20   S    
C24   C38   S    
N19   H70   S    
N4    Zn3   S    
C19   H15   S    
O15   Zn4   S    
C12   C36   S    
C18   C35   S    
C27   C40   S    
C15   C34   S    
C13   H1    S    
C51   N4    S    
C32   N19   S    
C5    H33   S    
C5    N1    S    
C3    O5    A    
N22   H76   S    
C2    O4    A    
C42   H27   S    
N21   H74   S    
C15   H3    S    
C29   C43   S    
C11   O14   A    
C52   N36   S    
C47   N23   S    
N33   H98   S    
C30   C44   S    
C10   O11   A    
C52   N28   S    
C14   C33   S    
C27   H23   S    
C31   N17   S    
N2    Zn1   S    
N6    H44   S    
C49   N25   S    
C49   N33   S    
C48   N1    S    
C30   C34   S    
C51   C52   S    
C23   H19   S    
C7    C8    S    
C28   N12   S    
N14   H60   S    
C1    O1    A    
C41   H26   S    
C39   C43   S    
C19   H7    S    
C9    O10   A    
C22   C37   S    
C14   C26   S    
C6    H35   S    
N35   H101  S    
C48   N32   S    
N13   H58   S    
N30   H92   S    
O12   Zn1   S    
C19   C23   S    
N27   H85   S    
C16   H4    S    
O11   Zn2   S    
C13   C33   S    
N16   H64   S    
O8    Zn3   S    
C30   N15   S    
C15   C27   S    
C47   C48   S    
C46   N2    S    
C4    C39   S    
N3    Zn4   S    
C29   N13   S    
C17   C21   S    
C13   H9    S    
C10   C34   S    
C8    H39   S    
C49   N3    S    
N17   H66   S    
N32   H95   S    
N12   H56   S    
C1    C38   S    
C48   N24   S    
C3    O6    A    
C45   N29   S    
N22   H75   S    
C14   H2    S    
N34   H100  S    
C45   N1    S    
C49   C50   S    
N36   H104  S    
O5    Zn3   S    
C31   C35   S    
C20   H8    S    
O1    Zn1   S    
C28   H24   S    
O14   Zn4   S    
C12   O16   A    
C26   N10   S    
N26   H83   S    
C24   H20   S    
N20   H71   S    
O9    Zn1   S    
C24   N8    S    
C15   H11   S    
N8    H48   S    
C31   C41   S    
C18   C22   S    
C20   H16   S    
O4    Zn1   S    
C46   N30   S    
N14   H59   S    
C13   C25   S    
C1    O2    A    
C3    C40   S    
C8    H38   S    
C23   N7    S    
C50   N34   S    
C18   H14   S    
C23   C38   S    
C7    N3    S    
C17   H13   S    
C6    H34   S    
C44   H32   S    
C27   N11   S    
N30   H91   S    
N18   H68   S    
C2    O3    A    
N9    H49   S    
N20   H72   S    
N5    H41   S    
C25   C39   S    
C29   N14   S    
C2    C37   S    
C6    N2    S    
C45   N21   S    
C43   H29   S    
C7    H40   S    
C4    O8    A    
C11   C35   S    
C26   H22   S    
C47   N2    S    
O7    Zn4   S    
C25   H21   S    
N1    Zn2   S    
N36   H103  S    
O6    Zn4   S    
C37   C41   S    
N29   H89   S    
N24   H80   S    
N7    H46   S    
N12   H55   S    
O13   Zn3   S    
N31   H93   S    
C20   C36   S    
C50   N26   S    
C40   C44   S    
C21   C37   S    
N34   H99   S    
N27   H86   S    
N10   H52   S    
N25   H81   S    
C50   N4    S    
C21   H17   S    
N35   H102  S    
C43   H30   S    
C32   C42   S    
N16   H63   S    
N32   H96   S    
C16   H12   S    
O2    Zn2   S    
N31   H94   S    
N28   H87   S    
N13   H57   S    
N28   H88   S    
C22   H18   S    
C12   O15   A    
C17   H5    S    
N9    H50   S    
C7    H37   S    
