data_mof_unit_34033.cif
_audit_creation_date              2012-12-10T21:09:16-0500
_audit_creation_method            fapswitch 2.2
_symmetry_space_group_name_H-M    P1
_symmetry_Int_Tables_number       1
_space_group_crystal_system       triclinic
_cell_length_a                    10.670728
_cell_length_b                    17.417532
_cell_length_c                    16.731527
_cell_angle_alpha                 89.840851
_cell_angle_beta                  104.230925
_cell_angle_gamma                 89.903897
_cell_volume                      3014.23586469

loop_
_atom_site_label
_atom_site_type_symbol
_atom_type_description
_atom_site_fract_x
_atom_site_fract_y
_atom_site_fract_z
_atom_type_partial_charge
C1    C     C_R   0.496190 0.352867 0.499434 0.868455
C2    C     C_R   0.586181 0.542718 0.263662 0.013533
C3    C     C_R   0.591190 0.541046 0.761930 -0.043839
C4    C     C_R   0.410470 0.456357 0.240219 -0.036170
C5    C     C_R   0.594614 0.541891 0.847159 -0.065295
C6    C     C_R   0.403811 0.454634 0.154823 -0.067773
C7    C     C_R   0.501413 0.499150 0.875903 0.097927
C8    C     C_R   0.493306 0.498156 0.123522 0.096064
C9    C     C_1   0.498069 0.497357 0.963308 -0.048273
C10   C     C_1   0.495347 0.497186 0.035947 -0.047416
C11   C     C_R   0.257301 0.496699 0.465509 0.890404
C12   C     C_R   0.498261 0.647259 0.499635 0.875730
C13   C     C_R   0.742657 0.497050 0.534351 0.892614
C14   C     C_2   0.119475 0.481032 0.443937 -0.180535
C15   C     C_2   0.880573 0.482331 0.555040 -0.184934
C16   C     C_2   0.068798 0.452435 0.503631 -0.209764
C17   C     C_2   0.930874 0.452876 0.495696 -0.212752
C18   C     C_R   0.455389 0.848529 0.567709 0.027584
C19   C     C_R   0.396933 0.158137 0.411420 0.031298
C20   C     C_R   0.480268 0.769882 0.569885 -0.249550
C21   C     C_R   0.430128 0.235701 0.417562 -0.250708
C22   C     C_R   0.481882 0.730245 0.497293 -0.058776
C23   C     C_R   0.429980 0.886737 0.491056 0.109823
C24   C     C_R   0.470987 0.270813 0.494988 -0.049350
C25   C     C_R   0.458674 0.769513 0.421863 -0.211700
C26   C     C_R   0.476488 0.228629 0.567017 -0.214364
C27   C     C_R   0.432468 0.847549 0.418857 -0.183936
C28   C     C_R   0.444974 0.151409 0.561815 -0.184562
C29   C     C_R   0.698630 0.585046 0.904491 0.113189
C30   C     C_R   0.828752 0.571139 0.905311 -0.168890
C31   C     C_R   0.927470 0.610412 0.960361 -0.133753
C32   C     C_R   0.897250 0.664030 0.014717 -0.124238
C33   C     C_R   0.768184 0.678767 0.013861 -0.162506
C34   C     C_R   0.406822 0.116146 0.484801 0.106807
C35   C     C_R   0.669105 0.639800 0.958753 -0.134384
C36   C     C_R   0.300372 0.408962 0.100705 0.121205
C37   C     C_R   0.289178 0.330124 0.115645 -0.163964
C38   C     C_R   0.186771 0.287867 0.067662 -0.130326
C39   C     C_R   0.094021 0.324178 0.005330 -0.120878
C40   C     C_R   0.103749 0.402730 0.990764 -0.157727
C41   C     C_R   0.206922 0.445004 0.037852 -0.132055
C42   C     C_R   0.957868 0.498135 0.639775 0.156642
C43   C     C_R   0.975884 0.573841 0.668760 -0.141164
C44   C     C_R   0.045783 0.588190 0.749652 -0.136666
C45   C     C_1   0.408923 0.966975 0.485800 -0.057989
C46   C     C_R   0.096136 0.527067 0.802130 -0.119557
C47   C     C_R   0.075835 0.451531 0.773975 -0.175492
C48   C     C_R   0.007605 0.437008 0.692964 -0.160348
C49   C     C_R   0.043711 0.494460 0.357659 0.148058
C50   C     C_R   0.042323 0.567436 0.321472 -0.129144
C51   C     C_R   0.978706 0.578917 0.238631 -0.159574
C52   C     C_R   0.917270 0.517569 0.191173 -0.112078
C53   C     C_R   0.918498 0.444760 0.226605 -0.123364
C54   C     C_R   0.981967 0.433028 0.309397 -0.166903
C55   C     C_R   0.456623 0.888841 0.645920 0.115611
C56   C     C_1   0.401491 0.035046 0.483869 -0.063198
C57   C     C_R   0.541051 0.950632 0.672485 -0.148724
C58   C     C_R   0.542413 0.987845 0.746626 -0.154839
C59   C     C_R   0.460481 0.963332 0.795105 -0.108553
C60   C     C_R   0.377297 0.901399 0.769638 -0.134821
C61   C     C_R   0.375468 0.864090 0.695469 -0.159837
C62   C     C_R   0.353519 0.122812 0.328356 0.116227
C63   C     C_R   0.240528 0.078085 0.308063 -0.144201
C64   C     C_R   0.198347 0.046585 0.229262 -0.144508
C65   C     C_R   0.267794 0.059840 0.169862 -0.125075
C66   C     C_R   0.379640 0.104583 0.189151 -0.148725
C67   C     C_R   0.411234 0.456085 0.818392 -0.280150
C68   C     C_R   0.422451 0.136000 0.267932 -0.168943
C69   C     C_R   0.584320 0.542559 0.179285 -0.287709
C70   C     C_R   0.411481 0.457544 0.734392 0.026324
H1    H     H_    0.868792 0.439122 0.435723 0.189696
H2    H     H_    0.653566 0.577183 0.157637 0.152375
H3    H     H_    0.341037 0.424068 0.690865 0.124559
H4    H     H_    0.656741 0.577220 0.305936 0.134357
H5    H     H_    0.661684 0.573520 0.739141 0.135581
H6    H     H_    0.342202 0.423572 0.264772 0.137178
H7    H     H_    0.853693 0.529196 0.864078 0.136951
H8    H     H_    0.027447 0.599150 0.961074 0.116969
H9    H     H_    0.973830 0.694184 0.057461 0.119136
H10   H     H_    0.744875 0.720457 0.055868 0.125670
H11   H     H_    0.569543 0.652459 0.958307 0.126164
H12   H     H_    0.130324 0.439828 0.564298 0.183588
H13   H     H_    0.359457 0.301531 0.164511 0.123580
H14   H     H_    0.178731 0.227126 0.079270 0.137699
H15   H     H_    0.014172 0.291569 0.968683 0.122409
H16   H     H_    0.030702 0.430966 0.943427 0.131584
H17   H     H_    0.212408 0.506027 0.026681 0.113974
H18   H     H_    0.936338 0.621494 0.628694 0.113897
H19   H     H_    0.060455 0.646620 0.771767 0.127790
H20   H     H_    0.150363 0.538171 0.864655 0.121359
H21   H     H_    0.113024 0.404075 0.814791 0.132935
H22   H     H_    0.992398 0.378245 0.671841 0.128123
H23   H     H_    0.498741 0.739774 0.628443 0.161985
H24   H     H_    0.091064 0.615211 0.357302 0.116689
H25   H     H_    0.977780 0.635269 0.211082 0.126945
H26   H     H_    0.868741 0.526400 0.126948 0.149776
H27   H     H_    0.871211 0.397256 0.189709 0.135367
H28   H     H_    0.984629 0.375943 0.335608 0.130267
H29   H     H_    0.606269 0.969685 0.636104 0.130397
H30   H     H_    0.607259 0.035579 0.766590 0.124756
H31   H     H_    0.461733 0.992168 0.852512 0.117961
H32   H     H_    0.314181 0.882294 0.807370 0.123016
H33   H     H_    0.310294 0.816276 0.676389 0.127327
H34   H     H_    0.421210 0.269063 0.361635 0.152779
H35   H     H_    0.184161 0.068373 0.352832 0.127428
H36   H     H_    0.111308 0.012253 0.214102 0.125315
H37   H     H_    0.234731 0.035630 0.108811 0.118999
H38   H     H_    0.433149 0.115020 0.143008 0.126516
H39   H     H_    0.509638 0.170305 0.281854 0.124498
H40   H     H_    0.458677 0.739814 0.365068 0.158368
H41   H     H_    0.506262 0.255068 0.627227 0.155392
H42   H     H_    0.414456 0.877477 0.360204 0.147401
H43   H     H_    0.454327 0.118527 0.618090 0.148028
H44   H     H_    0.341605 0.420823 0.838673 0.149296
N1    N     N_R   0.500030 0.500030 0.707240 -0.092346
N2    N     N_R   0.499970 0.499970 0.292760 -0.094044
O1    O     O_R   0.500000 0.389130 0.566570 -0.621393
O2    O     O_R   0.500000 0.610870 0.433430 -0.618196
O3    O     O_R   0.499990 0.389100 0.433480 -0.623427
O4    O     O_R   0.500010 0.610900 0.566520 -0.615204
O5    O     O_R   0.317810 0.500010 0.541690 -0.616211
O6    O     O_R   0.682190 0.499990 0.458310 -0.617756
O7    O     O_R   0.317800 0.499990 0.408610 -0.608580
O8    O     O_R   0.682200 0.500010 0.591390 -0.608306
Zn1   Zn    Zn3+2 0.500010 0.500020 0.588860 0.938803
Zn2   Zn    Zn3+2 0.499990 0.499980 0.411140 0.935058

loop_
_geom_bond_atom_site_label_1
_geom_bond_atom_site_label_2
_ccdc_geom_bond_type
C66   C68   A    
C20   H23   S    
C34   C56   S    
C23   C45   S    
C35   H11   S    
C53   C54   A    
C8    C69   A    
C37   C38   A    
C43   H18   S    
C36   C37   A    
C61   H33   S    
C67   H44   S    
C24   C26   A    
C30   C31   A    
C11   C14   S    
C14   C49   S    
C19   C62   S    
C49   C54   A    
C57   H29   S    
C12   C22   S    
C15   C17   D    
C1    O3    A    
C40   H16   S    
C12   O4    A    
C21   H34   S    
C2    N2    A    
C47   C48   A    
C45   C56   T    
C16   C17   S    
C22   C25   A    
C23   C27   A    
C63   H35   S    
C2    C69   A    
C3    H5    S    
C9    C10   T    
C2    H4    S    
C28   C34   A    
C59   C60   A    
N2    Zn2   S    
C30   H7    S    
C36   C41   A    
C11   O5    A    
C60   H32   S    
C44   C46   A    
C5    C29   S    
C41   H17   S    
C18   C23   A    
C59   H31   S    
C58   H30   S    
C4    C6    A    
C39   C40   A    
C5    C7    A    
C13   O8    A    
O4    Zn1   S    
C50   H24   S    
O7    Zn2   S    
C1    O1    A    
C53   H27   S    
C58   C59   A    
C7    C67   A    
C51   C52   A    
C60   C61   A    
O6    Zn2   S    
C69   H2    S    
C43   C44   A    
O5    Zn1   S    
C62   C63   A    
C31   C32   A    
C70   H3    S    
C16   H12   S    
C50   C51   A    
C42   C48   A    
C25   H40   S    
C12   O2    A    
C18   C55   S    
C40   C41   A    
C20   C22   A    
C27   H42   S    
C17   H1    S    
C55   C57   A    
C14   C16   D    
C42   C43   A    
C39   H15   S    
C52   C53   A    
C31   H8    S    
C7    C9    S    
C46   C47   A    
C38   H14   S    
C47   H21   S    
C4    N2    A    
C11   O7    A    
C15   C42   S    
C66   H38   S    
C3    C5    A    
C19   C34   A    
C6    C8    A    
C33   H10   S    
C64   H36   S    
C46   H20   S    
C70   N1    A    
C25   C27   A    
C29   C35   A    
C26   C28   A    
N1    Zn1   S    
C62   C68   A    
C67   C70   A    
C64   C65   A    
C13   C15   S    
C37   H13   S    
C3    N1    A    
C32   C33   A    
C32   H9    S    
C13   O6    A    
C57   C58   A    
C38   C39   A    
C55   C61   A    
C33   C35   A    
C6    C36   S    
C52   H26   S    
C18   C20   A    
C68   H39   S    
C65   C66   A    
C4    H6    S    
C28   H43   S    
C29   C30   A    
C63   C64   A    
O3    Zn2   S    
C1    C24   S    
C8    C10   S    
C49   C50   A    
C48   H22   S    
C21   C24   A    
C54   H28   S    
O2    Zn2   S    
O1    Zn1   S    
C26   H41   S    
C65   H37   S    
C44   H19   S    
C51   H25   S    
O8    Zn1   S    
C19   C21   A    
