data_mof_unit_63347.cif
_audit_creation_date              2012-12-10T18:00:53-0500
_audit_creation_method            fapswitch 2.2
_symmetry_space_group_name_H-M    P1
_symmetry_Int_Tables_number       1
_space_group_crystal_system       triclinic
_cell_length_a                    30.712777
_cell_length_b                    30.79359
_cell_length_c                    24.658935
_cell_angle_alpha                 90.040891
_cell_angle_beta                  128.006084
_cell_angle_gamma                 90.023694
_cell_volume                      18375.9360477

loop_
_atom_site_label
_atom_site_type_symbol
_atom_type_description
_atom_site_fract_x
_atom_site_fract_y
_atom_site_fract_z
_atom_type_partial_charge
C1    C     C_R   0.808981 0.809357 0.499518 0.806724
C2    C     C_R   0.190381 0.809476 0.499348 0.807444
C3    C     C_R   0.309451 0.309253 0.500129 0.801199
C4    C     C_R   0.690708 0.309318 0.499976 0.807009
C5    C     C_R   0.645714 0.748802 0.291150 -0.036649
C6    C     C_R   0.354371 0.748881 0.708855 -0.034830
C7    C     C_R   0.145687 0.248845 0.291160 -0.033900
C8    C     C_R   0.854298 0.248950 0.708844 -0.033422
C9    C     C_R   0.465270 0.747410 0.930179 0.457882
C10   C     C_R   0.535111 0.747374 0.069802 0.459198
C11   C     C_R   0.965051 0.247629 0.930184 0.457160
C12   C     C_R   0.034952 0.247549 0.069810 0.458440
C13   C     C_R   0.895755 0.849675 0.555768 0.086839
C14   C     C_R   0.135555 0.837513 0.534084 0.086318
C15   C     C_R   0.398093 0.337335 0.533775 0.119534
C16   C     C_R   0.650339 0.344536 0.549501 0.078563
C17   C     C_R   0.840983 0.843465 0.499143 -0.117815
C18   C     C_R   0.158761 0.843682 0.500994 -0.126184
C19   C     C_R   0.341324 0.342093 0.496763 -0.120374
C20   C     C_R   0.658037 0.343144 0.499630 -0.109041
C21   C     C_R   0.814311 0.875723 0.448326 -0.169404
C22   C     C_R   0.155541 0.885264 0.474851 -0.153529
C23   C     C_R   0.315041 0.378494 0.454466 -0.164643
C24   C     C_R   0.639288 0.377970 0.453605 -0.168424
C25   C     C_R   0.844656 0.910142 0.448427 -0.047885
C26   C     C_R   0.123370 0.918296 0.474169 -0.045814
C27   C     C_R   0.346062 0.412030 0.454201 -0.043214
C28   C     C_R   0.606922 0.411241 0.451803 -0.035370
C29   C     C_R   0.902905 0.911601 0.501239 -0.217283
C30   C     C_R   0.094197 0.908829 0.500220 -0.109306
C31   C     C_R   0.404744 0.408961 0.499055 -0.185355
C32   C     C_R   0.594762 0.409513 0.498954 -0.108985
C33   C     C_R   0.926089 0.883286 0.557140 0.222372
C34   C     C_R   0.103511 0.869093 0.532941 0.122859
C35   C     C_R   0.429346 0.370743 0.536593 0.069617
C36   C     C_R   0.618537 0.376511 0.548242 0.149762
C37   C     C_3   0.977059 0.855849 0.593199 -0.224655
C38   C     C_3   0.066571 0.836002 0.530986 -0.240484
C39   C     C_3   0.475432 0.362877 0.611478 -0.199279
C40   C     C_3   0.595740 0.345895 0.572762 -0.221304
C41   C     C_3   0.943233 0.818894 0.591519 -0.552164
C42   C     C_3   0.102587 0.801189 0.532288 -0.480975
C43   C     C_3   0.441011 0.325535 0.607595 -0.555614
C44   C     C_3   0.631700 0.310749 0.574521 -0.513088
C45   C     C_R   0.683731 0.749802 0.367345 0.786724
C46   C     C_R   0.316263 0.749864 0.632665 0.763427
C47   C     C_R   0.183734 0.249817 0.367346 0.764968
C48   C     C_R   0.816267 0.249859 0.632661 0.763656
C49   C     C_R   0.827235 0.742002 0.742795 -0.024014
C50   C     C_R   0.166847 0.762718 0.252763 -0.037751
C51   C     C_R   0.325318 0.247517 0.742613 -0.020487
C52   C     C_R   0.665498 0.263257 0.251913 -0.050972
C53   C     C_R   0.862700 0.741281 0.816092 -0.028233
C54   C     C_R   0.129112 0.763621 0.179591 -0.029674
C55   C     C_R   0.360533 0.245856 0.815898 -0.026467
C56   C     C_R   0.627474 0.263137 0.178713 -0.030711
C57   C     C_R   0.920756 0.744659 0.853323 -0.044635
C58   C     C_R   0.073743 0.749898 0.145155 0.005844
C59   C     C_R   0.418677 0.242729 0.853448 -0.044334
C60   C     C_R   0.572614 0.248434 0.145173 0.006572
C61   C     C_R   0.942340 0.748383 0.817281 -0.119649
C62   C     C_R   0.056537 0.736525 0.183475 -0.165234
C63   C     C_R   0.440483 0.240493 0.817532 -0.120673
C64   C     C_R   0.556186 0.234791 0.184164 -0.165798
C65   C     C_R   0.907679 0.749615 0.745782 -0.168910
C66   C     C_R   0.093327 0.735600 0.254993 -0.157939
C67   C     C_R   0.406250 0.242126 0.746116 -0.172205
C68   C     C_R   0.593364 0.234450 0.255631 -0.152963
C69   C     C_R   0.850407 0.747054 0.708136 -0.102962
C70   C     C_R   0.148410 0.748677 0.290696 -0.074436
C71   C     C_R   0.349071 0.246236 0.708147 -0.084096
C72   C     C_R   0.647996 0.248615 0.290634 -0.085300
C73   C     C_R   0.033477 0.747585 0.069313 0.460351
C74   C     C_R   0.960018 0.744853 0.929749 0.394236
C75   C     C_R   0.531967 0.245661 0.069546 0.462287
C76   C     C_R   0.457967 0.242663 0.930028 0.397022
C77   C     C_R   0.662566 0.615161 0.492759 0.078433
C78   C     C_R   0.324542 0.635876 0.442344 0.091837
C79   C     C_R   0.179176 0.128119 0.550363 0.075376
C80   C     C_R   0.821437 0.126470 0.453486 0.077780
C81   C     C_R   0.660081 0.658181 0.507938 -0.185332
C82   C     C_R   0.344470 0.658324 0.502663 -0.186551
C83   C     C_R   0.155057 0.157804 0.496216 -0.211394
C84   C     C_R   0.844788 0.158066 0.504269 -0.150879
C85   C     C_R   0.623393 0.667873 0.524062 -0.044748
C86   C     C_R   0.400310 0.652692 0.561312 -0.045247
C87   C     C_R   0.096715 0.158191 0.445521 -0.036469
C88   C     C_R   0.903101 0.157339 0.556485 -0.051126
C89   C     C_R   0.692049 0.690827 0.503402 0.779484
C90   C     C_R   0.309665 0.690803 0.500650 0.795994
C91   C     C_R   0.189787 0.190690 0.498277 0.789851
C92   C     C_R   0.809984 0.190814 0.501400 0.810702
C93   C     C_R   0.589883 0.634337 0.519798 -0.170226
C94   C     C_R   0.432096 0.620544 0.559549 -0.142144
C95   C     C_R   0.065291 0.126050 0.447961 -0.160054
C96   C     C_R   0.934479 0.124573 0.554429 -0.136879
C97   C     C_R   0.592377 0.592149 0.500624 -0.084139
C98   C     C_R   0.409124 0.594933 0.500351 -0.133552
C99   C     C_R   0.091083 0.094656 0.500301 -0.155417
C100  C     C_R   0.908694 0.093281 0.501323 -0.112798
C101  C     C_R   0.629856 0.583824 0.488556 0.101991
C102  C     C_R   0.356510 0.605232 0.440916 0.010213
C103  C     C_R   0.147547 0.098040 0.553616 0.181939
C104  C     C_R   0.851963 0.095945 0.451451 -0.020930
C105  C     C_3   0.650548 0.549257 0.467031 -0.376293
C106  C     C_3   0.307890 0.576756 0.391457 -0.329640
C107  C     C_3   0.191349 0.063686 0.584411 -0.383717
C108  C     C_3   0.802806 0.073277 0.390302 -0.334777
C109  C     C_3   0.688256 0.585313 0.471411 -0.112896
C110  C     C_3   0.271823 0.610914 0.392663 -0.128175
C111  C     C_3   0.226508 0.096774 0.579515 -0.140909
C112  C     C_3   0.767467 0.108850 0.391888 -0.108149
C113  C     C_R   0.440563 0.559698 0.500133 0.774032
C114  C     C_R   0.560226 0.558321 0.499944 0.823800
C115  C     C_R   0.940529 0.059362 0.500209 0.783238
C116  C     C_R   0.059321 0.059716 0.499965 0.782322
C117  C     C_R   0.939131 0.941828 0.500186 0.775328
C118  C     C_R   0.059327 0.940569 0.499859 0.789746
C119  C     C_R   0.439431 0.441618 0.500065 0.787452
C120  C     C_R   0.560176 0.441391 0.499604 0.845203
C121  C     C_R   0.815360 0.749368 0.632362 0.760836
C122  C     C_R   0.184830 0.749206 0.367266 0.802912
C123  C     C_R   0.314851 0.248957 0.632371 0.780766
C124  C     C_R   0.684741 0.249250 0.367240 0.812192
C125  C     C_R   0.600329 0.776981 0.253570 -0.154455
C126  C     C_R   0.401993 0.774851 0.746359 -0.150946
C127  C     C_R   0.099122 0.275867 0.253704 -0.151051
C128  C     C_R   0.901487 0.275392 0.746368 -0.154363
C129  C     C_R   0.564435 0.775538 0.181767 -0.171451
C130  C     C_R   0.437969 0.773357 0.818161 -0.165922
C131  C     C_R   0.063211 0.274458 0.181903 -0.164638
C132  C     C_R   0.937392 0.273978 0.818171 -0.166354
C133  C     C_R   0.572905 0.745889 0.145773 0.039730
C134  C     C_R   0.427306 0.745885 0.854210 0.039054
C135  C     C_R   0.072832 0.245985 0.145783 0.038980
C136  C     C_R   0.927119 0.246091 0.854207 0.038834
C137  C     C_R   0.617787 0.716334 0.183330 -0.003764
C138  C     C_R   0.380080 0.718506 0.816717 0.005694
C139  C     C_R   0.118925 0.217543 0.183228 0.001469
C140  C     C_R   0.880344 0.218247 0.816683 0.003925
C141  C     C_R   0.654134 0.718809 0.255451 -0.241640
C142  C     C_R   0.343774 0.721023 0.744618 -0.255809
C143  C     C_R   0.155263 0.220015 0.255342 -0.246278
C144  C     C_R   0.844054 0.220721 0.744585 -0.256235
Cu1   Cu    Cu3+1 0.780910 0.719090 0.500000 1.035307
Cu2   Cu    Cu3+1 0.219090 0.719090 0.500000 1.006693
Cu3   Cu    Cu3+1 0.280910 0.219090 0.500000 1.030073
Cu4   Cu    Cu3+1 0.719090 0.219090 0.500000 1.008069
Cu5   Cu    Cu3+1 0.719070 0.780890 0.500010 1.001680
Cu6   Cu    Cu3+1 0.280930 0.780890 0.499990 1.016294
Cu7   Cu    Cu3+1 0.219070 0.280890 0.500010 1.005799
Cu8   Cu    Cu3+1 0.780930 0.280890 0.499990 1.009896
Cu9   Cu    Cu3+1 0.465760 0.500000 0.431570 1.039575
Cu10  Cu    Cu3+1 0.534240 0.500000 0.568430 1.061904
Cu11  Cu    Cu3+1 0.965760 0.000000 0.431570 1.052907
Cu12  Cu    Cu3+1 0.034240 0.000000 0.568430 1.066388
H1    H     H_    0.688399 0.696235 0.283958 0.168153
H2    H     H_    0.307658 0.700177 0.716180 0.152243
H3    H     H_    0.190503 0.198345 0.283745 0.156461
H4    H     H_    0.808284 0.199518 0.716131 0.152673
N1    N     N_R   0.555091 0.746665 0.033660 -0.182225
N2    N     N_R   0.520805 0.746688 0.965108 -0.197619
N3    N     N_R   0.054899 0.247986 0.033627 -0.183310
N4    N     N_R   0.020587 0.248020 0.965081 -0.200169
N5    N     N_R   0.445365 0.749782 0.966326 -0.192341
N6    N     N_R   0.479648 0.749774 0.034871 -0.209453
N7    N     N_R   0.945129 0.248908 0.966372 -0.188459
N8    N     N_R   0.979440 0.248867 0.034917 -0.204472
N9    N     N_R   0.011539 0.728035 0.963480 -0.213227
N10   N     N_R   0.981894 0.764087 0.035803 -0.201605
N11   N     N_R   0.508441 0.223779 0.963786 -0.213053
N12   N     N_R   0.481478 0.264221 0.036133 -0.196018
N13   N     N_R   0.047476 0.729222 0.031902 -0.205882
N14   N     N_R   0.946003 0.762936 0.967363 -0.200402
N15   N     N_R   0.544679 0.225155 0.032184 -0.206632
N16   N     N_R   0.445374 0.262962 0.967732 -0.200550
O1    O     O_R   0.821190 0.768980 0.500000 -0.584775
O2    O     O_R   0.178810 0.768980 0.500000 -0.584947
O3    O     O_R   0.321190 0.268980 0.500000 -0.576389
O4    O     O_R   0.678810 0.268980 0.500000 -0.583032
O5    O     O_R   0.483700 0.545120 0.557760 -0.589780
O6    O     O_R   0.516300 0.545120 0.442240 -0.604615
O7    O     O_R   0.983700 0.045120 0.557760 -0.578090
O8    O     O_R   0.016300 0.045120 0.442240 -0.596826
O9    O     O_R   0.925990 0.954920 0.442210 -0.575932
O10   O     O_R   0.074010 0.954920 0.557790 -0.596074
O11   O     O_R   0.425990 0.454920 0.442210 -0.565721
O12   O     O_R   0.574010 0.454920 0.557790 -0.563615
O13   O     O_R   0.983760 0.954940 0.557800 -0.543537
O14   O     O_R   0.016240 0.954940 0.442200 -0.543709
O15   O     O_R   0.483760 0.454940 0.557800 -0.569634
O16   O     O_R   0.516240 0.454940 0.442200 -0.581943
O17   O     O_R   0.768960 0.821170 0.500020 -0.576095
O18   O     O_R   0.231040 0.821170 0.499980 -0.581209
O19   O     O_R   0.268960 0.321170 0.500020 -0.579966
O20   O     O_R   0.731040 0.321170 0.499980 -0.579428
O21   O     O_R   0.726180 0.723900 0.400140 -0.570685
O22   O     O_R   0.273820 0.723900 0.599860 -0.588982
O23   O     O_R   0.226180 0.223900 0.400140 -0.583137
O24   O     O_R   0.773820 0.223900 0.599860 -0.589258
O25   O     O_R   0.673950 0.776090 0.400160 -0.585496
O26   O     O_R   0.326050 0.776090 0.599840 -0.588348
O27   O     O_R   0.173950 0.276090 0.400160 -0.591961
O28   O     O_R   0.826050 0.276090 0.599840 -0.592253
O29   O     O_R   0.731010 0.678810 0.499990 -0.527580
O30   O     O_R   0.268990 0.678810 0.500010 -0.567614
O31   O     O_R   0.231010 0.178810 0.499990 -0.550754
O32   O     O_R   0.768990 0.178810 0.500010 -0.570758
O33   O     O_R   0.678790 0.731000 0.500010 -0.617640
O34   O     O_R   0.321210 0.731000 0.499990 -0.577979
O35   O     O_R   0.178790 0.231000 0.500010 -0.590927
O36   O     O_R   0.821210 0.231000 0.499990 -0.582894
O37   O     O_R   0.826030 0.723890 0.599860 -0.564950
O38   O     O_R   0.173970 0.723890 0.400140 -0.562367
O39   O     O_R   0.326030 0.223890 0.599860 -0.554558
O40   O     O_R   0.673970 0.223890 0.400140 -0.561033
O41   O     O_R   0.773800 0.776080 0.599870 -0.576828
O42   O     O_R   0.226200 0.776080 0.400130 -0.587696
O43   O     O_R   0.273800 0.276080 0.599870 -0.588895
O44   O     O_R   0.726200 0.276080 0.400130 -0.587152
O45   O     O_R   0.425940 0.545090 0.442170 -0.577399
O46   O     O_R   0.574060 0.545090 0.557830 -0.550747
O47   O     O_R   0.925940 0.045090 0.442170 -0.581486
O48   O     O_R   0.074060 0.045090 0.557830 -0.540002
H5    H     H_    0.592645 0.800377 0.279595 0.166611
H6    H     H_    0.411445 0.796491 0.720272 0.167395
H7    H     H_    0.090488 0.298308 0.279826 0.168262
H8    H     H_    0.910642 0.297349 0.720298 0.167283
H9    H     H_    0.955632 0.809178 0.642736 0.198840
H10   H     H_    0.081633 0.781422 0.484471 0.213561
H11   H     H_    0.426307 0.329918 0.638753 0.187786
H12   H     H_    0.608547 0.283938 0.536685 0.216827
C145  C     C_2   0.767140 0.732402 0.701258 0.415539
H13   H     H_    0.747272 0.712949 0.654952 0.013812
O49   O     O_2   0.739024 0.746852 0.716555 -0.466787
C146  C     C_2   0.225458 0.775902 0.289399 0.390242
H14   H     H_    0.258618 0.757010 0.332618 0.140036
O50   O     O_2   0.237166 0.808705 0.273051 -0.521405
C147  C     C_2   0.263921 0.246250 0.701028 0.454709
H15   H     H_    0.239298 0.228722 0.652567 0.099371
O51   O     O_2   0.239940 0.265646 0.718763 -0.468104
C148  C     C_2   0.723219 0.278543 0.287592 0.384027
H16   H     H_    0.757628 0.260761 0.331185 0.148948
O52   O     O_2   0.732765 0.311904 0.269853 -0.517589
C149  C     C_2   0.840565 0.732569 0.854094 0.476865
H17   H     H_    0.855822 0.704968 0.888651 0.049256
O53   O     O_2   0.808133 0.757591 0.850632 -0.434372
C150  C     C_2   0.147988 0.778775 0.139827 0.472958
H18   H     H_    0.188681 0.769972 0.156222 0.096330
O54   O     O_2   0.119023 0.802374 0.089816 -0.495240
C151  C     C_2   0.337094 0.242901 0.853291 0.486636
H19   H     H_    0.345058 0.214295 0.883842 0.054090
O55   O     O_2   0.311969 0.273381 0.853819 -0.437975
C152  C     C_2   0.645581 0.278094 0.137987 0.473141
H20   H     H_    0.686879 0.270714 0.155252 0.097136
O56   O     O_2   0.615252 0.299918 0.086083 -0.493587
H21   H     H_    0.986486 0.751131 0.844697 0.168287
H22   H     H_    0.014358 0.725920 0.157713 0.162472
H23   H     H_    0.484658 0.238242 0.844946 0.170555
H24   H     H_    0.514347 0.223487 0.158963 0.161243
H25   H     H_    0.925680 0.753188 0.719590 0.144728
H26   H     H_    0.078222 0.725140 0.282641 0.167459
H27   H     H_    0.424734 0.240979 0.720285 0.151326
H28   H     H_    0.578857 0.223582 0.283780 0.171042
C153  C     C_2   0.619858 0.711218 0.547802 0.453113
H29   H     H_    0.653583 0.734170 0.571730 0.112147
O57   O     O_2   0.578880 0.721624 0.542203 -0.511468
C154  C     C_2   0.424746 0.678091 0.625405 0.420696
H30   H     H_    0.399918 0.701078 0.629036 0.055611
O58   O     O_2   0.473159 0.673597 0.675309 -0.507030
C155  C     C_2   0.068583 0.189446 0.387263 0.420837
H31   H     H_    0.092274 0.210795 0.379329 0.067686
O59   O     O_2   0.018226 0.191544 0.346780 -0.518534
C156  C     C_2   0.931302 0.188825 0.614512 0.412746
H32   H     H_    0.907659 0.211295 0.620994 0.066955
O60   O     O_2   0.981637 0.189852 0.656441 -0.506697
H33   H     H_    0.562220 0.640860 0.532220 0.181379
H34   H     H_    0.474137 0.614598 0.604915 0.206809
H35   H     H_    0.020951 0.124610 0.408024 0.203488
H36   H     H_    0.978841 0.123310 0.594221 0.203656
C157  C     C_2   0.680162 0.512583 0.518257 0.371329
H37   H     H_    0.703195 0.489211 0.512007 0.084602
O61   O     O_2   0.678255 0.508422 0.566014 -0.518885
C158  C     C_2   0.299356 0.571715 0.324700 0.462787
H38   H     H_    0.301505 0.599757 0.299748 0.085093
O62   O     O_2   0.290237 0.535945 0.298349 -0.506401
C159  C     C_2   0.213583 0.050543 0.656324 0.440015
H39   H     H_    0.249010 0.029055 0.685519 0.054508
O63   O     O_2   0.192411 0.063380 0.682105 -0.487237
C160  C     C_2   0.803300 0.074150 0.329611 0.464793
H40   H     H_    0.813544 0.103814 0.315888 0.093501
O64   O     O_2   0.792444 0.041353 0.295602 -0.507758
H41   H     H_    0.617679 0.537671 0.413868 0.146631
H42   H     H_    0.310267 0.545338 0.415191 0.159749
H43   H     H_    0.177687 0.035028 0.549887 0.117561
H44   H     H_    0.797416 0.040210 0.403467 0.160409
C161  C     C_2   0.749881 0.578452 0.526440 0.523203
H45   H     H_    0.771002 0.554238 0.518301 0.064477
O65   O     O_2   0.776158 0.599299 0.579971 -0.527124
C162  C     C_2   0.230655 0.634408 0.325303 0.424171
H46   H     H_    0.195002 0.616987 0.282428 0.110298
O66   O     O_2   0.236856 0.672573 0.318263 -0.609856
C163  C     C_2   0.279375 0.111431 0.647594 0.497087
H47   H     H_    0.312585 0.088285 0.679120 0.071523
O67   O     O_2   0.285568 0.148881 0.667421 -0.588863
C164  C     C_2   0.736496 0.139363 0.330761 0.415369
H48   H     H_    0.700481 0.127619 0.281378 0.105320
O68   O     O_2   0.751424 0.176874 0.335883 -0.607711
H49   H     H_    0.530271 0.798218 0.154070 0.158603
H50   H     H_    0.473945 0.794332 0.845817 0.160378
H51   H     H_    0.028110 0.296265 0.154311 0.160434
H52   H     H_    0.973017 0.295319 0.845832 0.161089
C165  C     C_2   0.672169 0.597643 0.401878 0.351434
H53   H     H_    0.629116 0.603894 0.359239 0.088606
O69   O     O_2   0.706768 0.600940 0.392583 -0.526255
C166  C     C_2   0.246726 0.593668 0.425374 0.405099
H54   H     H_    0.272762 0.577172 0.474678 0.076037
O70   O     O_2   0.197560 0.597992 0.397471 -0.518193
C167  C     C_2   0.234762 0.083000 0.527443 0.390874
H55   H     H_    0.199314 0.073454 0.475984 0.104370
O71   O     O_2   0.280673 0.082345 0.542091 -0.517862
C168  C     C_2   0.732654 0.091133 0.410995 0.389476
H56   H     H_    0.750967 0.069160 0.454390 0.078263
O72   O     O_2   0.684103 0.101196 0.378696 -0.522392
C169  C     C_2   0.627229 0.680927 0.150754 0.412510
H57   H     H_    0.668026 0.666586 0.178395 0.077988
O73   O     O_2   0.589556 0.665803 0.094870 -0.476876
C170  C     C_2   0.367945 0.685264 0.849342 0.399244
H58   H     H_    0.326061 0.673150 0.821840 0.065562
O74   O     O_2   0.404443 0.669381 0.905106 -0.478255
C171  C     C_2   0.129724 0.183242 0.150540 0.408079
H59   H     H_    0.171155 0.170217 0.177907 0.073479
O75   O     O_2   0.092553 0.167507 0.094913 -0.476756
C172  C     C_2   0.868727 0.184543 0.849263 0.401269
H60   H     H_    0.826982 0.172139 0.821877 0.067317
O76   O     O_2   0.905524 0.168592 0.904812 -0.477386
H61   H     H_    0.770102 0.873367 0.407888 0.187197
H62   H     H_    0.176506 0.891464 0.452881 0.208317
H63   H     H_    0.270461 0.381107 0.423045 0.195766
H64   H     H_    0.648401 0.378259 0.417546 0.197670
C173  C     C_2   0.814644 0.943979 0.394243 0.428184
H65   H     H_    0.834469 0.974359 0.399146 0.100813
O77   O     O_2   0.766657 0.938629 0.343603 -0.508119
C174  C     C_2   0.120451 0.961819 0.446042 0.376246
H66   H     H_    0.097065 0.987882 0.446680 0.057801
O78   O     O_2   0.144645 0.969301 0.422151 -0.524416
C175  C     C_2   0.316690 0.450816 0.410569 0.411244
H67   H     H_    0.339480 0.478696 0.413738 0.092634
O79   O     O_2   0.266273 0.452194 0.370415 -0.508889
C176  C     C_2   0.586355 0.446590 0.400314 0.372116
H68   H     H_    0.566535 0.475060 0.401817 0.083946
O80   O     O_2   0.592017 0.444652 0.355495 -0.522914
H69   H     H_    0.990007 0.849751 0.560851 0.106756
H70   H     H_    0.070644 0.836513 0.578944 0.118764
H71   H     H_    0.514176 0.351979 0.621171 0.164046
H72   H     H_    0.609026 0.354714 0.624691 0.149777
C177  C     C_2   0.023485 0.870637 0.665101 0.435658
H73   H     H_    0.058781 0.849497 0.698182 0.061795
O81   O     O_2   0.022347 0.905974 0.686727 -0.498673
C178  C     C_2   0.007489 0.833953 0.466001 0.385027
H74   H     H_    0.980626 0.808636 0.460950 0.073732
O82   O     O_2   0.989276 0.859727 0.418994 -0.503939
C179  C     C_2   0.483331 0.399079 0.657821 0.478139
H75   H     H_    0.448032 0.412928 0.651721 0.068072
O83   O     O_2   0.529531 0.413142 0.702537 -0.515156
C180  C     C_2   0.534931 0.335082 0.522325 0.379531
H76   H     H_    0.518462 0.309286 0.534919 0.074351
O84   O     O_2   0.503903 0.354380 0.467880 -0.523886
H77   H     H_    0.936797 0.791420 0.557967 0.208650
H78   H     H_    0.126849 0.782118 0.580820 0.189816
H79   H     H_    0.459338 0.293157 0.613139 0.208915
H80   H     H_    0.665937 0.299911 0.627577 0.195856

loop_
_geom_bond_atom_site_label_1
_geom_bond_atom_site_label_2
_ccdc_geom_bond_type
C168  O72   D    
Cu10  O15   S    
C124  O44   A    
C133  C137  A    
C177  H73   S    
C55   C59   A    
C39   H71   S    
C86   C154  S    
C136  C140  A    
C79   C103  A    
C118  O10   A    
C163  O67   D    
C135  C139  A    
C158  H38   S    
C95   C99   A    
C46   O22   A    
C155  H31   S    
C29   C33   A    
C100  C104  A    
C156  H32   S    
Cu6   O18   S    
C152  O56   D    
Cu2   Cu6   S    
C77   C101  A    
C89   O29   A    
C12   C135  S    
C110  C162  S    
C105  C157  S    
C159  O63   D    
C3    C19   S    
C144  H4    S    
C16   C44   S    
C93   H33   S    
C49   C69   A    
C149  H17   S    
C72   C124  S    
C37   C177  S    
C126  H6    S    
C100  C115  S    
C51   C71   A    
C142  H2    S    
C120  O12   A    
Cu12  O7    S    
C150  O54   D    
C25   C29   A    
C27   C31   A    
C96   H36   S    
C28   C32   A    
C26   C174  S    
C99   C116  S    
Cu8   O20   S    
Cu4   O24   S    
Cu9   O11   S    
C98   C102  A    
Cu10  O12   S    
C3    O19   A    
C166  H54   S    
C121  O37   A    
Cu10  O46   S    
C19   C23   A    
C13   C33   A    
C62   H22   S    
C52   C72   A    
C78   C82   A    
C163  H47   S    
C16   C20   A    
C80   C112  S    
C164  H48   S    
Cu5   O41   S    
C111  C167  S    
C113  O45   A    
Cu2   O38   S    
C23   H63   S    
C129  C133  A    
C141  H1    S    
C154  O58   D    
C125  C129  A    
Cu7   O43   S    
C162  H46   S    
N10   N14   A    
C4    O20   A    
C43   H79   S    
C107  C159  S    
C84   C88   A    
Cu5   O33   S    
C67   H27   S    
C57   C61   A    
C105  H41   S    
C83   C91   S    
C59   C63   A    
C60   C64   A    
C50   C70   A    
C11   C136  S    
C12   N3    A    
C112  C168  S    
C66   C70   A    
N11   N15   A    
C49   C53   A    
C43   H11   S    
C176  H68   S    
C127  C131  A    
C4    C20   S    
Cu3   O3    S    
Cu9   O6    S    
Cu11  Cu12  S    
C126  C130  A    
C103  C107  S    
C73   N10   A    
C167  O71   D    
C56   C152  S    
Cu11  O47   S    
C30   C34   A    
Cu1   O29   S    
C82   C86   A    
C139  C171  S    
C64   C68   A    
C71   C123  S    
C74   N14   A    
Cu3   O39   S    
C165  O69   D    
C45   O21   A    
C146  H14   S    
Cu2   O2    S    
C169  O73   D    
Cu5   O17   S    
C108  C160  S    
C8    C128  A    
C113  O5    A    
C87   C95   A    
C145  H13   S    
C106  C158  S    
C128  H8    S    
Cu12  O13   S    
C24   H64   S    
C161  O65   D    
C47   O23   A    
Cu4   O40   S    
C178  H74   S    
C173  O77   D    
C62   C66   A    
C91   O35   A    
C99   C103  A    
Cu11  O9    S    
C129  H49   S    
C172  H60   S    
C89   O33   A    
C30   C118  S    
Cu2   O22   S    
C77   C109  S    
C63   H23   S    
C94   H34   S    
C171  O75   D    
C70   C122  S    
C148  O52   D    
C132  C136  A    
C22   H62   S    
C105  C109  S    
C37   H69   S    
C147  O51   D    
C39   C179  S    
C153  O57   D    
C117  O13   A    
C26   C30   A    
C92   O36   A    
C93   C97   A    
C68   H28   S    
C28   C176  S    
C130  H50   S    
C21   C25   A    
C38   C178  S    
C18   C22   A    
C107  C111  S    
C65   H25   S    
C24   C28   A    
C174  O78   D    
C170  H58   S    
C83   C87   A    
C14   C34   A    
C91   O31   A    
C32   C36   A    
Cu12  O10   S    
C10   N6    A    
C157  O61   D    
C48   O28   A    
C1    C17   S    
C13   C17   A    
Cu12  O48   S    
C158  O62   D    
C15   C43   S    
C16   C36   A    
Cu3   Cu7   S    
C96   C100  A    
C156  O60   D    
C61   C65   A    
C37   C41   S    
C119  O11   A    
C40   C44   S    
C56   C60   A    
C174  H66   S    
Cu4   O4    S    
C5    C125  A    
C75   N12   A    
N9    N13   A    
C84   C92   S    
C7    C127  A    
C97   C114  S    
C59   C76   S    
C81   C85   A    
N12   N16   A    
C51   C147  S    
C58   C62   A    
C11   N7    A    
C88   C96   A    
C123  O39   A    
C78   C102  A    
Cu3   O23   S    
C147  H15   S    
C10   C133  S    
C61   H21   S    
C80   C84   A    
C13   C41   S    
N1    N2    A    
C151  H19   S    
C130  C134  A    
C15   C19   A    
C50   C54   A    
C80   C104  A    
C115  O47   A    
C21   H61   S    
C106  C110  S    
C107  H43   S    
C94   C98   A    
Cu10  O5    S    
C166  O70   D    
C160  H40   S    
Cu7   O19   S    
C180  H76   S    
C74   N9    A    
C123  O43   A    
C90   O30   A    
C124  O40   A    
C137  C169  S    
C164  O68   D    
C179  H75   S    
C54   C150  S    
C6    C142  A    
C6    C46   S    
C81   C89   S    
C168  H56   S    
Cu8   O36   S    
C177  O81   D    
C127  H7    S    
C121  O41   A    
C4    O4    A    
C125  H5    S    
C25   C173  S    
C162  O66   D    
C75   N15   A    
Cu4   Cu8   S    
C76   N16   A    
C6    C126  A    
C138  C142  A    
C175  H67   S    
C53   C57   A    
C98   C113  S    
C51   C55   A    
C114  O6    A    
C5    C45   S    
C33   C37   S    
C122  O38   A    
C2    O18   A    
C140  C172  S    
C116  O48   A    
C35   C39   S    
C171  H59   S    
C8    C48   S    
Cu9   O45   S    
C152  H20   S    
Cu11  O14   S    
C52   C148  S    
C159  H39   S    
C77   C81   A    
C148  H16   S    
C47   O27   A    
C114  O46   A    
C176  O80   D    
C31   C119  S    
Cu1   O37   S    
C42   H10   S    
C10   N1    A    
C149  O53   D    
C31   C35   A    
Cu6   O26   S    
Cu6   O34   S    
C104  C108  S    
C150  H18   S    
C137  C141  A    
C109  C165  S    
C42   H78   S    
C140  C144  A    
C115  O7    A    
C27   C175  S    
C60   C75   S    
C82   C90   S    
C9    N5    A    
C117  O9    A    
C79   C83   A    
C118  O14   A    
C165  H53   S    
C131  H51   S    
C65   C69   A    
C146  O50   D    
C67   C71   A    
C169  H57   S    
C109  C161  S    
C17   C21   A    
Cu4   O32   S    
C167  H55   S    
C108  C112  S    
C46   O26   A    
C154  H30   S    
C22   C26   A    
Cu8   O28   S    
C40   C180  S    
C66   H26   S    
Cu1   Cu5   S    
C7    C47   S    
N5    N6    A    
C2    C18   S    
C161  H45   S    
C14   C18   A    
C1    O17   A    
N3    N4    A    
Cu2   O30   S    
C178  O82   D    
C108  H44   S    
C173  H65   S    
Cu7   O35   S    
C119  O15   A    
C38   C42   S    
C131  C135  A    
C120  O16   A    
C172  O76   D    
C151  O55   D    
C116  O8    A    
C3    O3    A    
C88   C156  S    
C86   C94   A    
C87   C155  S    
C1    O1    A    
C20   C24   A    
C41   H77   S    
C40   H72   S    
C49   C145  S    
C23   C27   A    
C153  H29   S    
C68   C72   A    
C14   C42   S    
C9    C134  S    
N7    N8    A    
C179  O83   D    
C110  C166  S    
C139  C143  A    
C32   C120  S    
C106  H42   S    
C15   C35   A    
C53   C149  S    
C101  C105  S    
C63   C67   A    
C95   H35   S    
C85   C153  S    
C36   C40   S    
C170  O74   D    
C90   O34   A    
Cu11  O8    S    
C50   C146  S    
C39   C43   S    
C157  H37   S    
C29   C117  S    
C138  C170  S    
C57   C74   S    
C76   N11   A    
Cu1   O21   S    
C92   O32   A    
C175  O79   D    
C5    C141  A    
C85   C93   A    
C69   C121  S    
C38   H70   S    
Cu6   O42   S    
C78   C110  S    
C132  H52   S    
Cu3   O31   S    
C145  O49   D    
C45   O25   A    
C41   H9    S    
C55   C151  S    
C44   H80   S    
Cu5   O25   S    
C54   C58   A    
C155  O59   D    
C128  C132  A    
C122  O42   A    
C34   C38   S    
C7    C143  A    
Cu7   O27   S    
C134  C138  A    
C2    O2    A    
C79   C111  S    
C44   H12   S    
C111  C163  S    
Cu8   O44   S    
C11   N4    A    
C102  C106  S    
C160  O64   D    
C143  H3    S    
C73   N13   A    
C9    N2    A    
C180  O84   D    
C8    C144  A    
C64   H24   S    
C48   O24   A    
C112  C164  S    
C12   N8    A    
Cu1   O1    S    
Cu9   Cu10  S    
C97   C101  A    
C52   C56   A    
C58   C73   S    
Cu9   O16   S    
