data_mof_unit_8871.cif
_audit_creation_date              2012-12-11T16:18:07-0500
_audit_creation_method            fapswitch 2.2
_symmetry_space_group_name_H-M    P1
_symmetry_Int_Tables_number       1
_space_group_crystal_system       triclinic
_cell_length_a                    14.059163
_cell_length_b                    14.07556
_cell_length_c                    30.087395
_cell_angle_alpha                 97.199022
_cell_angle_beta                  97.154501
_cell_angle_gamma                 61.233953
_cell_volume                      5163.95043088

loop_
_atom_site_label
_atom_site_type_symbol
_atom_type_description
_atom_site_fract_x
_atom_site_fract_y
_atom_site_fract_z
_atom_type_partial_charge
C1    C     C_R   0.385378 0.711254 0.442314 0.566824
C2    C     C_R   0.773181 0.272164 0.375895 -0.127035
C3    C     C_R   0.799636 0.248372 0.330968 0.062024
C4    C     C_R   0.398822 0.381152 0.426482 0.550916
C5    C     C_R   0.817597 0.323100 0.310585 0.011503
C6    C     C_R   0.817805 0.413451 0.335834 -0.135961
C7    C     C_R   0.791705 0.435709 0.380317 -0.123143
C8    C     C_R   0.831367 0.400491 0.158689 -0.113551
C9    C     C_R   0.859116 0.391549 0.114922 -0.118408
C10   C     C_R   0.890239 0.205162 0.105754 -0.127412
C11   C     C_R   0.862638 0.214319 0.149565 -0.101378
C12   C     C_R   0.346127 0.237531 0.223014 -0.093241
C13   C     C_R   0.837163 0.310613 0.176451 0.033488
C14   C     C_1   0.828628 0.313609 0.223413 0.015748
C15   C     C_1   0.824371 0.316475 0.263126 0.034997
C16   C     C_R   0.709589 0.405671 0.442296 0.540998
C17   C     C_R   0.893581 0.292160 0.088775 0.019018
C18   C     C_R   0.363996 0.766341 0.400698 0.000920
C19   C     C_R   0.431619 0.807254 0.388882 0.040729
C20   C     C_R   0.428259 0.825916 0.343785 -0.101381
C21   C     C_R   0.356273 0.808885 0.311592 0.006933
C22   C     C_R   0.282563 0.779586 0.324107 -0.124331
C23   C     C_R   0.353854 0.245923 0.269874 -0.091864
C24   C     C_R   0.286018 0.758806 0.368263 -0.142121
C25   C     C_R   0.264315 0.828967 0.152460 -0.139501
C26   C     C_R   0.239454 0.859873 0.108646 -0.127127
C27   C     C_R   0.393578 0.895077 0.115656 -0.131250
C28   C     C_R   0.389705 0.711585 0.568235 0.555292
C29   C     C_R   0.419468 0.864626 0.159965 0.056387
C30   C     C_R   0.350900 0.835147 0.178694 0.012162
C31   C     C_1   0.357934 0.824311 0.225774 0.031062
C32   C     C_1   0.359039 0.817908 0.265167 0.014379
C33   C     C_R   0.301159 0.897462 0.090535 -0.008617
C34   C     C_R   0.325380 0.347101 0.293306 0.037752
C35   C     C_R   0.364519 0.363566 0.592041 0.019400
C36   C     C_R   0.429424 0.267886 0.614060 -0.119400
C37   C     C_R   0.408750 0.260599 0.657253 -0.113019
C38   C     C_R   0.322905 0.348379 0.678548 0.034383
C39   C     C_R   0.252741 0.440334 0.655649 -0.113237
C40   C     C_R   0.402135 0.383175 0.552330 0.542269
C41   C     C_R   0.273036 0.447792 0.612404 -0.126009
C42   C     C_R   0.228748 0.417879 0.836572 -0.073188
C43   C     C_R   0.220781 0.401887 0.880607 0.227893
C44   C     C_R   0.385581 0.227966 0.874835 -0.162911
C45   C     C_R   0.310536 0.330131 0.199509 0.036780
C46   C     C_R   0.392705 0.245047 0.831172 -0.132183
C47   C     C_R   0.312041 0.337700 0.811523 -0.007472
C48   C     C_1   0.311701 0.345840 0.764728 -0.024205
C49   C     C_1   0.314294 0.348094 0.725250 -0.023960
C50   C     C_R   0.296671 0.302919 0.899358 0.026828
C51   C     C_1   0.760652 0.377553 0.612802 -0.010078
C52   C     C_R   0.712861 0.407933 0.568566 0.542906
C53   C     C_R   0.729327 0.398893 0.727886 -0.101667
C54   C     C_R   0.749561 0.382111 0.773660 -0.101290
C55   C     C_R   0.933793 0.242693 0.760474 -0.100270
C56   C     C_1   0.300430 0.319779 0.151422 -0.045449
C57   C     C_R   0.913561 0.259547 0.714664 -0.103760
C58   C     C_R   0.811454 0.338256 0.698367 0.038952
C59   C     C_R   0.851942 0.304181 0.790057 0.041131
C60   C     C_1   0.876660 0.292423 0.837493 -0.045676
C61   C     C_1   0.788725 0.357171 0.651444 -0.054714
C62   C     C_1   0.905253 0.282369 0.876811 0.001084
C63   C     C_1   0.375766 0.759279 0.613450 -0.008036
C64   C     C_1   0.364996 0.363884 0.380882 0.000848
C65   C     C_R   0.411591 0.727301 0.729192 -0.103044
C66   C     C_R   0.398119 0.747993 0.775293 -0.101884
C67   C     C_1   0.343585 0.354514 0.341210 -0.045525
C68   C     C_R   0.278018 0.938600 0.764162 -0.105492
C69   C     C_R   0.291409 0.917891 0.718069 -0.105562
C70   C     C_R   0.357878 0.812075 0.700475 0.038634
C71   C     C_R   0.330699 0.853615 0.792806 0.039292
C72   C     C_1   0.313213 0.876277 0.839898 -0.051892
C73   C     C_1   0.366825 0.787899 0.652835 -0.055511
C74   C     C_1   0.293140 0.903915 0.878622 -0.004964
C75   C     C_R   0.950564 0.273158 0.048113 0.537520
C76   C     C_R   0.288993 0.439941 0.269824 -0.102339
C77   C     C_R   0.275347 0.270123 0.065436 0.549011
C78   C     C_1   0.290445 0.302684 0.111446 0.001607
C79   C     C_R   0.260905 0.954256 0.048922 0.546426
C80   C     C_R   0.952334 0.269060 0.922080 0.544130
C81   C     C_R   0.276631 0.266698 0.939658 0.562643
C82   C     C_R   0.261477 0.950964 0.922855 0.549087
C83   C     C_R   0.281205 0.431549 0.222893 -0.102192
C84   C     C_2   0.803149 0.148133 0.306264 0.574541
C85   C     C_2   0.505101 0.832402 0.422225 0.581166
C86   C     C_2   0.514757 0.869509 0.185929 0.560060
C87   C     C_R   0.764357 0.367927 0.400091 -0.012114
Cl1   Cl    Cl    0.112798 0.507013 0.909755 -0.577305
Cr1   Cr    Cr6+3 0.581000 0.584320 0.508140 1.075800
Cr2   Cr    Cr6+3 0.339110 0.576430 0.496080 1.028799
Cr3   Cr    Cr6+3 0.579910 0.339270 0.495810 1.042041
Cr4   Cr    Cr6+3 0.082090 0.079210 0.982490 1.038889
Cr5   Cr    Cr6+3 0.082460 0.324610 0.994920 1.094901
Cr6   Cr    Cr6+3 0.323630 0.087860 0.996130 1.037929
H1    H     H_    0.268347 0.518309 0.287793 0.110115
H2    H     H_    0.481950 0.853095 0.333570 0.174824
H3    H     H_    0.167806 0.491055 0.821380 0.150104
H4    H     H_    0.185928 0.508423 0.672032 0.119418
H5    H     H_    0.221333 0.522385 0.596233 0.136047
H6    H     H_    0.500128 0.201582 0.599177 0.141248
H7    H     H_    0.458320 0.183290 0.811983 0.128126
H8    H     H_    0.446161 0.152066 0.888115 0.149968
H9    H     H_    0.463132 0.188968 0.674913 0.116823
H10   H     H_    0.649897 0.459715 0.715538 0.105260
H11   H     H_    0.368246 0.158826 0.205092 0.143015
H12   H     H_    0.866963 0.144536 0.163214 0.147649
H13   H     H_    0.686111 0.430814 0.796266 0.112145
H14   H     H_    0.013667 0.182929 0.772939 0.106598
H15   H     H_    0.977457 0.212003 0.692132 0.110584
H16   H     H_    0.462566 0.644961 0.715826 0.104844
H17   H     H_    0.439160 0.681746 0.797094 0.112808
H18   H     H_    0.225656 0.020661 0.777419 0.105928
H19   H     H_    0.248912 0.983832 0.696173 0.110860
H20   H     H_    0.383515 0.173546 0.287767 0.131672
H21   H     H_    0.860399 0.460064 0.102700 0.142224
H22   H     H_    0.811254 0.475459 0.179429 0.129101
H23   H     H_    0.916162 0.127634 0.086419 0.135641
H24   H     H_    0.832297 0.470372 0.320330 0.132453
H25   H     H_    0.786050 0.509790 0.398191 0.158492
H26   H     H_    0.754194 0.218545 0.391445 0.178791
H27   H     H_    0.764852 0.026486 0.304287 0.349090
H28   H     H_    0.643159 0.845062 0.434356 0.343287
H29   H     H_    0.624318 0.925072 0.190995 0.348711
H30   H     H_    0.168162 0.860448 0.089986 0.144351
H31   H     H_    0.211859 0.806131 0.166799 0.121485
H32   H     H_    0.225539 0.767877 0.299268 0.120924
H33   H     H_    0.232312 0.729100 0.376089 0.146782
H34   H     H_    0.442643 0.922206 0.101419 0.179007
H35   H     H_    0.252932 0.503596 0.204945 0.113591
O1    O     O_R   0.688580 0.499770 0.460490 -0.507535
O2    O     O_R   0.346150 0.177650 0.050510 -0.500690
O3    O     O_R   0.314200 0.996600 0.036060 -0.502413
O4    O     O_R   0.480400 0.672610 0.462660 -0.460220
O5    O     O_R   0.168690 0.969990 0.933130 -0.495503
O6    O     O_R   0.991920 0.175870 0.937430 -0.498762
O7    O     O_R   0.974010 0.342590 0.941330 -0.472436
O8    O     O_R   0.182630 0.317940 0.955040 -0.435068
O9    O     O_R   0.347320 0.174720 0.953250 -0.528498
O10   O     O_R   0.315290 0.993890 0.945900 -0.496103
O11   O     O_3   0.162730 0.163890 0.991180 -0.262921
O12   O     O_R   0.348600 0.476260 0.536540 -0.504737
O13   O     O_R   0.315310 0.685650 0.451800 -0.521480
O14   O     O_R   0.346220 0.474990 0.446280 -0.499889
O15   O     O_R   0.492270 0.312460 0.441630 -0.493037
O16   O     O_R   0.669740 0.350480 0.455640 -0.502306
O17   O     O_R   0.691150 0.501150 0.557860 -0.503448
O18   O     O_R   0.482790 0.673890 0.552920 -0.481206
O19   O     O_R   0.317880 0.687030 0.549170 -0.509202
O20   O     O_2   0.847271 0.112032 0.270981 -0.524184
O21   O     O_R   0.757180 0.093486 0.323916 -0.701520
O22   O     O_2   0.480846 0.863285 0.461004 -0.507037
O23   O     O_R   0.494840 0.313840 0.539010 -0.511052
O24   O     O_R   0.600439 0.824766 0.408816 -0.703852
O25   O     O_2   0.554811 0.821979 0.220230 -0.517382
O26   O     O_R   0.560094 0.927660 0.170632 -0.714257
O27   O     O_R   0.672120 0.351750 0.545910 -0.494825
O28   O     O_3   0.500010 0.500010 0.500010 -0.259580
O29   O     O_R   0.167510 0.972920 0.030390 -0.511094
O30   O     O_R   0.990840 0.178580 0.027590 -0.504272
O31   O     O_R   0.972840 0.345510 0.038590 -0.512600
O32   O     O_R   0.181550 0.320660 0.045200 -0.490267

loop_
_geom_bond_atom_site_label_1
_geom_bond_atom_site_label_2
_ccdc_geom_bond_type
C75   O31   A    
C8    C13   A    
C55   C59   A    
C27   C29   A    
Cr6   O11   S    
Cr4   O5    S    
C35   C36   A    
C51   C61   T    
C12   H11   S    
Cr5   O7    S    
C4    O14   A    
C39   C41   A    
C38   C49   S    
H29   O26   S    
C53   C54   A    
C27   C33   A    
C81   O8    A    
C12   C23   A    
C69   H19   S    
C1    C18   S    
C37   C38   A    
C80   O6    A    
C54   H13   S    
Cr4   O30   S    
C18   C24   A    
C43   Cl1   S    
C62   C80   S    
C36   C37   A    
C83   H35   S    
C76   H1    S    
C77   O2    A    
C30   C31   S    
C22   H32   S    
C10   C17   A    
C44   C50   A    
C65   C70   A    
C56   C78   T    
H27   O21   S    
C40   O23   A    
C60   C62   T    
C18   C19   A    
C68   H18   S    
C25   H31   S    
Cr4   O29   S    
Cr2   O19   S    
C1    O13   A    
C7    C87   A    
C66   C71   A    
C45   C56   S    
C8    C9    A    
C24   H33   S    
C41   H5    S    
C66   H17   S    
C29   C30   A    
C16   O1    A    
Cr2   O14   S    
C47   C48   S    
C84   O20   D    
C58   C61   S    
C20   H2    S    
C44   H8    S    
C59   C60   S    
C13   C14   S    
Cr6   O10   S    
Cr1   O17   S    
C26   H30   S    
C74   C82   S    
C1    O4    A    
C76   C83   A    
C46   H7    S    
C44   C46   A    
C54   C59   A    
C77   O32   A    
C38   C39   A    
C21   C32   S    
C57   H15   S    
C28   O19   A    
Cr1   O4    S    
C51   C52   S    
C9    H21   S    
C64   C67   T    
C7    H25   S    
C45   C83   A    
C72   C74   T    
C42   H3    S    
C37   H9    S    
C2    H26   S    
C68   C69   A    
C39   H4    S    
C63   C73   T    
C3    C5    A    
C25   C26   A    
C77   C78   S    
Cr6   O3    S    
Cr1   O1    S    
C16   O16   A    
C82   O5    A    
Cr5   O31   S    
C86   O26   S    
C85   O22   D    
C82   O10   A    
C16   C87   S    
C27   H34   S    
C26   C33   A    
C31   C32   T    
Cr5   O32   S    
C23   C34   A    
C70   C73   S    
C2    C87   A    
C36   H6    S    
C85   O24   S    
C29   C86   S    
Cr2   O13   S    
C9    C17   A    
C48   C49   T    
C55   C57   A    
Cr6   O9    S    
H28   O24   S    
C22   C24   A    
Cr4   O6    S    
C42   C43   A    
Cr4   O11   S    
Cr3   O23   S    
Cr3   O16   S    
C79   O29   A    
Cr3   O15   S    
C75   O30   A    
C25   C30   A    
Cr1   O18   S    
C46   C47   A    
C28   O18   A    
C52   O17   A    
C33   C79   S    
C81   O9    A    
C19   C85   S    
C34   C67   S    
C4    O15   A    
C53   C58   A    
C43   C50   A    
Cr1   O28   S    
C6    C7    A    
C12   C45   A    
C52   O27   A    
C4    C64   S    
Cr6   O2    S    
C80   O7    A    
C10   H23   S    
C55   H14   S    
C21   C22   A    
C19   C20   A    
C2    C3    A    
C86   O25   D    
C71   C72   S    
Cr5   O11   S    
C23   H20   S    
C11   C13   A    
C57   C58   A    
C5    C6    A    
C11   H12   S    
Cr2   O28   S    
C68   C71   A    
C79   O3    A    
C35   C40   S    
C42   C47   A    
C69   C70   A    
C35   C41   A    
C5    C15   S    
C65   H16   S    
Cr3   O28   S    
Cr2   O12   S    
Cr5   O8    S    
C10   C11   A    
C8    H22   S    
C28   C63   S    
Cr3   O27   S    
C20   C21   A    
C65   C66   A    
C3    C84   S    
C17   C75   S    
C14   C15   T    
C53   H10   S    
C40   O12   A    
C6    H24   S    
C50   C81   S    
C34   C76   A    
C84   O21   S    
