data_mof_unit_61684.cif
_audit_creation_date              2012-12-10T17:57:10-0500
_audit_creation_method            fapswitch 2.2
_symmetry_space_group_name_H-M    P1
_symmetry_Int_Tables_number       1
_space_group_crystal_system       triclinic
_cell_length_a                    18.657807
_cell_length_b                    18.674871
_cell_length_c                    18.671927
_cell_angle_alpha                 109.294063
_cell_angle_beta                  109.498315
_cell_angle_gamma                 109.34378
_cell_volume                      5025.30959727

loop_
_atom_site_label
_atom_site_type_symbol
_atom_type_description
_atom_site_fract_x
_atom_site_fract_y
_atom_site_fract_z
_atom_type_partial_charge
C1    C     C_R   0.379769 0.379840 0.500117 0.856032
C2    C     C_R   0.313723 0.313872 0.500416 -0.009608
C3    C     C_R   0.319851 0.579433 0.320584 -0.183785
C4    C     C_R   0.617776 0.497093 0.620745 0.829519
C5    C     C_R   0.256278 0.579409 0.255747 -0.184788
C6    C     C_R   0.184541 0.499834 0.184770 -0.011176
C7    C     C_R   0.176516 0.420272 0.177419 -0.181634
C8    C     C_R   0.241513 0.420299 0.240864 -0.182943
C9    C     C_R   0.312570 0.499883 0.312520 -0.011887
C10   C     C_R   0.758107 0.757093 0.579735 -0.188585
C11   C     C_R   0.822717 0.820444 0.579712 -0.185935
C12   C     C_3   0.808646 0.500162 0.808943 0.171663
C13   C     C_R   0.813869 0.813409 0.500008 -0.009346
C14   C     C_R   0.741831 0.742928 0.420321 -0.182694
C15   C     C_R   0.678560 0.678234 0.420323 -0.185591
C16   C     C_R   0.620370 0.620141 0.500049 0.863366
C17   C     C_R   0.686666 0.686065 0.500032 -0.010670
C18   C     C_R   0.998091 0.379688 0.877542 0.871538
C19   C     C_R   0.876672 0.500366 0.876710 0.837411
C20   C     C_R   0.996210 0.620034 0.116347 0.870000
C21   C     C_R   0.118170 0.499883 0.118215 0.859718
C22   C     C_R   0.000888 0.879977 0.380206 0.868623
C23   C     C_3   0.848871 0.568507 0.783422 -0.364836
C24   C     C_R   0.120148 0.120183 0.499951 0.864535
C25   C     C_R   0.999684 0.120247 0.619282 0.866935
C26   C     C_R   0.879857 0.879699 0.499967 0.856673
C27   C     C_R   0.076286 0.331996 0.807834 -0.218315
C28   C     C_R   0.379091 0.499968 0.379064 0.859815
C29   C     C_R   0.077825 0.268576 0.744695 -0.000794
C30   C     C_R   0.000798 0.187553 0.685024 -0.048165
C31   C     C_R   0.923478 0.170028 0.688102 -0.205598
C32   C     C_R   0.922771 0.232962 0.752140 -0.185686
C33   C     C_R   0.999059 0.313813 0.811686 -0.039729
C34   C     C_3   0.749245 0.522099 0.842940 -0.403023
C35   C     C_R   0.983320 0.752039 0.169280 0.005583
C36   C     C_R   0.985198 0.815850 0.235270 -0.218806
C37   C     C_R   0.001161 0.814576 0.313409 -0.035735
C38   C     C_R   0.014725 0.749613 0.326242 -0.183211
C39   C     C_R   0.011071 0.684631 0.259925 -0.203174
C40   C     C_3   0.680055 0.406503 0.655321 -0.383117
C41   C     C_R   0.996030 0.686229 0.182134 -0.056562
C42   C     C_3   0.752665 0.408188 0.726788 -0.411813
C43   C     C_3   0.776007 0.566993 0.712477 -0.417853
C44   C     C_3   0.676259 0.520201 0.771611 -0.385005
C45   C     C_R   0.242776 0.322918 0.501969 -0.181067
C46   C     C_3   0.685844 0.497448 0.688587 0.175876
C47   C     C_1   0.157655 0.288520 0.740574 0.145608
C48   C     C_1   0.966140 0.754025 0.088703 0.143255
C49   C     C_R   0.178014 0.258174 0.500447 -0.171551
C50   C     C_R   0.186240 0.186394 0.500017 -0.001306
C51   C     C_R   0.257949 0.178111 0.500034 -0.180996
C52   C     C_R   0.321361 0.241532 0.498906 -0.188517
H1    H     H_    0.687515 0.388426 0.596202 0.188237
H2    H     H_    0.262151 0.641012 0.261457 0.143942
H3    H     H_    0.120998 0.358662 0.122111 0.144697
H4    H     H_    0.614895 0.355448 0.636758 0.157074
H5    H     H_    0.235835 0.358705 0.234987 0.144940
H6    H     H_    0.764269 0.762595 0.641391 0.140195
H7    H     H_    0.878561 0.875412 0.641374 0.144451
H8    H     H_    0.735468 0.737532 0.358645 0.145649
H9    H     H_    0.622815 0.623137 0.358676 0.144718
H10   H     H_    0.135186 0.394982 0.854360 0.156625
H11   H     H_    0.864294 0.107328 0.641707 0.142074
H12   H     H_    0.788686 0.587880 0.902478 0.171297
H13   H     H_    0.862690 0.219052 0.754530 0.151275
H14   H     H_    0.722445 0.357895 0.742897 0.182428
H15   H     H_    0.974886 0.866806 0.226181 0.154331
H16   H     H_    0.026401 0.748346 0.386573 0.152164
H17   H     H_    0.021289 0.633923 0.269589 0.146070
H18   H     H_    0.794661 0.390996 0.702071 0.157235
H19   H     H_    0.783936 0.552049 0.653633 0.169607
H20   H     H_    0.891748 0.553845 0.758548 0.175691
H21   H     H_    0.680531 0.585283 0.797570 0.191082
H22   H     H_    0.611184 0.470969 0.755215 0.161807
H23   H     H_    0.781496 0.632713 0.736705 0.170357
H24   H     H_    0.719232 0.474053 0.861451 0.184030
H25   H     H_    0.889945 0.635229 0.841709 0.193272
H26   H     H_    0.236989 0.379021 0.502837 0.144608
H27   H     H_    0.122505 0.264528 0.501003 0.143266
H28   H     H_    0.263889 0.122159 0.499488 0.142335
H29   H     H_    0.376765 0.235036 0.498188 0.138890
H30   H     H_    0.375191 0.641055 0.376056 0.143997
N1    N     N_1   0.221468 0.304413 0.737127 -0.196350
N2    N     N_1   0.952445 0.755693 0.024254 -0.229807
O1    O     O_R   0.408680 0.356690 0.448540 -0.624478
O2    O     O_R   0.052580 0.908350 0.460820 -0.626221
O3    O     O_R   0.039640 0.091520 0.447910 -0.626614
O4    O     O_R   0.408060 0.460070 0.551440 -0.620790
O5    O     O_R   0.143620 0.091540 0.551930 -0.614716
O6    O     O_R   0.947420 0.091470 0.539000 -0.622340
O7    O     O_R   0.051410 0.091490 0.643030 -0.613974
O8    O     O_R   0.856380 0.908290 0.447890 -0.622766
O9    O     O_R   0.960370 0.908300 0.551910 -0.623656
O10   O     O_R   0.592410 0.448290 0.540650 -0.631469
O11   O     O_R   0.591790 0.551670 0.643550 -0.630147
O12   O     O_R   0.049540 0.460010 0.906120 -0.624787
O13   O     O_R   0.591940 0.539930 0.448560 -0.619493
O14   O     O_R   0.591320 0.643310 0.551460 -0.622045
O15   O     O_R   0.408210 0.448330 0.356450 -0.620579
O16   O     O_R   0.407590 0.551710 0.459350 -0.621823
O17   O     O_R   0.946090 0.356640 0.906180 -0.627027
O18   O     O_R   0.853500 0.448290 0.905220 -0.632945
O19   O     O_R   0.956960 0.551660 0.905160 -0.625685
O20   O     O_R   0.945110 0.539900 0.088450 -0.621470
O21   O     O_R   0.048570 0.643270 0.088390 -0.612988
O22   O     O_R   0.037700 0.448250 0.089410 -0.622250
O23   O     O_R   0.141150 0.551620 0.089350 -0.621797
O24   O     O_R   0.948590 0.908340 0.356800 -0.624823
Zn1   Zn    Zn3+2 0.500420 0.430970 0.431290 0.948141
Zn2   Zn    Zn3+2 0.499580 0.569030 0.568710 0.949002
Zn3   Zn    Zn3+2 0.928250 0.430930 0.997320 0.946289
Zn4   Zn    Zn3+2 0.066410 0.568980 0.997240 0.960071
Zn5   Zn    Zn3+2 0.930570 0.999900 0.430450 0.954249
Zn6   Zn    Zn3+2 0.069430 0.999920 0.569370 0.964291

loop_
_geom_bond_atom_site_label_1
_geom_bond_atom_site_label_2
_ccdc_geom_bond_type
C43   C46   S    
O16   Zn2   S    
O14   Zn2   S    
C27   C29   A    
C18   O12   A    
O23   Zn4   S    
C35   C36   A    
C7    H3    S    
C24   O5    A    
C20   C41   S    
C36   H15   S    
C7    C8    A    
C39   C41   A    
C4    C46   S    
C27   C33   A    
C40   C46   S    
O12   Zn4   S    
C12   C23   S    
C25   O6    A    
C29   C30   A    
C29   C47   S    
C36   C37   A    
C10   H6    S    
O1    Zn1   S    
C30   C31   A    
C19   O18   A    
C16   O13   A    
C11   C13   A    
C10   C17   A    
C26   O8    A    
O15   Zn1   S    
C42   H18   S    
C23   C43   S    
C1    C2    S    
O6    Zn5   S    
C51   H28   S    
C12   C42   S    
C19   O19   A    
C8    C9    A    
C40   H4    S    
C45   H26   S    
C47   N1    T    
O8    Zn5   S    
C21   O22   A    
O4    Zn2   S    
C28   O16   A    
C1    O4    A    
C40   C42   S    
C13   C14   A    
C1    O1    A    
O18   Zn3   S    
C44   H21   S    
C11   H7    S    
C35   C48   S    
C18   C33   S    
C44   C46   S    
O22   Zn3   S    
C2    C45   A    
C43   H23   S    
C38   C39   A    
C25   O7    A    
C51   C52   A    
C31   H11   S    
C5    H2    S    
C34   C44   S    
C16   C17   S    
C22   C37   S    
C49   H27   S    
O19   Zn4   S    
C18   O17   A    
O24   Zn5   S    
C37   C38   A    
C3    C9    A    
C27   H10   S    
C8    H5    S    
C4    O11   A    
O13   Zn1   S    
C31   C32   A    
C45   C49   A    
C3    H30   S    
C34   H12   S    
C50   C51   A    
C15   H9    S    
C23   H25   S    
C44   H22   S    
C24   C50   S    
C21   O23   A    
C2    C52   A    
C4    O10   A    
C28   O15   A    
O21   Zn4   S    
C38   H16   S    
C49   C50   A    
C13   C26   S    
C12   C34   S    
C20   O21   A    
C25   C30   S    
C15   C17   A    
O5    Zn6   S    
C43   H19   S    
C23   H20   S    
C3    C5    A    
O11   Zn2   S    
O20   Zn3   S    
C6    C7    A    
C20   O20   A    
O17   Zn3   S    
C14   H8    S    
O10   Zn1   S    
O7    Zn6   S    
O2    Zn6   S    
C32   C33   A    
C6    C21   S    
C16   O14   A    
C5    C6    A    
C26   O9    A    
C22   O24   A    
C12   C19   S    
C39   H17   S    
O9    Zn6   S    
C22   O2    A    
C52   H29   S    
C35   C41   A    
C24   O3    A    
O3    Zn5   S    
C10   C11   A    
C48   N2    T    
C40   H1    S    
C42   H14   S    
C14   C15   A    
C9    C28   S    
C34   H24   S    
C32   H13   S    
