data_mof_unit_38378.cif
_audit_creation_date              2012-12-10T17:53:25-0500
_audit_creation_method            fapswitch 2.2
_symmetry_space_group_name_H-M    P1
_symmetry_Int_Tables_number       1
_space_group_crystal_system       triclinic
_cell_length_a                    23.434664
_cell_length_b                    10.612586
_cell_length_c                    9.908381
_cell_angle_alpha                 90.080778
_cell_angle_beta                  89.512554
_cell_angle_gamma                 91.847007
_cell_volume                      2462.8669996

loop_
_atom_site_label
_atom_site_type_symbol
_atom_type_description
_atom_site_fract_x
_atom_site_fract_y
_atom_site_fract_z
_atom_type_partial_charge
C1    C     C_R   0.501691 0.260805 0.500121 0.843500
C2    C     C_R   0.121611 0.594400 0.527524 0.499370
C3    C     C_R   0.236707 0.506986 0.392699 -0.143913
C4    C     C_R   0.389408 0.498847 0.500836 0.861515
C5    C     C_R   0.295882 0.513716 0.387410 -0.253982
C6    C     C_R   0.327191 0.493510 0.504605 -0.064481
C7    C     C_R   0.298765 0.466701 0.626967 -0.247852
C8    C     C_R   0.239318 0.460941 0.633779 0.143886
C9    C     C_R   0.208404 0.481080 0.514821 0.310557
C10   C     C_R   0.764793 0.444992 0.399296 -0.134824
C11   C     C_R   0.705350 0.445226 0.388475 0.068452
C12   C     C_R   0.966359 0.255011 0.512491 -0.162850
C13   C     C_R   0.673107 0.492929 0.498986 -0.066549
C14   C     C_R   0.701325 0.535879 0.615848 -0.267905
C15   C     C_R   0.760139 0.532820 0.624655 -0.106868
C16   C     C_R   0.501506 0.739448 0.499990 0.879737
C17   C     C_R   0.791847 0.487869 0.516430 0.290516
C18   C     C_R   0.598705 0.137937 0.616848 -0.208915
C19   C     C_R   0.644519 0.075202 0.671363 -0.117100
C20   C     C_R   0.644798 0.944086 0.669330 -0.122448
C21   C     C_R   0.599178 0.875273 0.613134 -0.193840
C22   C     C_R   0.552108 0.937524 0.558598 0.096682
C23   C     C_R   0.025739 0.254073 0.509114 -0.164179
C24   C     C_R   0.552025 0.069566 0.559655 0.095517
C25   C     C_R   0.505363 0.128793 0.500557 -0.082440
C26   C     C_R   0.460409 0.061726 0.440943 -0.222496
C27   C     C_R   0.460417 0.933043 0.439964 -0.202302
C28   C     C_R   0.610671 0.497970 0.499107 0.832003
C29   C     C_R   0.505268 0.872002 0.499837 -0.098506
C30   C     C_R   0.425229 0.333132 0.140372 -0.188625
C31   C     C_R   0.387471 0.251911 0.070323 0.135007
C32   C     C_R   0.387303 0.255271 0.930041 -0.243011
C33   C     C_R   0.424538 0.336605 0.860439 -0.193821
C34   C     C_R   0.057962 0.367739 0.514313 -0.007410
C35   C     C_R   0.462787 0.419177 0.928103 0.172242
C36   C     C_R   0.462936 0.418477 0.072566 0.128659
C37   C     C_R   0.535658 0.577361 0.070942 -0.125321
C38   C     C_R   0.535701 0.577204 0.927782 -0.109637
C39   C     C_R   0.882837 0.598589 0.531155 0.503582
C40   C     C_R   0.878741 0.373174 0.520800 0.501300
C41   C     C_R   0.938254 0.369681 0.520174 -0.013898
C42   C     C_R   0.970228 0.484221 0.526047 -0.024246
C43   C     C_R   0.942423 0.599805 0.533113 -0.013953
C44   C     C_3   0.679208 0.392132 0.259630 -0.410361
C45   C     C_R   0.030154 0.483234 0.523812 -0.024246
C46   C     C_3   0.648157 0.264476 0.284197 -0.300088
C47   C     C_3   0.616337 0.219081 0.158569 -0.824942
C48   C     C_3   0.349170 0.157184 0.144222 -0.434395
C49   C     C_3   0.308450 0.220907 0.243017 -0.379915
C50   C     C_3   0.267819 0.124567 0.310311 -0.785933
C51   C     C_3   0.210480 0.434402 0.768503 -0.419936
C52   C     C_3   0.216801 0.548563 0.862836 -0.335429
C53   C     C_3   0.188449 0.521896 0.999453 -0.875597
C54   C     C_R   0.062125 0.597800 0.530255 -0.013600
C55   C     C_R   0.034040 0.712391 0.538890 -0.164326
C56   C     C_R   0.974664 0.713411 0.539920 -0.161937
C57   C     C_R   0.117542 0.369357 0.510278 0.482245
H1    H     H_    0.942619 0.165845 0.507967 0.193465
H2    H     H_    0.564790 0.640534 0.124250 0.146413
H3    H     H_    0.046244 0.164227 0.502308 0.190416
H4    H     H_    0.424095 0.326855 0.247321 0.203598
H5    H     H_    0.358802 0.193084 0.873352 0.150507
H6    H     H_    0.422280 0.331164 0.753495 0.212671
H7    H     H_    0.564858 0.640326 0.873449 0.142020
H8    H     H_    0.057789 0.801516 0.544042 0.191728
H9    H     H_    0.954175 0.803333 0.545651 0.190499
H10   H     H_    0.212530 0.523181 0.302172 0.142613
H11   H     H_    0.317035 0.534445 0.291998 0.170330
H12   H     H_    0.677861 0.572886 0.701041 0.162456
H13   H     H_    0.322715 0.449904 0.717897 0.163670
H14   H     H_    0.790680 0.410409 0.316880 0.140369
H15   H     H_    0.583538 0.287393 0.130412 0.269948
H16   H     H_    0.646609 0.207991 0.072816 0.251184
H17   H     H_    0.594614 0.126523 0.179465 0.250944
H18   H     H_    0.679737 0.193416 0.312657 0.227929
H19   H     H_    0.616945 0.271104 0.368117 0.224613
H20   H     H_    0.650856 0.461365 0.213316 0.225284
H21   H     H_    0.712995 0.377187 0.182216 0.186965
H22   H     H_    0.240354 0.076813 0.233685 0.262469
H23   H     H_    0.781220 0.565853 0.715517 0.148743
H24   H     H_    0.292282 0.053025 0.365117 0.253297
H25   H     H_    0.240150 0.173215 0.383866 0.294191
H26   H     H_    0.333266 0.269973 0.323389 0.221063
H27   H     H_    0.283102 0.291188 0.188469 0.234637
H28   H     H_    0.323440 0.100054 0.071160 0.209911
H29   H     H_    0.376174 0.090762 0.199206 0.198569
H30   H     H_    0.142168 0.499593 0.986725 0.271079
H31   H     H_    0.208781 0.441403 0.049543 0.256602
H32   H     H_    0.193400 0.606421 0.064992 0.252822
H33   H     H_    0.262740 0.572640 0.879249 0.224284
H34   H     H_    0.424651 0.109631 0.398503 0.139082
H35   H     H_    0.196664 0.631143 0.816116 0.253868
H36   H     H_    0.164400 0.410256 0.756548 0.214675
H37   H     H_    0.230059 0.351111 0.815263 0.205927
H38   H     H_    0.600667 0.239770 0.618599 0.151368
H39   H     H_    0.680090 0.128542 0.714380 0.153275
H40   H     H_    0.680606 0.895519 0.710673 0.148198
H41   H     H_    0.601545 0.773685 0.611475 0.139826
H42   H     H_    0.424808 0.880702 0.395242 0.152234
N1    N     N_R   0.852506 0.486460 0.524479 -0.353609
N2    N     N_R   0.147720 0.481446 0.517661 -0.358468
N3    N     N_R   0.499460 0.498800 0.142780 -0.117458
N4    N     N_R   0.499440 0.498720 0.857170 -0.116370
O1    O     O_R   0.500000 0.316780 0.614690 -0.633994
O2    O     O_R   0.583850 0.500050 0.614640 -0.629741
O3    O     O_R   0.583840 0.500030 0.385310 -0.614477
O4    O     O_2   0.855322 0.708394 0.533726 -0.558762
O5    O     O_2   0.847186 0.264528 0.517630 -0.561390
O6    O     O_2   0.145274 0.260256 0.500094 -0.583741
O7    O     O_2   0.153293 0.702674 0.534760 -0.564873
O8    O     O_R   0.500000 0.316750 0.385360 -0.633299
O9    O     O_R   0.416160 0.499970 0.614690 -0.634358
O10   O     O_R   0.416150 0.499950 0.385360 -0.638072
O11   O     O_R   0.500000 0.683250 0.614640 -0.611727
O12   O     O_R   0.500000 0.683220 0.385310 -0.608200
Zn1   Zn    Zn3+2 0.500000 0.500020 0.653130 0.933270
Zn2   Zn    Zn3+2 0.500000 0.499980 0.346870 0.928832

loop_
_geom_bond_atom_site_label_1
_geom_bond_atom_site_label_2
_ccdc_geom_bond_type
C55   C56   A    
C22   C29   A    
C27   C29   A    
C41   C42   A    
O2    Zn1   S    
C52   H33   S    
C35   C36   A    
C50   H22   S    
C7    H13   S    
C46   H19   S    
C7    C8    A    
C39   O4    S    
C12   C23   A    
C27   H42   S    
C26   C27   A    
C12   C41   A    
C18   C24   A    
C49   H27   S    
C44   H20   S    
C37   C38   A    
C35   N4    A    
C30   C31   A    
C56   H9    S    
C10   C17   A    
C36   N3    A    
C18   C19   A    
C46   C47   S    
O1    Zn1   S    
C57   O6    S    
C20   H40   S    
C19   C20   A    
C28   O3    A    
C8    C9    A    
O12   Zn2   S    
C34   C57   A    
C13   C28   S    
C40   O5    S    
C25   C26   A    
C12   H1    S    
C10   H14   S    
C4    O9    A    
C13   C14   A    
C1    C25   S    
C18   H38   S    
C5    H11   S    
C46   H18   S    
C55   H8    S    
C44   C46   S    
C38   H7    S    
C23   H3    S    
C51   C52   S    
C4    O10   A    
C24   C25   A    
C47   H16   S    
C4    C6    S    
C2    C54   A    
C39   C43   A    
C2    N2    A    
C16   C29   S    
C37   N3    A    
C42   C45   A    
C38   N4    A    
C3    C9    A    
C15   H23   S    
C1    O1    A    
C28   O2    A    
C33   H6    S    
C23   C34   A    
C11   C44   S    
C53   H30   S    
C34   C45   A    
C8    C51   S    
C37   H2    S    
N3    Zn2   S    
C51   H36   S    
O10   Zn2   S    
C40   C41   A    
C45   C54   A    
C31   C48   S    
O3    Zn2   S    
C53   H32   S    
C14   H12   S    
C48   H29   S    
C52   H35   S    
C42   C43   A    
C16   O12   A    
O9    Zn1   S    
C52   C53   S    
C50   H25   S    
C15   C17   A    
C54   C55   A    
C2    O7    S    
C14   C15   A    
C31   C32   A    
C3    H10   S    
C47   H17   S    
C3    C5    A    
C16   O11   A    
C40   N1    A    
O11   Zn1   S    
C6    C7    A    
C57   N2    A    
C30   C36   A    
O8    Zn2   S    
C32   C33   A    
C49   H26   S    
C44   H21   S    
N4    Zn1   S    
C26   H34   S    
C32   H5    S    
C1    O8    A    
C21   H41   S    
C11   C13   A    
C39   N1    A    
C5    C6    A    
C48   C49   S    
C33   C35   A    
C53   H31   S    
C22   C24   A    
C17   N1    S    
C47   H15   S    
C10   C11   A    
C51   H37   S    
C43   C56   A    
C20   C21   A    
C9    N2    S    
C49   C50   S    
C30   H4    S    
C48   H28   S    
C21   C22   A    
C19   H39   S    
C50   H24   S    
