data_mof_unit_29736.cif
_audit_creation_date              2012-12-10T16:51:32-0500
_audit_creation_method            fapswitch 2.2
_symmetry_space_group_name_H-M    P1
_symmetry_Int_Tables_number       1
_space_group_crystal_system       triclinic
_cell_length_a                    7.828564
_cell_length_b                    8.571132
_cell_length_c                    12.125302
_cell_angle_alpha                 92.291166
_cell_angle_beta                  101.225814
_cell_angle_gamma                 94.196925
_cell_volume                      794.673647143

loop_
_atom_site_label
_atom_site_type_symbol
_atom_type_description
_atom_site_fract_x
_atom_site_fract_y
_atom_site_fract_z
_atom_type_partial_charge
C1    C     C_R   0.044710 0.794751 0.497406 0.969531
C2    C     C_R   0.159119 0.503832 0.831857 -0.120212
C3    C     C_2   0.068050 0.958527 0.496170 -0.393684
C4    C     C_R   0.106030 0.503633 0.710234 0.852141
C5    C     C_2   0.932471 0.041597 0.504923 -0.386853
C6    C     C_R   0.955471 0.205286 0.502977 0.956265
C7    C     C_R   0.892307 0.488231 0.289762 0.867797
C8    C     C_R   0.810465 0.287880 0.003531 -0.187365
C9    C     C_R   0.829591 0.456580 0.170329 -0.068929
C10   C     C_R   0.072938 0.594337 0.899377 -0.179466
C11   C     C_R   0.143842 0.624097 0.012917 -0.129357
C12   C     C_R   0.395807 0.483199 0.989942 0.080837
C13   C     C_R   0.305572 0.572087 0.057966 -0.200665
C14   C     C_R   0.310498 0.433127 0.879974 0.077947
C15   C     C_R   0.568263 0.443016 0.027082 0.080646
C16   C     C_R   0.641666 0.332664 0.963237 0.166664
C17   C     C_R   0.544176 0.266891 0.861517 -0.245348
C18   C     C_R   0.380421 0.316703 0.820016 -0.202549
C19   C     C_R   0.671010 0.512465 0.125434 -0.269792
C20   C     C_R   0.902881 0.346935 0.108717 -0.182607
H1    H     H_    0.026707 0.302320 0.143736 0.157297
H2    H     H_    0.308294 0.262008 0.741016 0.169692
H3    H     H_    0.195766 0.010132 0.487906 0.178244
H4    H     H_    0.076444 0.692545 0.065320 0.144894
H5    H     H_    0.804803 0.990013 0.513295 0.178883
H6    H     H_    0.469709 0.375244 0.416383 0.189038
H7    H     H_    0.530287 0.624721 0.583639 0.191102
H8    H     H_    0.595679 0.179142 0.813045 0.148279
H9    H     H_    0.867345 0.202767 0.956129 0.136467
H10   H     H_    0.626889 0.606083 0.172226 0.148796
H11   H     H_    0.953955 0.646401 0.863644 0.157301
H12   H     H_    0.354762 0.599725 0.146571 0.140645
N1    N     N_2   0.434800 0.456690 0.470850 -0.174693
N2    N     N_2   0.565200 0.543310 0.529150 -0.171041
O1    O     O_R   0.893060 0.738880 0.507150 -0.611087
O2    O     O_R   0.172250 0.711130 0.488470 -0.624704
O3    O     O_R   0.944700 0.520730 0.667600 -0.612390
O4    O     O_R   0.223890 0.492980 0.648920 -0.616690
O5    O     O_R   0.827750 0.288870 0.511530 -0.624151
O6    O     O_R   0.106940 0.261120 0.492850 -0.617383
O7    O     O_R   0.776110 0.507020 0.351080 -0.617648
O8    O     O_R   0.055300 0.479270 0.332400 -0.619371
Zn1   Zn    Zn3+2 0.813580 0.518530 0.512470 0.934875
Zn2   Zn    Zn3+2 0.186420 0.481470 0.487530 0.928647

loop_
_geom_bond_atom_site_label_1
_geom_bond_atom_site_label_2
_ccdc_geom_bond_type
O3    Zn1   S    
C2    C4    S    
O4    Zn2   S    
O1    Zn1   S    
C14   C18   A    
C13   H12   S    
C3    H3    S    
C12   C15   A    
O6    Zn2   S    
C1    O2    A    
C20   H1    S    
N1    N2    D    
C19   H10   S    
C8    C16   A    
C12   C13   A    
C15   C19   A    
O7    Zn1   S    
C8    C20   A    
O8    Zn2   S    
C5    H5    S    
C8    H9    S    
C12   C14   A    
C17   C18   A    
C7    O7    A    
H7    N2    S    
C5    C6    S    
C2    C14   A    
C6    O6    A    
O2    Zn2   S    
C10   C11   A    
C15   C16   A    
C2    C10   A    
C3    C5    D    
C11   H4    S    
C11   C13   A    
C4    O3    A    
C1    O1    A    
C7    O8    A    
C7    C9    S    
C6    O5    A    
O5    Zn1   S    
C9    C20   A    
C1    C3    S    
C18   H2    S    
C17   H8    S    
C10   H11   S    
C9    C19   A    
N2    Zn1   S    
H6    N1    S    
C4    O4    A    
C16   C17   A    
N1    Zn2   S    
