data_mof_unit_17204.cif
_audit_creation_date              2012-12-10T16:37:38-0500
_audit_creation_method            fapswitch 2.2
_symmetry_space_group_name_H-M    P1
_symmetry_Int_Tables_number       1
_space_group_crystal_system       triclinic
_cell_length_a                    10.884453
_cell_length_b                    10.886071
_cell_length_c                    15.427776
_cell_angle_alpha                 97.017547
_cell_angle_beta                  74.882806
_cell_angle_gamma                 98.506753
_cell_volume                      1738.64312898

loop_
_atom_site_label
_atom_site_type_symbol
_atom_type_description
_atom_site_fract_x
_atom_site_fract_y
_atom_site_fract_z
_atom_type_partial_charge
Br1   Br    Br    0.704085 0.044993 0.407757 -0.500266
Br2   Br    Br    0.281943 0.974493 0.593557 -0.407044
Br3   Br    Br    0.593072 0.143879 0.835732 -0.416911
Br4   Br    Br    0.363789 0.265555 0.785603 -0.416507
C1    C     C_R   0.158986 0.479862 0.518768 0.725476
C2    C     C_R   0.505595 0.479004 0.120721 -0.295942
C3    C     C_R   0.654695 0.330217 0.111255 0.389943
C4    C     C_R   0.841964 0.520978 0.480573 0.922219
C5    C     C_R   0.409531 0.569263 0.842847 -0.249394
C6    C     C_2   0.978323 0.530562 0.476703 -0.414956
C7    C     C_2   0.021807 0.466787 0.529877 0.407587
C8    C     C_2   0.544282 0.968263 0.479270 -0.019583
C9    C     C_2   0.451478 0.036828 0.526791 0.095267
C10   C     C_R   0.468496 0.168101 0.519804 0.908108
C11   C     C_R   0.529448 0.833715 0.481182 0.884023
C12   C     C_R   0.357400 0.714126 0.976824 0.472393
C13   C     C_R   0.556072 0.443311 0.258617 0.850993
C14   C     C_R   0.441654 0.551059 0.742696 0.887528
C15   C     C_R   0.653665 0.295604 0.019761 0.469983
C16   C     C_R   0.575399 0.418211 0.161541 -0.153538
C17   C     C_R   0.356468 0.678510 0.886907 0.405912
C18   C     C_3   0.679021 0.200353 0.211182 -0.261123
C19   C     C_3   0.986050 0.356296 0.656473 -0.161029
C20   C     C_3   0.737371 0.106689 0.995995 -0.137595
C21   C     C_3   0.182420 0.729871 0.851397 -0.110501
C22   C     C_3   0.410933 0.916453 0.023152 -0.217431
C23   C     C_R   0.406407 0.640060 0.024109 -0.333852
C24   C     C_R   0.451335 0.525870 0.984048 0.043932
C25   C     C_R   0.443116 0.485927 0.894736 -0.113668
C26   C     C_R   0.508773 0.452529 0.029066 0.034466
C27   C     C_R   0.571875 0.350027 0.980679 -0.166387
C28   C     C_R   0.543929 0.301328 0.897382 0.270265
C29   C     C_R   0.466980 0.362884 0.860978 0.272136
H1    H     H_    0.445230 0.543836 0.163595 0.157736
H2    H     H_    0.641006 0.073997 0.038039 0.088666
H3    H     H_    0.811985 0.107553 0.033254 0.203490
H4    H     H_    0.758822 0.037138 0.936965 0.189704
H5    H     H_    0.129877 0.747921 0.923044 0.166871
H6    H     H_    0.156600 0.631490 0.826420 0.124318
H7    H     H_    0.150446 0.790926 0.811134 0.202813
H8    H     H_    0.477535 0.928338 0.955577 0.198434
H9    H     H_    0.464010 0.896936 0.071549 0.125021
H10   H     H_    0.371670 0.006246 0.047829 0.203067
H11   H     H_    0.410188 0.676608 0.091541 0.171467
H12   H     H_    0.044509 0.592626 0.430794 0.121768
H13   H     H_    0.584275 0.154158 0.201628 0.130052
H14   H     H_    0.667225 0.246880 0.280463 0.190386
H15   H     H_    0.740692 0.125698 0.205179 0.212747
H16   H     H_    0.010262 0.445079 0.695999 0.127606
H17   H     H_    0.069882 0.302755 0.633393 0.163686
H18   H     H_    0.909245 0.299047 0.702229 0.225191
O1    O     O_3   0.500000 0.500000 0.500000 -0.528024
O2    O     O_R   0.463530 0.379110 0.309170 -0.655426
O3    O     O_R   0.388210 0.611730 0.699360 -0.597391
O4    O     O_R   0.624720 0.532760 0.292120 -0.619197
O5    O     O_R   0.523540 0.476390 0.699360 -0.617243
O6    O     O_3   0.742266 0.286641 0.147515 -0.598626
O7    O     O_3   0.939941 0.377873 0.582869 -0.564837
O8    O     O_3   0.744985 0.224887 0.964444 -0.562486
O9    O     O_3   0.316023 0.758803 0.840112 -0.549562
O10   O     O_3   0.308236 0.822369 0.018749 -0.582866
O11   O     O_R   0.537910 0.240570 0.564270 -0.573387
O12   O     O_R   0.438950 0.782540 0.540270 -0.602234
O13   O     O_R   0.222350 0.398740 0.468260 -0.619612
O14   O     O_R   0.800790 0.578160 0.427210 -0.639818
O15   O     O_R   0.212140 0.566330 0.564260 -0.649078
O16   O     O_R   0.764730 0.456770 0.540270 -0.565515
O17   O     O_R   0.412790 0.208310 0.468260 -0.645877
O18   O     O_R   0.610350 0.768590 0.427210 -0.611422
Zn1   Zn    Zn3+2 0.580150 0.419820 0.574680 1.072148
Zn2   Zn    Zn3+2 0.401380 0.373730 0.437510 0.995984
Zn3   Zn    Zn3+2 0.631680 0.593260 0.413140 1.018637
Zn4   Zn    Zn3+2 0.386790 0.613180 0.574670 1.028304

loop_
_geom_bond_atom_site_label_1
_geom_bond_atom_site_label_2
_ccdc_geom_bond_type
C15   O8    S    
O18   Zn3   S    
C18   H15   S    
O14   Zn3   S    
C12   C17   A    
O1    Zn3   S    
C21   O9    S    
C14   O5    A    
C21   H5    S    
C19   O7    S    
C7    O7    S    
C2    C16   A    
C13   O4    A    
C19   H18   S    
O4    Zn3   S    
C8    C11   S    
C5    C25   A    
C26   C27   A    
O16   Zn1   S    
C15   C27   A    
C28   C29   A    
C13   C16   S    
C12   C23   A    
C24   C26   A    
C18   H14   S    
C13   O2    A    
C4    O14   A    
O1    Zn2   S    
C22   H8    S    
C9    C10   S    
C21   H6    S    
O2    Zn2   S    
C5    C17   A    
C17   O9    S    
C20   H3    S    
Br1   C8    S    
C6    H12   S    
O17   Zn2   S    
C18   O6    S    
C24   C25   A    
C2    C26   A    
C22   O10   S    
C3    O6    S    
C22   H10   S    
C1    C7    S    
C3    C15   A    
C20   O8    S    
C21   H7    S    
Br3   C28   S    
C11   O18   A    
C19   H16   S    
C20   H2    S    
O1    Zn1   S    
C6    C7    D    
C14   O3    A    
O3    Zn4   S    
C25   C29   A    
C5    C14   S    
O5    Zn1   S    
C8    C9    D    
O11   Zn1   S    
C4    O16   A    
C4    C6    S    
O1    Zn4   S    
C12   O10   S    
O13   Zn2   S    
C23   C24   A    
C22   H9    S    
Br2   C9    S    
C11   O12   A    
Br4   C29   S    
C19   H17   S    
C10   O17   A    
C20   H4    S    
O12   Zn4   S    
C2    H1    S    
C18   H13   S    
O15   Zn4   S    
C23   H11   S    
C3    C16   A    
C27   C28   A    
C1    O13   A    
C1    O15   A    
C10   O11   A    
