data_mof_unit_58189.cif
_audit_creation_date              2012-12-10T21:34:51-0500
_audit_creation_method            fapswitch 2.2
_symmetry_space_group_name_H-M    P1
_symmetry_Int_Tables_number       1
_space_group_crystal_system       triclinic
_cell_length_a                    10.695664
_cell_length_b                    16.123936
_cell_length_c                    16.765783
_cell_angle_alpha                 90.034132
_cell_angle_beta                  90.590448
_cell_angle_gamma                 93.979061
_cell_volume                      2884.23790964

loop_
_atom_site_label
_atom_site_type_symbol
_atom_type_description
_atom_site_fract_x
_atom_site_fract_y
_atom_site_fract_z
_atom_type_partial_charge
C1    C     C_R   0.497126 0.490615 0.653151 0.971877
C2    C     C_3   0.122285 0.498606 0.501650 -0.069998
C3    C     C_3   0.079999 0.554372 0.432534 -0.416910
C4    C     C_3   0.081720 0.531114 0.583839 -0.452600
C5    C     C_R   0.493917 0.488600 0.739584 -0.106441
C6    C     C_R   0.481003 0.562786 0.781656 -0.256393
C7    C     C_R   0.484712 0.563649 0.864408 0.425883
C8    C     C_R   0.496612 0.488163 0.904944 0.206123
C9    C     C_R   0.510159 0.414467 0.863111 -0.157638
C10   C     C_R   0.508370 0.414389 0.780545 -0.162686
C11   C     C_R   0.455356 0.427768 0.138720 0.290480
C12   C     C_R   0.743102 0.501337 0.500931 1.002032
C13   C     C_R   0.510432 0.437080 0.214931 0.324782
C14   C     C_R   0.408290 0.497953 0.101726 0.191518
C15   C     C_R   0.487188 0.508920 0.260102 -0.191388
C16   C     C_R   0.428303 0.574694 0.224631 -0.291440
C17   C     C_R   0.392946 0.570185 0.145012 -0.133102
C18   C     C_R   0.562379 0.764720 0.448733 -0.053307
C19   C     C_R   0.577130 0.852177 0.455270 0.204341
C20   C     C_R   0.537524 0.891327 0.526290 0.103659
C21   C     C_R   0.488472 0.839505 0.588119 0.299749
C22   C     C_R   0.478744 0.752746 0.578205 -0.049421
C23   C     C_R   0.502159 0.509069 0.346606 1.035852
C24   C     C_R   0.589402 0.162354 0.537700 0.252077
C25   C     C_R   0.573423 0.249012 0.536888 -0.184680
C26   C     C_R   0.509027 0.108975 0.489161 0.179372
C27   C     C_R   0.406528 0.231271 0.443211 0.568226
C28   C     C_R   0.419644 0.145427 0.442603 -0.285749
C29   C     C_R   0.257736 0.499133 0.500467 0.898582
C30   C     C_3   0.920160 0.411927 0.499849 -0.488665
C31   C     C_3   0.061052 0.409985 0.490170 -0.345514
C32   C     C_3   0.937165 0.544563 0.423823 0.265397
C33   C     C_3   0.939517 0.547217 0.583584 0.653872
C34   C     C_3   0.880285 0.504678 0.503100 -0.231442
H1    H     H_    0.591055 0.734298 0.395162 0.199691
N1    N     N_2   0.500055 0.485087 0.988069 -0.087441
N2    N     N_2   0.399172 0.502173 0.018297 -0.049431
N3    N     N_R   0.515460 0.716920 0.509720 -0.136685
N4    N     N_2   0.546009 0.980002 0.538723 0.000858
N5    N     N_2   0.513703 0.020600 0.479538 -0.056431
N6    N     N_R   0.484530 0.283060 0.490290 -0.170768
O1    O     O_R   0.494470 0.422540 0.612660 -0.633953
O2    O     O_R   0.504400 0.561840 0.618900 -0.616763
O3    O     O_R   0.680240 0.430340 0.496890 -0.615057
O4    O     O_R   0.690170 0.569650 0.503130 -0.526631
O5    O     O_R   0.495600 0.438160 0.381100 -0.527623
O6    O     O_R   0.505530 0.577460 0.387340 -0.643599
O7    O     O_R   0.309830 0.430350 0.496870 -0.585088
O8    O     O_R   0.319760 0.569660 0.503110 -0.638616
Zn1   Zn    Zn3+2 0.493370 0.406980 0.495830 1.070424
Zn2   Zn    Zn3+2 0.506630 0.593020 0.504170 1.047715
H2    H     H_    0.874415 0.377300 0.448746 0.219930
H3    H     H_    0.141269 0.587741 0.601153 0.222275
S1    S     S_3+6 0.873874 0.633213 0.375047 0.091888
O9    O     O_2   0.823406 0.694587 0.431216 -0.200886
O10   O     O_2   0.974720 0.677293 0.325873 -0.237609
O11   O     O_3   0.757814 0.597927 0.313044 -0.543929
H4    H     H_    0.728950 0.648162 0.286531 0.393203
H5    H     H_    0.113767 0.619867 0.443191 0.272699
S2    S     S_3+6 0.620929 0.366124 0.248457 0.132619
O12   O     O_2   0.553804 0.293237 0.289098 -0.204921
O13   O     O_2   0.692998 0.335397 0.179252 -0.193311
O14   O     O_3   0.724050 0.413188 0.312926 -0.568697
H6    H     H_    0.793854 0.376031 0.315988 0.371188
S3    S     S_3+6 0.437522 0.329583 0.089490 0.113859
O15   O     O_2   0.554449 0.314829 0.044194 -0.246070
O16   O     O_2   0.412961 0.260931 0.149005 -0.163043
O17   O     O_3   0.315754 0.328539 0.025079 -0.531613
H7    H     H_    0.320236 0.276600 0.993976 0.394198
H8    H     H_    0.521396 0.356902 0.894635 0.221370
H9    H     H_    0.519689 0.356804 0.748959 0.196228
H10   H     H_    0.409807 0.629718 0.258457 0.201960
S4    S     S_3+6 0.478368 0.659579 0.915157 0.077125
O18   O     O_2   0.566312 0.662648 0.985795 -0.259641
O19   O     O_2   0.514454 0.730683 0.860174 -0.219123
O20   O     O_3   0.331153 0.668278 0.946687 -0.522579
H11   H     H_    0.334769 0.720953 0.977321 0.394047
H12   H     H_    0.355832 0.623573 0.116387 0.213069
H13   H     H_    0.892347 0.374888 0.552769 0.285112
H14   H     H_    0.470281 0.620457 0.750082 0.220949
H15   H     H_    0.634152 0.290207 0.573314 0.227290
S5    S     S_3+6 0.712545 0.126513 0.597039 0.116263
O21   O     O_2   0.788298 0.070097 0.548719 -0.156992
O22   O     O_2   0.797601 0.198204 0.627053 -0.259689
O23   O     O_3   0.652038 0.073489 0.675544 -0.432046
H16   H     H_    0.596451 0.111892 0.701419 0.363959
S6    S     S_3+6 0.438124 0.881348 0.678827 0.108896
O24   O     O_2   0.551190 0.905014 0.729979 -0.170492
O25   O     O_2   0.367650 0.957205 0.662867 -0.254499
O26   O     O_3   0.344401 0.810328 0.727130 -0.516451
H17   H     H_    0.326139 0.836805 0.778652 0.419075
H18   H     H_    0.442012 0.713290 0.625745 0.194761
S7    S     S_3+6 0.279971 0.263176 0.384543 0.067586
O27   O     O_2   0.162030 0.245242 0.431153 -0.321122
O28   O     O_2   0.291136 0.352749 0.360736 -0.312009
O29   O     O_3   0.269596 0.205261 0.300936 -0.473017
H19   H     H_    0.192431 0.221243 0.273478 0.408038
S8    S     S_3+6 0.650700 0.907772 0.375316 0.122138
O30   O     O_2   0.745336 0.972891 0.407302 -0.148752
O31   O     O_2   0.716325 0.850101 0.321931 -0.231932
O32   O     O_3   0.542311 0.954383 0.321355 -0.475954
H20   H     H_    0.480226 0.908861 0.305231 0.355544
H21   H     H_    0.357469 0.105318 0.405667 0.239623
H22   H     H_    0.097921 0.365962 0.534331 0.246933
H23   H     H_    0.080870 0.387821 0.429143 0.258739
H24   H     H_    0.919454 0.496847 0.376349 0.152001
H25   H     H_    0.123022 0.535929 0.375458 0.169365
S9    S     S_3+6 0.932193 0.659990 0.594379 0.118585
O33   O     O_2   0.800229 0.686114 0.589661 -0.197095
O34   O     O_2   0.983662 0.683757 0.675717 -0.207859
O35   O     O_3   0.021195 0.714341 0.527966 -0.544653
H26   H     H_    0.016898 0.773304 0.543647 0.416384
S10   S     S_3+6 0.865566 0.504077 0.674894 0.054013
O36   O     O_2   0.795262 0.421105 0.662903 -0.340314
O37   O     O_2   0.963501 0.495365 0.738849 -0.258299
O38   O     O_3   0.762441 0.569356 0.709348 -0.493530
H27   H     H_    0.759280 0.559809 0.767671 0.395050
H28   H     H_    0.103750 0.483725 0.628989 0.203114

loop_
_geom_bond_atom_site_label_1
_geom_bond_atom_site_label_2
_ccdc_geom_bond_type
S6    O24   D    
C21   S6    S    
O32   H20   S    
C4    H3    S    
S4    O19   D    
S4    O18   D    
C19   C20   A    
C16   H10   S    
O2    Zn2   S    
O11   H4    S    
C7    C8    A    
C7    S4    S    
C13   S2    S    
C29   O8    A    
O23   H16   S    
O38   H27   S    
S7    O27   D    
S2    O14   S    
C1    C5    S    
N1    N2    D    
C24   C26   A    
C5    C6    A    
C11   C14   A    
O4    Zn2   S    
C15   C16   A    
C22   N3    A    
S9    O33   D    
S2    O13   D    
C18   C19   A    
C8    N1    S    
C24   S5    S    
O17   H7    S    
C1    O2    A    
O35   H26   S    
C8    C9    A    
S3    O16   D    
C9    C10   A    
S10   O38   S    
C10   H9    S    
C15   C23   S    
S7    O28   D    
C23   O5    A    
C32   H24   S    
C21   C22   A    
C25   H15   S    
C31   H23   S    
C14   C17   A    
C4    H28   S    
C33   S9    S    
C32   S1    S    
C19   S8    S    
O20   H11   S    
S1    O10   D    
C23   O6    A    
C30   C34   S    
C29   O7    A    
C9    H8    S    
C25   N6    A    
N4    N5    D    
C20   N4    S    
C16   C17   A    
O6    Zn2   S    
N3    Zn2   S    
O8    Zn2   S    
S2    O12   D    
C32   C34   S    
C2    C4    S    
C27   N6    A    
C6    H14   S    
S3    O17   S    
O29   H19   S    
C33   C34   S    
C24   C25   A    
O1    Zn1   S    
C30   H13   S    
S3    O15   D    
S7    O29   S    
S5    O22   D    
S6    O25   D    
S4    O20   S    
C27   S7    S    
C12   C34   S    
S5    O23   S    
N6    Zn1   S    
S10   O36   D    
C18   H1    S    
O3    Zn1   S    
C4    C33   S    
C30   H2    S    
S1    O9    D    
C26   C28   A    
C12   O4    A    
C6    C7    A    
S8    O32   S    
O5    Zn1   S    
C33   S10   S    
S9    O35   S    
C3    H25   S    
C31   H22   S    
C13   C15   A    
C2    C3    S    
C18   N3    A    
C5    C10   A    
C12   O3    A    
C14   N2    S    
C11   C13   A    
C28   H21   S    
C26   N5    S    
O26   H17   S    
C30   C31   S    
O7    Zn1   S    
C17   H12   S    
S8    O30   D    
S9    O34   D    
C3    C32   S    
S8    O31   D    
O14   H6    S    
C1    O1    A    
C2    C29   S    
C20   C21   A    
S5    O21   D    
S6    O26   S    
C27   C28   A    
C22   H18   S    
C2    C31   S    
C11   S3    S    
S10   O37   D    
S1    O11   S    
C3    H5    S    
