data_mof_unit_48565.cif
_audit_creation_date              2013-03-05T15:52:29-0500
_audit_creation_method            fapswitch 2.2
_symmetry_space_group_name_H-M    P1
_symmetry_Int_Tables_number       1
_space_group_crystal_system       triclinic
_cell_length_a                    27.878354
_cell_length_b                    10.83551
_cell_length_c                    9.598835
_cell_angle_alpha                 89.633104
_cell_angle_beta                  89.79876
_cell_angle_gamma                 94.108311
_cell_volume                      2892.04647035

loop_
_atom_site_label
_atom_site_type_symbol
_atom_site_description
_atom_site_fract_x
_atom_site_fract_y
_atom_site_fract_z
_atom_type_partial_charge
O1    O     O_R   0.500000 0.319640 0.618810 -0.608714
O2    O     O_R   0.500000 0.319660 0.381240 -0.540672
C1    C     C_R   0.502591 0.262475 0.501405 0.782738
O3    O     O_R   0.430260 0.500010 0.618770 -0.515981
O4    O     O_R   0.430270 0.500030 0.381200 -0.497354
C2    C     C_R   0.407335 0.499380 0.500161 0.882931
Cu1   Cu    Cu3+1 0.500000 0.499990 0.640660 0.999117
Cu2   Cu    Cu3+1 0.500000 0.500010 0.359340 1.042322
O5    O     O_R   0.500000 0.680340 0.618760 -0.587732
O6    O     O_R   0.500000 0.680360 0.381190 -0.540569
O7    O     O_R   0.569730 0.499970 0.618800 -0.564232
O8    O     O_R   0.569740 0.499990 0.381230 -0.540072
C3    C     C_R   0.495825 0.736443 0.500115 0.785012
C4    C     C_R   0.592593 0.500337 0.499963 0.860506
C5    C     C_R   0.174333 0.400440 0.543176 0.607254
O9    O     O_2   0.196041 0.302851 0.595286 -0.520823
N1    N     N_R   0.201522 0.501580 0.494096 -0.425079
C6    C     C_R   0.180747 0.601618 0.439557 0.579902
C7    C     C_R   0.277697 0.524815 0.622377 0.366303
C8    C     C_R   0.328711 0.528582 0.623129 0.195600
C9    C     C_R   0.327804 0.471827 0.376301 0.343955
C10   C     C_R   0.277683 0.475841 0.376327 -0.312983
C11   C     C_R   0.252942 0.501978 0.497584 0.262676
C12   C     C_R   0.101691 0.499659 0.483578 -0.047710
C13   C     C_R   0.123947 0.397553 0.538782 -0.041712
C14   C     C_R   0.095558 0.295515 0.589280 -0.139607
C15   C     C_R   0.130474 0.602650 0.433530 -0.036106
C16   C     C_R   0.353887 0.499050 0.500211 -0.173876
H1    H     H_    0.257403 0.456402 0.281928 0.167516
H2    H     H_    0.111745 0.216946 0.635154 0.188723
C17   C     C_R   0.645858 0.500874 0.498421 -0.150793
C18   C     C_R   0.971411 0.388969 0.508894 0.008851
C19   C     C_R   0.977829 0.606846 0.435608 0.008638
C20   C     C_R   0.949138 0.497819 0.471221 0.065375
C21   C     C_R   0.942322 0.279042 0.529683 -0.198879
C22   C     C_R   0.892235 0.275663 0.526232 0.173249
C23   C     C_R   0.869275 0.386318 0.498621 -0.033887
C24   C     C_R   0.897995 0.497733 0.469878 -0.118959
C25   C     C_R   0.875668 0.609215 0.440742 -0.033702
C26   C     C_R   0.824832 0.606155 0.444579 0.540236
N2    N     N_R   0.798197 0.498823 0.473941 -0.448890
C27   C     C_R   0.818657 0.390425 0.498536 0.542628
C28   C     C_R   0.719011 0.485004 0.361947 0.172841
C29   C     C_R   0.669127 0.485953 0.370439 -0.287635
C30   C     C_R   0.673336 0.515776 0.621831 0.368772
C31   C     C_R   0.724376 0.517097 0.614126 0.080349
C32   C     C_R   0.746732 0.500693 0.483460 0.335378
O10   O     O_2   0.789463 0.288136 0.523882 -0.545852
C33   C     C_R   0.022248 0.392203 0.522942 0.049788
C34   C     C_R   0.050735 0.498792 0.478497 0.082392
C35   C     C_R   0.028773 0.604586 0.429255 0.049202
C36   C     C_R   0.045731 0.292841 0.582167 -0.208820
H3    H     H_    0.648254 0.473966 0.275857 0.196306
H4    H     H_    0.958140 0.192199 0.545142 0.138286
H5    H     H_    0.026572 0.212758 0.628286 0.140687
O11   O     O_2   0.208689 0.699837 0.391851 -0.522905
C37   C     C_R   0.108563 0.703582 0.377449 -0.132919
H6    H     H_    0.129870 0.782703 0.335101 0.190656
C38   C     C_R   0.954900 0.716141 0.410309 -0.197335
C39   C     C_R   0.904961 0.719430 0.411780 0.177022
O12   O     O_2   0.801495 0.708819 0.420432 -0.546828
C40   C     C_R   0.058758 0.704577 0.374688 -0.207558
H7    H     H_    0.975520 0.802900 0.393900 0.139153
H8    H     H_    0.044880 0.784096 0.325287 0.141265
H9    H     H_    0.506567 0.113111 0.280568 0.169248
C41   C     C_R   0.512886 0.110196 0.765502 -0.170441
H10   H     H_    0.534023 0.196928 0.776621 0.181384
C42   C     C_R   0.500335 0.045828 0.887933 -0.265673
H11   H     H_    0.509452 0.086393 0.988051 0.156660
C43   C     C_R   0.473944 0.932344 0.881495 -0.105000
H12   H     H_    0.460783 0.887509 0.976748 0.157949
C44   C     C_R   0.464009 0.877004 0.752866 0.434354
C45   C     C_R   0.484062 0.933510 0.628753 -0.031143
C46   C     C_R   0.500583 0.059297 0.633600 0.069575
C47   C     C_R   0.504199 0.127466 0.506022 -0.089138
C48   C     C_R   0.502916 0.064113 0.379206 -0.187176
H13   H     H_    0.501585 0.890067 0.278687 0.166316
C49   C     C_R   0.498373 0.936391 0.377620 -0.188855
C50   C     C_R   0.490114 0.869627 0.501753 -0.128464
C51   C     C_R   0.560473 0.690398 0.133053 0.456280
C52   C     C_R   0.581669 0.786646 0.049701 -0.291551
H14   H     H_    0.602558 0.864314 0.095200 0.154390
C53   C     C_R   0.581800 0.777783 0.908249 -0.257131
H15   H     H_    0.602027 0.847116 0.845685 0.177288
C54   C     C_R   0.558811 0.676255 0.846899 -0.036534
H16   H     H_    0.566138 0.671994 0.739087 0.214414
C55   C     C_R   0.528999 0.588307 0.922270 0.145986
C56   C     C_R   0.529317 0.591177 0.072199 0.054345
N3    N     N_R   0.500460 0.501210 0.147910 -0.198810
C57   C     C_R   0.472145 0.415486 0.075424 0.511787
H17   H     H_    0.449758 0.348266 0.870515 0.148581
C58   C     C_R   0.472324 0.416324 0.926660 -0.129123
N4    N     N_R   0.500480 0.501290 0.852040 -0.194791
O13   O     O_3   0.351680 0.440875 0.256423 -0.660251
H18   H     H_    0.328159 0.424819 0.180235 0.333328
O14   O     O_3   0.250921 0.542120 0.741050 -0.703251
H19   H     H_    0.269109 0.515545 0.823055 0.336872
O15   O     O_3   0.649186 0.530578 0.746319 -0.733929
H20   H     H_    0.671155 0.529703 0.826572 0.333366
C59   C     C_3   0.885027 0.843300 0.382375 -0.768745
H21   H     H_    0.862404 0.837519 0.287375 0.260241
H22   H     H_    0.863961 0.872036 0.473380 0.257961
H23   H     H_    0.913689 0.918143 0.363190 0.196092
C60   C     C_3   0.754773 0.537401 0.743745 -0.835190
H24   H     H_    0.746774 0.460026 0.818584 0.229561
H25   H     H_    0.793966 0.542454 0.723046 0.239248
H26   H     H_    0.746966 0.626308 0.792900 0.234571
O16   O     O_3   0.431611 0.774687 0.751932 -0.679016
H27   H     H_    0.417515 0.766980 0.657440 0.324489
O17   O     O_3   0.443391 0.329107 0.149150 -0.665220
H28   H     H_    0.425449 0.273590 0.082675 0.302992
O18   O     O_3   0.575166 0.690588 0.268699 -0.694641
H29   H     H_    0.596274 0.765332 0.291665 0.301034
C61   C     C_3   0.742612 0.466753 0.222800 -0.808820
H30   H     H_    0.715797 0.454216 0.137789 0.217810
H31   H     H_    0.767247 0.548689 0.196581 0.246170
H32   H     H_    0.763458 0.383267 0.226782 0.239938
C62   C     C_3   0.865295 0.151546 0.553912 -0.753091
H33   H     H_    0.889837 0.076997 0.573099 0.192615
H34   H     H_    0.842696 0.156257 0.648903 0.261612
H35   H     H_    0.843004 0.123239 0.462348 0.260583
O19   O     O_3   0.354532 0.563575 0.740716 -0.678981
H36   H     H_    0.336235 0.622151 0.794755 0.350482

loop_
_geom_bond_atom_site_label_1
_geom_bond_atom_site_label_2
_geom_bond_distance
_ccdc_geom_bond_type
C41   C42   1.393412 A    
C55   C56   1.439727 A    
C3    C50   1.463349 S    
C10   H1    1.083532 S    
N2    C27   1.361636 A    
C7    C8    1.419877 A    
C12   C15   1.407884 A    
C4    C17   1.484542 S    
C47   C48   1.400645 A    
C60   H25   1.107295 S    
C52   H14   1.083687 S    
C37   C40   1.389659 A    
C54   H16   1.056078 S    
Cu1   O7    1.954532 S    
N1    C11   1.433717 S    
H9    C48   1.083434 S    
C22   C23   1.422895 A    
C48   C49   1.380841 A    
C30   O15   1.385340 S    
C28   C61   1.507255 S    
O4    C2    1.306475 A    
O7    C4    1.304581 A    
C5    C13   1.403562 A    
C9    O13   1.382445 S    
C5    O9    1.349678 S    
C41   C46   1.417646 A    
O16   H27   0.991373 S    
C5    N1    1.367238 A    
C45   C46   1.408188 A    
C23   C27   1.415037 A    
O5    C3    1.297025 A    
C62   H33   1.110272 S    
C58   N4    1.364118 A    
C40   H8    1.077392 S    
O17   H28   0.991589 S    
C29   H3    1.083570 S    
C2    C16   1.489786 S    
C44   O16   1.379021 S    
C42   H11   1.082808 S    
C43   H12   1.083060 S    
C1    C47   1.467168 S    
C8    O19   1.381299 S    
C36   H5    1.077614 S    
C6    O11   1.349663 S    
C41   H10   1.078985 S    
C38   C39   1.395230 A    
C19   C38   1.405701 A    
O1    Cu1   1.966742 S    
C9    C10   1.401090 A    
C21   H4    1.077064 S    
C35   C40   1.416634 A    
O3    Cu1   1.956309 S    
C60   H24   1.110437 S    
C52   C53   1.361794 A    
C61   H30   1.110989 S    
C54   C55   1.412707 A    
C12   C34   1.420934 A    
Cu1   N4    2.029226 S    
C17   C29   1.402890 A    
C18   C21   1.404867 A    
Cu1   Cu2   2.700343 S    
C12   C13   1.408189 A    
O3    C2    1.307401 A    
C15   C37   1.396229 A    
H17   C58   1.082136 S    
C49   C50   1.399734 A    
C44   C45   1.429563 A    
C8    C16   1.420678 A    
C34   C35   1.417048 A    
C13   C14   1.396012 A    
C30   C31   1.423623 A    
C31   C60   1.516149 S    
C59   H23   1.110955 S    
C39   C59   1.514304 S    
C26   O12   1.347567 S    
O1    C1    1.293707 A    
C21   C22   1.394722 A    
C18   C20   1.417195 A    
C7    C11   1.399121 A    
C28   C29   1.393546 A    
C23   C24   1.424881 A    
C14   C36   1.389246 A    
C57   C58   1.427920 A    
C53   H15   1.083571 S    
Cu2   O8    1.956304 S    
C33   C36   1.416585 A    
O14   H19   0.990183 S    
C51   O18   1.366299 S    
C59   H22   1.109528 S    
N1    C6    1.367226 A    
N2    C32   1.438934 S    
C27   O10   1.347575 S    
C56   N3    1.414256 A    
Cu2   O6    1.966742 S    
C26   N2    1.361606 A    
C53   C54   1.370292 A    
C9    C16   1.417834 A    
O8    C4    1.307540 A    
C14   H2    1.083485 S    
C57   O17   1.378206 S    
C25   C26   1.415563 A    
C22   C62   1.514140 S    
Cu1   O5    1.964119 S    
C31   C32   1.416480 A    
C20   C24   1.425828 A    
C10   C11   1.391849 A    
O2    Cu2   1.964120 S    
C6    C15   1.403772 A    
C51   C52   1.405220 A    
C45   C50   1.421200 A    
O6    C3    1.305387 A    
O4    Cu2   1.954535 S    
C61   H31   1.109862 S    
C19   C35   1.423293 A    
C38   H7    1.076590 S    
O2    C1    1.310515 A    
O19   H36   0.990376 S    
C51   C56   1.459205 A    
C37   H6    1.083478 S    
C24   C25   1.424588 A    
C25   C39   1.422960 A    
C55   N4    1.371166 A    
C59   H21   1.110112 S    
O15   H20   0.986238 S    
C19   C20   1.417656 A    
O18   H29   0.992826 S    
O13   H18   0.991845 S    
C62   H34   1.109991 S    
C18   C33   1.422065 A    
C61   H32   1.110205 S    
C46   C47   1.425582 A    
C42   C43   1.388829 A    
C33   C34   1.416507 A    
C17   C30   1.416771 A    
H13   C49   1.083382 S    
C43   C44   1.396007 A    
Cu2   N3    2.029430 S    
N3    C57   1.370076 A    
C28   C32   1.405945 A    
C62   H35   1.110282 S    
C60   H26   1.110488 S    
C7    O14   1.380879 S    
