data_mof_unit_63850.cif
_audit_creation_date              2013-03-05T15:55:44-0500
_audit_creation_method            fapswitch 2.2
_symmetry_space_group_name_H-M    P1
_symmetry_Int_Tables_number       1
_space_group_crystal_system       triclinic
_cell_length_a                    24.361078
_cell_length_b                    24.361289
_cell_length_c                    42.913136
_cell_angle_alpha                 89.999057
_cell_angle_beta                  89.998603
_cell_angle_gamma                 89.923307
_cell_volume                      25467.5184786

loop_
_atom_site_label
_atom_site_type_symbol
_atom_site_description
_atom_site_fract_x
_atom_site_fract_y
_atom_site_fract_z
_atom_type_partial_charge
Zn1   Zn    Zn3+2 0.500000 0.934510 0.776050 1.132043
Zn2   Zn    Zn3+2 0.500000 0.065490 0.223950 1.123857
Zn3   Zn    Zn3+2 0.065490 0.500000 0.776050 1.123632
Zn4   Zn    Zn3+2 0.934510 0.500000 0.223950 1.131764
Zn5   Zn    Zn3+2 0.500000 0.065490 0.776050 1.131984
Zn6   Zn    Zn3+2 0.500000 0.934510 0.223950 1.123671
Zn7   Zn    Zn3+2 0.934510 0.500000 0.776050 1.123669
Zn8   Zn    Zn3+2 0.065490 0.500000 0.223950 1.132003
Zn9   Zn    Zn3+2 1.000000 0.434510 0.276050 1.131899
Zn10  Zn    Zn3+2 1.000000 0.565490 0.723950 1.123683
Zn11  Zn    Zn3+2 0.565490 0.000000 0.276050 1.123609
Zn12  Zn    Zn3+2 0.434510 1.000000 0.723950 1.132000
Zn13  Zn    Zn3+2 1.000000 0.565490 0.276050 1.131783
Zn14  Zn    Zn3+2 0.000000 0.434510 0.723950 1.123634
Zn15  Zn    Zn3+2 0.434510 0.000000 0.276050 1.123861
Zn16  Zn    Zn3+2 0.565490 1.000000 0.723950 1.132049
C1    C     C_R   0.499977 0.999996 0.933768 -0.006089
C2    C     C_R   0.499966 1.000000 0.066045 -0.006106
C3    C     C_R   0.999998 0.499996 0.933934 -0.006174
C4    C     C_R   0.000002 0.499995 0.066225 -0.006124
C5    C     C_R   0.000006 0.500000 0.433775 -0.006117
C6    C     C_R   0.000008 0.500002 0.566065 -0.006171
C7    C     C_R   0.499995 0.999986 0.433952 -0.006111
C8    C     C_R   0.499999 0.999989 0.566230 -0.006091
C9    C     C_R   0.458302 0.973011 0.917173 -0.143453
C10   C     C_R   0.539524 0.029956 0.082633 -0.145702
C11   C     C_R   0.029213 0.540108 0.917338 -0.145429
C12   C     C_R   0.973283 0.458145 0.082822 -0.143475
C13   C     C_R   0.541659 0.026981 0.917177 -0.143447
C14   C     C_R   0.460413 0.970049 0.082641 -0.145670
C15   C     C_R   0.970783 0.459886 0.917339 -0.145426
C16   C     C_R   0.026721 0.541844 0.082820 -0.143489
C17   C     C_R   0.958164 0.473268 0.417181 -0.143501
C18   C     C_R   0.040101 0.529239 0.582661 -0.145432
C19   C     C_R   0.529868 0.039606 0.417360 -0.145687
C20   C     C_R   0.473004 0.958319 0.582825 -0.143451
C21   C     C_R   0.041847 0.526731 0.417178 -0.143488
C22   C     C_R   0.959913 0.470764 0.582660 -0.145439
C23   C     C_R   0.470125 0.960369 0.417358 -0.145657
C24   C     C_R   0.526995 0.041662 0.582821 -0.143449
O1    O     O_3   0.500000 0.000000 0.750000 -0.569970
O2    O     O_3   0.500000 0.000000 0.250000 -0.565245
O3    O     O_3   0.000000 0.500000 0.750000 -0.565492
O4    O     O_3   0.000000 0.500000 0.250000 -0.569609
O5    O     O_R   0.454060 0.000000 0.680770 -0.609912
O6    O     O_R   0.545940 0.000000 0.319230 -0.612088
O7    O     O_R   0.000000 0.454060 0.680770 -0.611862
O8    O     O_R   0.000000 0.545940 0.319230 -0.610154
O9    O     O_R   0.545940 0.000000 0.680770 -0.609870
O10   O     O_R   0.454060 0.000000 0.319230 -0.611782
O11   O     O_R   0.000000 0.545940 0.680770 -0.611782
O12   O     O_R   0.000000 0.454060 0.319230 -0.610007
O13   O     O_R   0.954060 0.500000 0.180770 -0.610176
O14   O     O_R   0.045940 0.500000 0.819230 -0.611865
O15   O     O_R   0.500000 0.954060 0.180770 -0.612075
O16   O     O_R   0.500000 0.045940 0.819230 -0.609920
O17   O     O_R   0.045940 0.500000 0.180770 -0.609966
O18   O     O_R   0.954060 0.500000 0.819230 -0.611785
O19   O     O_R   0.500000 0.045940 0.180770 -0.611779
O20   O     O_R   0.500000 0.954060 0.819230 -0.609870
O21   O     O_R   0.610280 0.935490 0.731900 -0.593606
O22   O     O_R   0.389720 0.064510 0.268100 -0.594395
O23   O     O_R   0.064510 0.610280 0.731900 -0.603029
O24   O     O_R   0.935490 0.389720 0.268100 -0.603055
O25   O     O_R   0.389720 0.064510 0.731900 -0.593655
O26   O     O_R   0.610280 0.935490 0.268100 -0.594668
O27   O     O_R   0.935490 0.389720 0.731900 -0.603013
O28   O     O_R   0.064510 0.610280 0.268100 -0.603013
O29   O     O_R   0.389720 0.935490 0.268100 -0.603265
O30   O     O_R   0.610280 0.064510 0.731900 -0.602648
O31   O     O_R   0.935490 0.610280 0.268100 -0.594007
O32   O     O_R   0.064510 0.389720 0.731900 -0.594129
O33   O     O_R   0.610280 0.064510 0.268100 -0.603324
O34   O     O_R   0.389720 0.935490 0.731900 -0.602652
O35   O     O_R   0.064510 0.389720 0.268100 -0.593887
O36   O     O_R   0.935490 0.610280 0.731900 -0.594069
O37   O     O_R   0.110280 0.435490 0.231900 -0.593827
O38   O     O_R   0.889720 0.564510 0.768100 -0.594080
O39   O     O_R   0.564510 0.110280 0.231900 -0.603245
O40   O     O_R   0.435490 0.889720 0.768100 -0.602641
O41   O     O_R   0.889720 0.564510 0.231900 -0.594030
O42   O     O_R   0.110280 0.435490 0.768100 -0.594132
O43   O     O_R   0.435490 0.889720 0.231900 -0.603220
O44   O     O_R   0.564510 0.110280 0.768100 -0.602662
O45   O     O_R   0.889720 0.435490 0.768100 -0.603050
O46   O     O_R   0.110280 0.564510 0.231900 -0.602972
O47   O     O_R   0.435490 0.110280 0.768100 -0.593662
O48   O     O_R   0.564510 0.889720 0.231900 -0.594598
O49   O     O_R   0.110280 0.564510 0.768100 -0.603028
O50   O     O_R   0.889720 0.435490 0.231900 -0.603074
O51   O     O_R   0.564510 0.889720 0.768100 -0.593606
O52   O     O_R   0.435490 0.110280 0.231900 -0.594440
C25   C     C_R   0.458034 0.972869 0.884632 0.146873
C26   C     C_R   0.539777 0.030187 0.115173 0.148244
C27   C     C_R   0.029440 0.540347 0.884795 0.147503
C28   C     C_R   0.973132 0.457879 0.115365 0.146509
C29   C     C_R   0.541942 0.027126 0.884637 0.146851
C30   C     C_R   0.460174 0.969822 0.115183 0.148237
C31   C     C_R   0.970557 0.459649 0.884796 0.147492
C32   C     C_R   0.026873 0.542113 0.115362 0.146562
C33   C     C_R   0.957894 0.473116 0.384638 0.146557
C34   C     C_R   0.040338 0.529465 0.615204 0.147519
C35   C     C_R   0.530096 0.039855 0.384819 0.148131
C36   C     C_R   0.472862 0.958047 0.615366 0.146871
C37   C     C_R   0.042113 0.526883 0.384635 0.146541
C38   C     C_R   0.959673 0.470536 0.615203 0.147536
C39   C     C_R   0.469900 0.960126 0.384817 0.148114
C40   C     C_R   0.527140 0.041941 0.615362 0.146876
C41   C     C_R   0.500000 0.999999 0.666032 0.854121
C42   C     C_R   0.499999 0.999998 0.334010 0.858649
C43   C     C_R   0.000001 0.500000 0.665995 0.858224
C44   C     C_R   0.000000 0.500000 0.333968 0.854280
C45   C     C_R   0.000000 0.499999 0.166031 0.854262
C46   C     C_R   0.999999 0.500000 0.834005 0.858223
C47   C     C_R   0.499996 0.000001 0.165989 0.858662
C48   C     C_R   0.499999 0.999999 0.833968 0.854116
H1    H     H_    0.425502 0.952222 0.929415 0.189460
H2    H     H_    0.570641 0.053164 0.070375 0.189390
H3    H     H_    0.051837 0.571657 0.929590 0.189426
H4    H     H_    0.952689 0.425223 0.070581 0.189481
H5    H     H_    0.574455 0.047769 0.929423 0.189463
H6    H     H_    0.429288 0.946844 0.070389 0.189390
H7    H     H_    0.948160 0.428335 0.929591 0.189426
H8    H     H_    0.047316 0.574766 0.070576 0.189471
H9    H     H_    0.925248 0.452664 0.429424 0.189471
H10   H     H_    0.071639 0.551880 0.570409 0.189422
H11   H     H_    0.553008 0.070775 0.429615 0.189396
H12   H     H_    0.452208 0.925526 0.570583 0.189457
H13   H     H_    0.074763 0.547336 0.429419 0.189472
H14   H     H_    0.928377 0.448121 0.570409 0.189425
H15   H     H_    0.446985 0.929197 0.429612 0.189392
H16   H     H_    0.547791 0.074454 0.570575 0.189460
C49   C     C_R   0.605684 0.894316 0.750000 0.957198
C50   C     C_R   0.394377 0.105623 0.250000 0.960300
C51   C     C_R   0.105642 0.605644 0.750000 0.927497
C52   C     C_R   0.894291 0.394293 0.250000 0.935899
C53   C     C_R   0.394317 0.105683 0.750000 0.957397
C54   C     C_R   0.605624 0.894376 0.250000 0.960797
C55   C     C_R   0.894356 0.394358 0.750000 0.927436
C56   C     C_R   0.105708 0.605708 0.249999 0.935650
C57   C     C_R   0.394353 0.894359 0.249998 0.928819
C58   C     C_R   0.605710 0.105709 0.749999 0.934757
C59   C     C_R   0.894318 0.605681 0.250000 0.958179
C60   C     C_R   0.105622 0.394378 0.750000 0.960135
C61   C     C_R   0.605641 0.105649 0.250003 0.928873
C62   C     C_R   0.394291 0.894291 0.750000 0.934720
C63   C     C_R   0.105683 0.394317 0.250000 0.957681
C64   C     C_R   0.894378 0.605622 0.750000 0.959988
C65   C     C_R   0.499991 0.999998 0.868116 -0.117018
C66   C     C_R   0.499983 0.000002 0.131765 -0.124088
C67   C     C_R   0.999998 0.499999 0.868220 -0.123293
C68   C     C_R   0.000002 0.499997 0.131882 -0.117223
C69   C     C_R   0.000002 0.499999 0.368118 -0.117216
C70   C     C_R   0.000003 0.500001 0.631780 -0.123302
C71   C     C_R   0.499998 0.999993 0.368233 -0.124032
C72   C     C_R   0.500001 0.999995 0.631883 -0.117029
C73   C     C_R   0.000008 0.500002 0.531589 0.342960
C74   C     C_R   0.000007 0.500001 0.468250 0.343116
C75   C     C_R   0.499998 0.999987 0.531760 0.343239
C76   C     C_R   0.499995 0.999986 0.468424 0.343092
C77   C     C_R   0.499965 0.999998 0.031573 0.343098
C78   C     C_R   0.499971 0.999996 0.968237 0.343234
C79   C     C_R   0.000001 0.499994 0.031750 0.343117
C80   C     C_R   0.999999 0.499995 0.968410 0.342956
C81   C     C_R   0.199913 0.635747 0.737993 0.244781
C82   C     C_R   0.797177 0.366803 0.255362 0.245718
C83   C     C_R   0.341268 0.177212 0.722551 0.260716
C84   C     C_R   0.648513 0.812896 0.273817 0.246932
C85   C     C_R   0.800083 0.364268 0.737987 0.244759
C86   C     C_R   0.202823 0.633199 0.255344 0.245755
C87   C     C_R   0.658785 0.822842 0.722539 0.260714
C88   C     C_R   0.351236 0.186844 0.273947 0.247301
C89   C     C_R   0.822589 0.658533 0.277404 0.260586
C90   C     C_R   0.186831 0.351229 0.726047 0.247603
C91   C     C_R   0.635961 0.199712 0.262356 0.244593
C92   C     C_R   0.366855 0.797129 0.744860 0.245783
C93   C     C_R   0.177206 0.341263 0.277450 0.260606
C94   C     C_R   0.813244 0.648841 0.726011 0.247721
C95   C     C_R   0.364057 0.800274 0.262318 0.244506
C96   C     C_R   0.633149 0.202869 0.744844 0.245768
C97   C     C_R   0.699694 0.135951 0.237614 0.244316
C98   C     C_R   0.297128 0.866854 0.755145 0.245762
C99   C     C_R   0.841466 0.677408 0.222595 0.260589
C100  C     C_R   0.148770 0.313170 0.773953 0.247606
C101  C     C_R   0.300265 0.864080 0.237667 0.244570
C102  C     C_R   0.702873 0.133143 0.755128 0.245795
C103  C     C_R   0.158739 0.322794 0.222550 0.260630
C104  C     C_R   0.851157 0.686755 0.773989 0.247715
C105  C     C_R   0.322787 0.158731 0.777449 0.260709
C106  C     C_R   0.687103 0.851485 0.226183 0.246898
C107  C     C_R   0.135739 0.699916 0.762011 0.244812
C108  C     C_R   0.866776 0.297191 0.244581 0.245774
C109  C     C_R   0.677158 0.841215 0.777460 0.260714
C110  C     C_R   0.313155 0.148762 0.226054 0.247334
C111  C     C_R   0.864252 0.300086 0.761999 0.244782
C112  C     C_R   0.133201 0.702821 0.244627 0.245667
C113  C     C_R   0.147863 0.647868 0.750001 -0.254231
C114  C     C_R   0.851908 0.351915 0.249987 -0.253745
C115  C     C_R   0.351958 0.148042 0.750000 -0.243235
C116  C     C_R   0.647843 0.852157 0.250000 -0.247835
C117  C     C_R   0.852130 0.352139 0.749998 -0.254177
C118  C     C_R   0.148089 0.648091 0.249992 -0.253469
C119  C     C_R   0.648044 0.851957 0.750000 -0.243080
C120  C     C_R   0.352162 0.147837 0.250000 -0.247756
C121  C     C_R   0.851963 0.648036 0.250000 -0.243869
C122  C     C_R   0.147836 0.352164 0.750000 -0.247432
C123  C     C_R   0.647872 0.147873 0.249996 -0.253940
C124  C     C_R   0.351905 0.851905 0.750002 -0.252839
C125  C     C_R   0.148042 0.351959 0.250000 -0.243520
C126  C     C_R   0.852165 0.647834 0.750000 -0.247407
C127  C     C_R   0.352122 0.852137 0.249996 -0.254073
C128  C     C_R   0.648095 0.148094 0.749992 -0.252899
N1    N     N_R   0.538985 0.027766 0.984398 -0.137543
N2    N     N_R   0.460961 0.972214 0.015412 -0.137536
N3    N     N_R   0.972897 0.460514 0.984574 -0.137501
N4    N     N_R   0.027092 0.539484 0.015587 -0.137509
N5    N     N_R   0.460954 0.972226 0.984398 -0.137534
N6    N     N_R   0.538972 0.027781 0.015411 -0.137552
N7    N     N_R   0.027102 0.539476 0.984572 -0.137508
N8    N     N_R   0.972910 0.460505 0.015589 -0.137505
N9    N     N_R   0.039490 0.527101 0.484411 -0.137516
N10   N     N_R   0.960533 0.472890 0.515427 -0.137508
N11   N     N_R   0.472201 0.960989 0.484587 -0.137553
N12   N     N_R   0.527779 0.038994 0.515598 -0.137542
N13   N     N_R   0.960524 0.472901 0.484413 -0.137510
N14   N     N_R   0.039483 0.527113 0.515425 -0.137507
N15   N     N_R   0.527790 0.038983 0.484584 -0.137560
N16   N     N_R   0.472215 0.960980 0.515601 -0.137542
C129  C     C_R   0.174824 0.742548 0.759297 -0.101741
C130  C     C_R   0.825626 0.256377 0.242292 -0.109369
C131  C     C_R   0.278575 0.196514 0.777025 -0.104992
C132  C     C_R   0.724588 0.807204 0.224276 -0.100328
C133  C     C_R   0.825173 0.257453 0.759274 -0.101741
C134  C     C_R   0.174325 0.743677 0.242405 -0.109584
C135  C     C_R   0.721348 0.803406 0.777050 -0.105073
C136  C     C_R   0.275699 0.193065 0.224170 -0.100366
C137  C     C_R   0.803760 0.721682 0.223060 -0.104791
C138  C     C_R   0.193069 0.275708 0.775833 -0.100348
C139  C     C_R   0.742372 0.175023 0.240225 -0.101755
C140  C     C_R   0.256193 0.825788 0.757248 -0.110048
C141  C     C_R   0.196513 0.278575 0.222976 -0.105015
C142  C     C_R   0.806851 0.724208 0.775864 -0.100362
C143  C     C_R   0.257588 0.825023 0.240329 -0.101692
C144  C     C_R   0.743812 0.174208 0.757220 -0.110075
C145  C     C_R   0.674996 0.242399 0.259660 -0.101638
C146  C     C_R   0.325789 0.756192 0.742764 -0.110072
C147  C     C_R   0.778312 0.696236 0.276938 -0.104788
C148  C     C_R   0.224293 0.306931 0.724167 -0.100348
C149  C     C_R   0.325018 0.757593 0.259622 -0.101648
C150  C     C_R   0.674222 0.243794 0.742720 -0.109993
C151  C     C_R   0.221424 0.303487 0.277025 -0.105003
C152  C     C_R   0.775791 0.693147 0.724137 -0.100359
C153  C     C_R   0.303486 0.221425 0.722975 -0.104994
C154  C     C_R   0.692792 0.775410 0.275723 -0.100345
C155  C     C_R   0.242546 0.674827 0.740712 -0.101740
C156  C     C_R   0.756320 0.325677 0.257572 -0.109555
C157  C     C_R   0.696593 0.778651 0.722950 -0.105072
C158  C     C_R   0.306932 0.224298 0.275831 -0.100355
C159  C     C_R   0.757454 0.325172 0.740678 -0.101783
C160  C     C_R   0.243690 0.674318 0.257538 -0.109660
C161  C     C_R   0.229305 0.729307 0.750005 -0.018103
C162  C     C_R   0.770425 0.270473 0.249934 -0.011357
C163  C     C_R   0.270463 0.229537 0.750000 -0.010207
C164  C     C_R   0.729313 0.770684 0.249999 -0.012210
C165  C     C_R   0.770696 0.270692 0.749974 -0.018064
C166  C     C_R   0.229555 0.729548 0.249972 -0.011224
C167  C     C_R   0.729537 0.770461 0.750000 -0.010121
C168  C     C_R   0.270690 0.229307 0.250001 -0.012257
C169  C     C_R   0.770467 0.729529 0.249999 -0.010570
C170  C     C_R   0.229307 0.270693 0.750000 -0.012183
C171  C     C_R   0.729295 0.229328 0.249938 -0.017880
C172  C     C_R   0.270446 0.770445 0.750005 -0.010912
C173  C     C_R   0.229535 0.270463 0.250000 -0.010310
C174  C     C_R   0.770694 0.729304 0.750000 -0.012203
C175  C     C_R   0.270689 0.770690 0.249974 -0.017976
C176  C     C_R   0.729561 0.229548 0.749971 -0.010936
C177  C     C_R   0.160980 0.797717 0.766004 0.216266
C178  C     C_R   0.838150 0.201832 0.233065 0.206369
C179  C     C_R   0.242850 0.202788 0.802905 0.217180
C180  C     C_R   0.757791 0.799015 0.197603 0.223548
C181  C     C_R   0.839023 0.202282 0.765973 0.216267
C182  C     C_R   0.161759 0.798297 0.233327 0.206093
C183  C     C_R   0.756976 0.797026 0.802964 0.217179
C184  C     C_R   0.242816 0.201553 0.197405 0.223865
C185  C     C_R   0.797835 0.757724 0.197301 0.217069
C186  C     C_R   0.201559 0.242827 0.802600 0.223962
C187  C     C_R   0.797401 0.161396 0.232964 0.215233
C188  C     C_R   0.201374 0.838497 0.765881 0.205922
C189  C     C_R   0.202779 0.242846 0.197099 0.217070
C190  C     C_R   0.798270 0.756993 0.802656 0.224072
C191  C     C_R   0.202527 0.838713 0.233206 0.215663
C192  C     C_R   0.798634 0.161498 0.765847 0.205932
C193  C     C_R   0.661310 0.297447 0.266821 0.215667
C194  C     C_R   0.338501 0.701370 0.734138 0.205930
C195  C     C_R   0.742267 0.702158 0.302696 0.217070
C196  C     C_R   0.257175 0.298440 0.697401 0.223964
C197  C     C_R   0.338733 0.702526 0.266709 0.215720
C198  C     C_R   0.661517 0.298596 0.734053 0.205994
C199  C     C_R   0.257152 0.297220 0.302902 0.217081
C200  C     C_R   0.743008 0.701729 0.697343 0.224074
C201  C     C_R   0.297213 0.257148 0.697095 0.217177
C202  C     C_R   0.700979 0.742205 0.302395 0.223553
C203  C     C_R   0.297718 0.660980 0.734013 0.216273
C204  C     C_R   0.701721 0.338219 0.266700 0.206077
C205  C     C_R   0.702974 0.743023 0.697036 0.217180
C206  C     C_R   0.298443 0.257180 0.302597 0.223864
C207  C     C_R   0.702290 0.338997 0.733938 0.216146
C208  C     C_R   0.298328 0.661748 0.266582 0.206077
N17   N     N_R   0.104943 0.814100 0.770678 0.263033
O53   O     O_R   0.089955 0.836914 0.796752 -0.200979
O54   O     O_R   0.070719 0.812715 0.747417 -0.256178
N18   N     N_R   0.891846 0.186815 0.222307 0.259334
O55   O     O_R   0.921371 0.152077 0.238148 -0.218745
O56   O     O_R   0.907076 0.200450 0.194299 -0.238688
N19   N     N_R   0.245973 0.166969 0.829372 0.257164
O57   O     O_R   0.259113 0.186497 0.856590 -0.234841
O58   O     O_R   0.227122 0.117166 0.827242 -0.224395
N20   N     N_R   0.748631 0.829687 0.169503 0.257399
O59   O     O_R   0.787651 0.859634 0.157708 -0.207098
O60   O     O_R   0.703577 0.822405 0.153765 -0.271892
N21   N     N_R   0.895064 0.185901 0.770637 0.263034
O61   O     O_R   0.910061 0.163063 0.796702 -0.200920
O62   O     O_R   0.929284 0.187319 0.747374 -0.256200
N22   N     N_R   0.107955 0.813471 0.222824 0.259297
O63   O     O_R   0.078561 0.847864 0.238981 -0.219431
O64   O     O_R   0.092538 0.800501 0.194749 -0.237634
N23   N     N_R   0.753727 0.832701 0.829487 0.257120
O65   O     O_R   0.740374 0.813033 0.856641 -0.235038
O66   O     O_R   0.772717 0.882468 0.827496 -0.224363
N24   N     N_R   0.252343 0.171229 0.169222 0.257329
O67   O     O_R   0.213477 0.141438 0.157142 -0.207449
O68   O     O_R   0.297602 0.178705 0.153704 -0.271908
N25   N     N_R   0.834099 0.754991 0.171013 0.257308
O69   O     O_R   0.815003 0.742500 0.143597 -0.234366
O70   O     O_R   0.883993 0.773440 0.173567 -0.224307
N26   N     N_R   0.171241 0.252356 0.830784 0.257300
O71   O     O_R   0.141439 0.213496 0.842863 -0.207625
O72   O     O_R   0.178742 0.297603 0.846308 -0.271763
N27   N     N_R   0.813702 0.105530 0.227605 0.263237
O73   O     O_R   0.835585 0.091316 0.201136 -0.201464
O74   O     O_R   0.813316 0.070692 0.250584 -0.254776
N28   N     N_R   0.185861 0.892548 0.775790 0.259089
O75   O     O_R   0.152214 0.921601 0.758949 -0.220670
O76   O     O_R   0.197469 0.908477 0.803964 -0.236229
N29   N     N_R   0.166946 0.245959 0.170638 0.257191
O77   O     O_R   0.186465 0.259067 0.143411 -0.234820
O78   O     O_R   0.117133 0.227142 0.172785 -0.224284
N30   N     N_R   0.828487 0.747355 0.830865 0.257276
O79   O     O_R   0.858237 0.786170 0.843028 -0.207721
O80   O     O_R   0.820931 0.702046 0.846323 -0.271785
N31   N     N_R   0.186217 0.894631 0.228024 0.263158
O81   O     O_R   0.164007 0.909037 0.201676 -0.201311
O82   O     O_R   0.187010 0.929349 0.251057 -0.255452
N32   N     N_R   0.814158 0.107441 0.775739 0.259073
O83   O     O_R   0.847780 0.078398 0.758877 -0.220752
O84   O     O_R   0.802601 0.091503 0.803919 -0.236199
N33   N     N_R   0.605394 0.313739 0.272036 0.263172
O85   O     O_R   0.591028 0.335968 0.298386 -0.201235
O86   O     O_R   0.570612 0.312858 0.249035 -0.255558
N34   N     N_R   0.392560 0.685847 0.724248 0.259071
O87   O     O_R   0.421601 0.652226 0.741111 -0.220758
O88   O     O_R   0.408500 0.697402 0.696069 -0.236204
N35   N     N_R   0.744992 0.665885 0.328980 0.257312
O89   O     O_R   0.757467 0.684972 0.356401 -0.234357
O90   O     O_R   0.726556 0.615988 0.326417 -0.224312
N36   N     N_R   0.247646 0.328758 0.669216 0.257300
O91   O     O_R   0.286506 0.358558 0.657137 -0.207628
O92   O     O_R   0.202398 0.321257 0.653692 -0.271761
N37   N     N_R   0.394670 0.686223 0.271840 0.263176
O93   O     O_R   0.409130 0.663887 0.298143 -0.201079
O94   O     O_R   0.429374 0.687208 0.248801 -0.255603
N38   N     N_R   0.607490 0.314068 0.724079 0.259102
O95   O     O_R   0.578402 0.347812 0.740838 -0.220454
O96   O     O_R   0.591609 0.302279 0.695921 -0.236479
N39   N     N_R   0.254039 0.333053 0.329363 0.257197
O97   O     O_R   0.240929 0.313536 0.356590 -0.234845
O98   O     O_R   0.272859 0.382865 0.327216 -0.224319
N40   N     N_R   0.752650 0.671516 0.669134 0.257277
O99   O     O_R   0.713836 0.641767 0.656968 -0.207720
O100  O     O_R   0.797961 0.679075 0.653678 -0.271781
N41   N     N_R   0.333032 0.254025 0.670628 0.257162
O101  O     O_R   0.313503 0.240884 0.643410 -0.234839
O102  O     O_R   0.382835 0.272874 0.672757 -0.224389
N42   N     N_R   0.670307 0.751365 0.330496 0.257393
O103  O     O_R   0.640357 0.712348 0.342290 -0.207137
O104  O     O_R   0.677591 0.796419 0.346234 -0.271944
N43   N     N_R   0.314100 0.604940 0.729350 0.263034
O105  O     O_R   0.336935 0.589942 0.703283 -0.200931
O106  O     O_R   0.312689 0.570722 0.752613 -0.256195
N44   N     N_R   0.686573 0.391996 0.277260 0.259315
O107  O     O_R   0.652130 0.421428 0.261160 -0.219341
O108  O     O_R   0.699636 0.407350 0.305332 -0.237721
N45   N     N_R   0.667301 0.746273 0.670512 0.257119
O109  O     O_R   0.686971 0.759627 0.643359 -0.235039
O110  O     O_R   0.617533 0.727285 0.672502 -0.224367
N46   N     N_R   0.328763 0.247649 0.330781 0.257331
O111  O     O_R   0.358550 0.286513 0.342865 -0.207450
O112  O     O_R   0.321290 0.202385 0.346294 -0.271929
N47   N     N_R   0.685902 0.395019 0.729218 0.263045
O113  O     O_R   0.663199 0.409959 0.703104 -0.201078
O114  O     O_R   0.687123 0.429259 0.752474 -0.255957
N48   N     N_R   0.313547 0.607919 0.277020 0.259251
O115  O     O_R   0.347848 0.578561 0.260780 -0.219710
O116  O     O_R   0.300760 0.592457 0.305114 -0.237531
N49   N     N_R   0.207423 0.585995 0.720475 0.222140
O117  O     O_R   0.217392 0.588560 0.690730 -0.279986
O118  O     O_R   0.202037 0.538289 0.733744 -0.287522
N50   N     N_R   0.783832 0.424058 0.257920 0.234220
O119  O     O_R   0.760344 0.448954 0.234634 -0.277144
O120  O     O_R   0.802973 0.452901 0.281013 -0.306411
N51   N     N_R   0.368093 0.160320 0.694321 0.228693
O121  O     O_R   0.340185 0.134615 0.673002 -0.285374
O122  O     O_R   0.421289 0.163047 0.691958 -0.309468
N52   N     N_R   0.601751 0.808375 0.294114 0.228701
O123  O     O_R   0.571927 0.764123 0.293531 -0.226975
O124  O     O_R   0.586626 0.849466 0.311501 -0.327142
N53   N     N_R   0.792578 0.414056 0.720504 0.222070
O125  O     O_R   0.782761 0.411560 0.690741 -0.280053
O126  O     O_R   0.797858 0.461732 0.733821 -0.287551
N54   N     N_R   0.216151 0.575943 0.257908 0.234129
O127  O     O_R   0.239421 0.550983 0.234574 -0.277037
O128  O     O_R   0.197115 0.547154 0.281052 -0.306682
N55   N     N_R   0.631958 0.839755 0.694315 0.228634
O129  O     O_R   0.659813 0.865675 0.673057 -0.285308
O130  O     O_R   0.578774 0.836886 0.691930 -0.309387
N56   N     N_R   0.397797 0.191186 0.294405 0.228435
O131  O     O_R   0.427625 0.235443 0.294044 -0.227518
O132  O     O_R   0.412725 0.149959 0.311744 -0.326797
N57   N     N_R   0.839377 0.631676 0.305647 0.228806
O133  O     O_R   0.864416 0.659709 0.327170 -0.285906
O134  O     O_R   0.837065 0.578448 0.307914 -0.309398
N58   N     N_R   0.191146 0.397775 0.705575 0.228269
O135  O     O_R   0.235366 0.427657 0.705944 -0.227536
O136  O     O_R   0.149916 0.412648 0.688224 -0.327108
N59   N     N_R   0.586487 0.206904 0.280165 0.222290
O137  O     O_R   0.589520 0.216353 0.309950 -0.280325
O138  O     O_R   0.538578 0.201492 0.267135 -0.288400
N60   N     N_R   0.424128 0.783875 0.742334 0.233900
O139  O     O_R   0.449305 0.761583 0.765896 -0.276726
O140  O     O_R   0.452734 0.802363 0.718975 -0.306394
N61   N     N_R   0.160302 0.368071 0.305683 0.228707
O141  O     O_R   0.134633 0.340137 0.327007 -0.285683
O142  O     O_R   0.162998 0.421266 0.308050 -0.309240
N62   N     N_R   0.808983 0.602355 0.705492 0.228181
O143  O     O_R   0.764761 0.572474 0.705796 -0.227694
O144  O     O_R   0.850253 0.587540 0.688156 -0.327032
N63   N     N_R   0.413570 0.793040 0.280085 0.222361
O145  O     O_R   0.410605 0.783499 0.309863 -0.280142
O146  O     O_R   0.461448 0.798476 0.267022 -0.287871
N64   N     N_R   0.575874 0.216149 0.742366 0.233984
O147  O     O_R   0.550805 0.238611 0.765913 -0.276798
O148  O     O_R   0.547169 0.197593 0.719064 -0.306324
N65   N     N_R   0.706880 0.086369 0.219910 0.222238
O149  O     O_R   0.715918 0.089195 0.190078 -0.280285
O150  O     O_R   0.701745 0.038553 0.233084 -0.287688
N66   N     N_R   0.283868 0.924128 0.757660 0.233926
O151  O     O_R   0.261535 0.949279 0.734102 -0.276753
O152  O     O_R   0.302374 0.952756 0.781006 -0.306317
N67   N     N_R   0.868331 0.660624 0.194354 0.228797
O153  O     O_R   0.840308 0.635570 0.172832 -0.285911
O154  O     O_R   0.921559 0.662950 0.192089 -0.309405
N68   N     N_R   0.102224 0.308856 0.794425 0.228269
O155  O     O_R   0.072342 0.264636 0.794057 -0.227534
O156  O     O_R   0.087350 0.350086 0.811776 -0.327112
N69   N     N_R   0.293034 0.913635 0.219937 0.222242
O157  O     O_R   0.283653 0.910745 0.190141 -0.280265
O158  O     O_R   0.298350 0.961482 0.233052 -0.288215
N70   N     N_R   0.716127 0.075870 0.757656 0.233906
O159  O     O_R   0.738423 0.050691 0.734096 -0.276719
O160  O     O_R   0.697639 0.047267 0.781017 -0.306398
N71   N     N_R   0.131936 0.339701 0.194316 0.228709
O161  O     O_R   0.159874 0.365369 0.172994 -0.285617
O162  O     O_R   0.078740 0.337006 0.191946 -0.309141
N72   N     N_R   0.897645 0.691019 0.794506 0.228195
O163  O     O_R   0.927525 0.735241 0.794201 -0.227688
O164  O     O_R   0.912464 0.649750 0.811843 -0.327024
N73   N     N_R   0.339678 0.131906 0.805679 0.228692
O165  O     O_R   0.365383 0.159813 0.826998 -0.285386
O166  O     O_R   0.336949 0.078711 0.808040 -0.309487
N74   N     N_R   0.691627 0.898246 0.205887 0.228674
O167  O     O_R   0.735880 0.928068 0.206469 -0.226982
O168  O     O_R   0.650536 0.913373 0.188499 -0.327102
N75   N     N_R   0.085983 0.707421 0.779526 0.222119
O169  O     O_R   0.088541 0.717373 0.809272 -0.280024
O170  O     O_R   0.038279 0.702045 0.766254 -0.287648
N76   N     N_R   0.924033 0.283774 0.242137 0.234381
O171  O     O_R   0.948655 0.259854 0.265375 -0.277204
O172  O     O_R   0.953125 0.303089 0.219189 -0.306796
N77   N     N_R   0.660244 0.868043 0.805684 0.228632
O173  O     O_R   0.634323 0.840190 0.826942 -0.285310
O174  O     O_R   0.663116 0.921227 0.808069 -0.309384
N78   N     N_R   0.308817 0.102203 0.205595 0.228405
O175  O     O_R   0.264568 0.072364 0.205959 -0.227516
O176  O     O_R   0.350044 0.087285 0.188252 -0.326851
N79   N     N_R   0.913999 0.292575 0.779521 0.222137
O177  O     O_R   0.911426 0.282600 0.809264 -0.279991
O178  O     O_R   0.961710 0.297964 0.766256 -0.287515
N80   N     N_R   0.075943 0.716168 0.242099 0.234200
O179  O     O_R   0.051065 0.739574 0.265417 -0.277158
O180  O     O_R   0.047079 0.697075 0.219000 -0.306352
I1    I     I_    0.391220 0.933386 0.862004 -0.076934
I2    I     I_    0.603613 0.074721 0.137480 -0.069043
I3    I     I_    0.072780 0.604914 0.862410 -0.069102
I4    I     I_    0.934024 0.390861 0.138008 -0.075627
I5    I     I_    0.608765 0.066610 0.862016 -0.077011
I6    I     I_    0.396333 0.925318 0.137509 -0.069553
I7    I     I_    0.927219 0.395082 0.862410 -0.069054
I8    I     I_    0.065982 0.609131 0.138001 -0.075572
I9    I     I_    0.890885 0.433987 0.362001 -0.075526
I10   I     I_    0.104883 0.572837 0.637588 -0.069113
I11   I     I_    0.574479 0.103782 0.362497 -0.069193
I12   I     I_    0.433362 0.891240 0.637993 -0.077039
I13   I     I_    0.109118 0.566012 0.361993 -0.075869
I14   I     I_    0.895130 0.427154 0.637586 -0.069117
I15   I     I_    0.425528 0.896198 0.362489 -0.069223
I16   I     I_    0.566640 0.108752 0.637983 -0.076954

loop_
_geom_bond_atom_site_label_1
_geom_bond_atom_site_label_2
_geom_bond_distance
_ccdc_geom_bond_type
N67   O153  1.301039 A    
C9    C25   1.396435 A    
C164  C169  1.416902 A    
C156  C162  1.425787 A    
N51   O122  1.301643 A    
Zn9   O24   1.944562 S    
C11   C27   1.396554 A    
Zn10  O23   1.944560 S    
C152  C200  1.415313 A    
N4    N7    1.330942 A    
C91   C123  1.399762 A    
C153  C201  1.419058 A    
N74   O167  1.301055 A    
C90   C148  1.414692 A    
N25   O69   1.301408 A    
C195  N35   1.434320 S    
C26   I2    2.125160 S    
C18   C34   1.396558 A    
C160  C208  1.419505 A    
C202  N42   1.435876 S    
N54   O127  1.301066 A    
C97   C123  1.399806 A    
N46   O112  1.301074 A    
Zn12  O34   1.944549 S    
Zn3   O14   1.913208 S    
O5    C41   1.285496 A    
C5    C17   1.404308 A    
C6    C22   1.403690 A    
O10   C42   1.286376 A    
C187  N27   1.435732 S    
N38   O95   1.301364 A    
N47   O114  1.301044 A    
C138  C170  1.422285 A    
C180  C185  1.400374 A    
N34   O87   1.301350 A    
C161  C172  1.418281 A    
C194  N34   1.433906 S    
C151  C173  1.425037 A    
C162  C171  1.418217 A    
C104  C126  1.399773 A    
N33   O85   1.301463 A    
C14   H6    1.082639 S    
C83   N51   1.436394 S    
N22   O63   1.301468 A    
C150  C198  1.419620 A    
C2    C10   1.403520 A    
C149  C175  1.422608 A    
C150  C176  1.425995 A    
O37   C63   1.273644 A    
C197  C208  1.399404 A    
C52   C114  1.461058 S    
O38   C64   1.272605 A    
O25   C53   1.273671 A    
O40   C62   1.273870 A    
C78   N5    1.357828 A    
C3    C15   1.403705 A    
Zn1   O51   1.942184 S    
N52   O124  1.301389 A    
Zn9   O12   1.913228 S    
Zn10  O11   1.913228 S    
C100  C138  1.414694 A    
O13   C45   1.285504 A    
C80   N3    1.357860 A    
C143  C191  1.415156 A    
C177  C188  1.399258 A    
C90   N58   1.438361 S    
N19   O58   1.301034 A    
C178  C187  1.399446 A    
O21   C49   1.273656 A    
C179  C186  1.400272 A    
Zn16  O9    1.913230 S    
Zn1   O20   1.913228 S    
C159  C207  1.414862 A    
N28   O75   1.301347 A    
N44   O108  1.301079 A    
C4    C12   1.404307 A    
C4    C79   1.479409 S    
C146  C194  1.419669 A    
C135  C183  1.419100 A    
C108  C130  1.416294 A    
N63   O146  1.300973 A    
C56   C118  1.461111 S    
Zn8   O17   1.913230 S    
C79   N4    1.357847 A    
C165  C176  1.418285 A    
O44   C58   1.273880 A    
C166  C175  1.418228 A    
C84   C154  1.414772 A    
C17   H9    1.082596 S    
N80   O179  1.301072 A    
O16   C48   1.285502 A    
Zn16  O30   1.944565 S    
C193  C204  1.399431 A    
C19   H11   1.082636 S    
O48   C54   1.272674 A    
C194  C203  1.399250 A    
C25   I1    2.126417 S    
C73   N14   1.357856 A    
O11   C43   1.286283 A    
C195  C202  1.400377 A    
Zn1   O1    1.948071 S    
N58   O135  1.301050 A    
N50   O120  1.301636 A    
C191  N31   1.435801 S    
O6    C42   1.286377 A    
N41   O101  1.301367 A    
C105  N73   1.436395 S    
O28   C56   1.273861 A    
C160  C166  1.425856 A    
N43   O105  1.301410 A    
C93   N61   1.436403 S    
O43   C57   1.272768 A    
C104  C142  1.414666 A    
C30   C66   1.410449 A    
C82   N50   1.435960 S    
O32   C60   1.272637 A    
C139  C187  1.415340 A    
Zn6   O43   1.944542 S    
C140  C188  1.419659 A    
C145  C171  1.422680 A    
C83   C115  1.399919 A    
Zn15  O2    1.948052 S    
N26   O71   1.301433 A    
N42   O104  1.301070 A    
C51   C113  1.455616 S    
O17   C45   1.285508 A    
N39   O97   1.301375 A    
C111  C117  1.399810 A    
C6    C73   1.479473 S    
C85   N53   1.437659 S    
C26   C66   1.410426 A    
N45   O109  1.301371 A    
C146  C172  1.426046 A    
C109  C119  1.399896 A    
C76   N15   1.357840 A    
C131  C179  1.419056 A    
C12   C28   1.396520 A    
C1    C9    1.404232 A    
C92   C124  1.400238 A    
C94   N62   1.438371 S    
N73   O166  1.301644 A    
N49   O117  1.300851 A    
C177  N17   1.435839 S    
C132  C180  1.415540 A    
N72   O163  1.301054 A    
C23   H15   1.082633 S    
O7    C43   1.286280 A    
O14   C46   1.286269 A    
C84   N52   1.438326 S    
N30   O79   1.301435 A    
C21   H13   1.082597 S    
Zn8   O46   1.944565 S    
C155  C203  1.414796 A    
N76   O171  1.301120 A    
C190  N30   1.435907 S    
C156  C204  1.419437 A    
C40   I16   2.126418 S    
C141  C189  1.419050 A    
C91   C145  1.414818 A    
O36   C64   1.272606 A    
N79   O177  1.300849 A    
N21   O61   1.301408 A    
Zn6   O2    1.948103 S    
O33   C61   1.272760 A    
C30   I6    2.125232 S    
Zn11  O6    1.913208 S    
N40   O99   1.301433 A    
N3    N8    1.330942 A    
C152  C174  1.422267 A    
Zn13  O4    1.948099 S    
C39   C71   1.410403 A    
C112  N80   1.435946 S    
Zn14  O3    1.948103 S    
N59   O138  1.300998 A    
C200  C205  1.400239 A    
C49   C119  1.458404 S    
C133  C181  1.414805 A    
O24   C52   1.273886 A    
C83   C153  1.415961 A    
N31   O81   1.301458 A    
C157  C167  1.425107 A    
C108  N76   1.436022 S    
C158  C168  1.422268 A    
C59   C121  1.458232 S    
N57   O133  1.301044 A    
C32   C68   1.409074 A    
N67   O154  1.301636 A    
C8    C20   1.404232 A    
C130  C178  1.419329 A    
C87   N55   1.436363 S    
N71   O162  1.301638 A    
C2    C77   1.479297 S    
O12   C44   1.285514 A    
N47   O113  1.301413 A    
C28   C68   1.409078 A    
Zn6   O48   1.942191 S    
N18   O55   1.301531 A    
C94   C126  1.399775 A    
N65   O150  1.300970 A    
C109  N77   1.436357 S    
C96   C128  1.400239 A    
C41   C72   1.465428 S    
C107  N75   1.437699 S    
C42   C71   1.468616 S    
N60   O139  1.300999 A    
C96   C150  1.416358 A    
C155  C161  1.422451 A    
C201  N41   1.434231 S    
N66   O151  1.300999 A    
C32   I8    2.126350 S    
Zn14  O27   1.944542 S    
C101  C127  1.399835 A    
Zn7   O3    1.948052 S    
O27   C55   1.272745 A    
C57   C127  1.455761 S    
C98   C124  1.400237 A    
C154  C202  1.415545 A    
C198  C207  1.399255 A    
C99   N67   1.436480 S    
C153  C163  1.425048 A    
C188  N28   1.433919 S    
C20   H12   1.082602 S    
C48   C65   1.465402 S    
N53   O126  1.300979 A    
C163  C170  1.416969 A    
C183  C190  1.400237 A    
C135  C167  1.425103 A    
C6    C18   1.403699 A    
C86   C118  1.400335 A    
C181  N21   1.435849 S    
O42   C60   1.272636 A    
C12   H4    1.082596 S    
N23   O66   1.301030 A    
Zn5   O44   1.944540 S    
C95   C127  1.399795 A    
C196  N36   1.435904 S    
N10   N13   1.330938 A    
C38   C70   1.410143 A    
C106  N74   1.438323 S    
C28   I4    2.126357 S    
C16   C32   1.396517 A    
C203  N43   1.435841 S    
N62   O143  1.301052 A    
C21   C37   1.396516 A    
N75   O169  1.300844 A    
O26   C54   1.272672 A    
C107  C129  1.414715 A    
C110  C120  1.399809 A    
C185  N25   1.434317 S    
C75   N16   1.357828 A    
N77   O174  1.301640 A    
C80   N7    1.357855 A    
C31   I7    2.125102 S    
O8    C44   1.285510 A    
C74   N9    1.357851 A    
C108  C114  1.400359 A    
Zn8   O37   1.942196 S    
C99   C121  1.399975 A    
C88   N56   1.438359 S    
O20   C48   1.285497 A    
Zn16  O21   1.942196 S    
C143  C175  1.422663 A    
C61   C123  1.455811 S    
C90   C122  1.399784 A    
N48   O115  1.301460 A    
C4    C16   1.404309 A    
C131  C163  1.425046 A    
C132  C164  1.422320 A    
Zn14  O32   1.942191 S    
O52   C50   1.272623 A    
C10   H2    1.082640 S    
C197  N37   1.435851 S    
N43   O106  1.301046 A    
N74   O168  1.301391 A    
C89   C121  1.399973 A    
N1    N6    1.330895 A    
C129  C161  1.422464 A    
C14   C30   1.396481 A    
N54   O128  1.301627 A    
O9    C41   1.285503 A    
C186  N26   1.435903 S    
C102  C128  1.400254 A    
C112  C134  1.416358 A    
Zn2   O2    1.948071 S    
N69   O158  1.300989 A    
N38   O96   1.301014 A    
C64   C126  1.453336 S    
C103  N71   1.436400 S    
C133  C165  1.422466 A    
Zn5   O47   1.942193 S    
C148  C170  1.422287 A    
N70   O159  1.300995 A    
N22   O64   1.301063 A    
N32   O83   1.301349 A    
C144  C176  1.426045 A    
C29   C65   1.409124 A    
C91   N59   1.437627 S    
N61   O142  1.301638 A    
C157  C205  1.419104 A    
Zn16  O1    1.948052 S    
N37   O94   1.301069 A    
Zn13  O28   1.944540 S    
C10   C26   1.396436 A    
C33   I9    2.126358 S    
C77   N2    1.357841 A    
C130  C162  1.425677 A    
O49   C51   1.272744 A    
C205  N45   1.434196 S    
Zn4   O13   1.913208 S    
C1    C13   1.404240 A    
C5    C74   1.479400 S    
Zn5   O16   1.913213 S    
N64   O148  1.301596 A    
C136  C184  1.415380 A    
Zn6   O15   1.913213 S    
C137  C185  1.418915 A    
C8    C75   1.479207 S    
C106  C116  1.399836 A    
N55   O130  1.301640 A    
C179  N19   1.434233 S    
N24   O68   1.301074 A    
C17   C33   1.396513 A    
C22   H14   1.082617 S    
C204  N44   1.434051 S    
C19   C35   1.396456 A    
C206  N46   1.435911 S    
C142  C190  1.415313 A    
N56   O131  1.301051 A    
O29   C57   1.272746 A    
C75   N12   1.357818 A    
C100  C122  1.399785 A    
N78   O175  1.301052 A    
Zn11  O2    1.948095 S    
C141  C173  1.425037 A    
C88   C120  1.399804 A    
N36   O91   1.301426 A    
Zn2   O39   1.944560 S    
C15   C31   1.396558 A    
Zn4   O41   1.942193 S    
C110  N78   1.438353 S    
C134  C182  1.419474 A    
C13   H5    1.082603 S    
N80   O180  1.301630 A    
N35   O89   1.301410 A    
C89   N57   1.436480 S    
N29   O78   1.301042 A    
C34   C70   1.410148 A    
Zn4   O50   1.944549 S    
C36   I12   2.126414 S    
Zn11  O26   1.942195 S    
C24   C40   1.396440 A    
C97   C139  1.414961 A    
N58   O136  1.301373 A    
N19   O57   1.301369 A    
N33   O86   1.301073 A    
C77   N6    1.357832 A    
C45   C68   1.465466 S    
C46   C67   1.468269 S    
N34   O88   1.301011 A    
C60   C122  1.453380 S    
N25   O70   1.301086 A    
N41   O102  1.301038 A    
C98   C140  1.416382 A    
N63   O145  1.300856 A    
C107  C113  1.399844 A    
C87   C157  1.415969 A    
N46   O111  1.301440 A    
C62   C124  1.461252 S    
N24   O67   1.301442 A    
C38   I14   2.125090 S    
N68   O155  1.301050 A    
Zn4   O4    1.948099 S    
O35   C63   1.273649 A    
N9    N14   1.330942 A    
C151  C199  1.419052 A    
C81   C155  1.414693 A    
N71   O161  1.300972 A    
Zn12  O1    1.948099 S    
C81   C113  1.399836 A    
N60   O140  1.301587 A    
C103  C125  1.399932 A    
N72   O164  1.301369 A    
N27   O73   1.301468 A    
C40   C72   1.409136 A    
C18   H10   1.082615 S    
C97   N65   1.437472 S    
N30   O80   1.301075 A    
C25   C65   1.409137 A    
N76   O172  1.301648 A    
C74   N13   1.357843 A    
C13   C29   1.396428 A    
C198  N38   1.433945 S    
C129  C177  1.414805 A    
C184  C189  1.400283 A    
C178  N18   1.434138 S    
C7    C19   1.403542 A    
Zn11  O33   1.944547 S    
N52   O123  1.301055 A    
C27   C67   1.410133 A    
N40   O100  1.301075 A    
N12   N15   1.330908 A    
C183  N23   1.434198 S    
C208  N48   1.434026 S    
C84   C116  1.399833 A    
C27   I3    2.125095 S    
Zn2   O19   1.913228 S    
O34   C62   1.273873 A    
C92   C146  1.416385 A    
N31   O82   1.301069 A    
C50   C120  1.453407 S    
N44   O107  1.301489 A    
C207  N47   1.435805 S    
N26   O72   1.301077 A    
Zn13  O31   1.942193 S    
Zn12  O25   1.942193 S    
N68   O156  1.301372 A    
Zn3   O49   1.944547 S    
C182  N22   1.434057 S    
N23   O65   1.301369 A    
C193  N33   1.435844 S    
C140  C172  1.426033 A    
C184  N24   1.435903 S    
Zn7   O45   1.944567 S    
O15   C47   1.286404 A    
C147  C169  1.424884 A    
C100  N68   1.438358 S    
Zn15  O22   1.942194 S    
N18   O56   1.301102 A    
C87   C119  1.399895 A    
C86   N54   1.435926 S    
C134  C166  1.425811 A    
C181  C192  1.399244 A    
C85   C117  1.399843 A    
C182  C191  1.399427 A    
C76   N11   1.357840 A    
C5    C21   1.404302 A    
N50   O119  1.301092 A    
N66   O152  1.301594 A    
N51   O121  1.300961 A    
C136  C168  1.422267 A    
Zn1   O40   1.944562 S    
C111  C133  1.414674 A    
C29   I5    2.126408 S    
O31   C59   1.273649 A    
C63   C125  1.458353 S    
C109  C135  1.415970 A    
C54   C116  1.453538 S    
C149  C197  1.415108 A    
C167  C174  1.416988 A    
C147  C195  1.418910 A    
C16   H8    1.082596 S    
C58   C128  1.461239 S    
C103  C141  1.415948 A    
N42   O103  1.301476 A    
C82   C114  1.400404 A    
N53   O125  1.300843 A    
C96   N64   1.435833 S    
C101  C143  1.414892 A    
N17   O53   1.301410 A    
C23   C39   1.396481 A    
N45   O110  1.301028 A    
Zn3   O3    1.948095 S    
N73   O165  1.300960 A    
C105  C131  1.415962 A    
C102  N70   1.435809 S    
N49   O118  1.300972 A    
C95   C149  1.414797 A    
C101  N69   1.437600 S    
O39   C61   1.272775 A    
C93   C151  1.415950 A    
C137  C169  1.424888 A    
C148  C196  1.415370 A    
N62   O144  1.301368 A    
Zn15  O10   1.913230 S    
C93   C125  1.399931 A    
C37   I13   2.126352 S    
C158  C206  1.415376 A    
N28   O76   1.301007 A    
Zn10  O36   1.942186 S    
C144  C192  1.419658 A    
C145  C193  1.415195 A    
N21   O62   1.301048 A    
C168  C173  1.416947 A    
N20   O60   1.301072 A    
C2    C14   1.403534 A    
C104  N72   1.438368 S    
C3    C11   1.403701 A    
N77   O173  1.300960 A    
O45   C55   1.272729 A    
Zn7   O18   1.913230 S    
C138  C186  1.415369 A    
O46   C56   1.273840 A    
C79   N8    1.357850 A    
C89   C147  1.415926 A    
N64   O147  1.301001 A    
C24   H16   1.082602 S    
N35   O90   1.301089 A    
O47   C53   1.273674 A    
N48   O116  1.301059 A    
N39   O98   1.301044 A    
C196  C201  1.400270 A    
Zn15  O29   1.944567 S    
O30   C58   1.273855 A    
N57   O134  1.301637 A    
C53   C115  1.458372 S    
C95   N63   1.437609 S    
C142  C174  1.422270 A    
C55   C117  1.455623 S    
N55   O129  1.300957 A    
N11   N16   1.330917 A    
C37   C69   1.409081 A    
C31   C67   1.410136 A    
C81   N49   1.437693 S    
O23   C51   1.272739 A    
C22   C38   1.396545 A    
C92   N60   1.435803 S    
N20   O59   1.301477 A    
C159  C165  1.422517 A    
C189  N29   1.434238 S    
C35   I11   2.125175 S    
C82   C156  1.416385 A    
O51   C49   1.273653 A    
C33   C69   1.409075 A    
C7    C76   1.479319 S    
Zn3   O42   1.942195 S    
N69   O157  1.300844 A    
C94   C152  1.414666 A    
N79   O178  1.300973 A    
C36   C72   1.409142 A    
Zn2   O52   1.942186 S    
Zn7   O38   1.942194 S    
C111  N79   1.437696 S    
N27   O74   1.301068 A    
N70   O160  1.301593 A    
C39   I15   2.125222 S    
N32   O84   1.301009 A    
C44   C69   1.465475 S    
C73   N10   1.357859 A    
C112  C118  1.400329 A    
O18   C46   1.286273 A    
N37   O93   1.301455 A    
C35   C71   1.410392 A    
Zn5   O1    1.948099 S    
Zn9   O4    1.948071 S    
C180  N20   1.435879 S    
N75   O170  1.300979 A    
Zn10  O3    1.948071 S    
Zn8   O4    1.948052 S    
C110  C136  1.414689 A    
Zn12  O5    1.913208 S    
N2    N5    1.330912 A    
C9    H1    1.082603 S    
Zn13  O8    1.913213 S    
C192  N32   1.433909 S    
C199  C206  1.400281 A    
Zn14  O7    1.913213 S    
C11   H3    1.082616 S    
C139  C171  1.422784 A    
C20   C36   1.396443 A    
O22   C50   1.272623 A    
C15   H7    1.082613 S    
C99   C137  1.415932 A    
C102  C144  1.416389 A    
C105  C115  1.399921 A    
N61   O141  1.300974 A    
N17   O54   1.301045 A    
N56   O132  1.301375 A    
C7    C23   1.403557 A    
C47   C66   1.468681 S    
C200  N40   1.435907 S    
C8    C24   1.404241 A    
N78   O176  1.301373 A    
O50   C52   1.273813 A    
C106  C132  1.414769 A    
C3    C80   1.479482 S    
N65   O149  1.300836 A    
C43   C70   1.468282 S    
N36   O92   1.301077 A    
C1    C78   1.479190 S    
C154  C164  1.422318 A    
N59   O137  1.300857 A    
O41   C59   1.273648 A    
C98   N66   1.435813 S    
O19   C47   1.286400 A    
C85   C159  1.414754 A    
C86   C160  1.416379 A    
Zn9   O35   1.942184 S    
N29   O77   1.301376 A    
C88   C158  1.414688 A    
C199  N39   1.434237 S    
C34   I10   2.125112 S    
C78   N1    1.357813 A    
