data_mof_unit_27841.cif
_audit_creation_date              2012-12-10T17:48:20-0500
_audit_creation_method            fapswitch 2.2
_symmetry_space_group_name_H-M    P1
_symmetry_Int_Tables_number       1
_space_group_crystal_system       triclinic
_cell_length_a                    13.871161
_cell_length_b                    14.792908
_cell_length_c                    14.571757
_cell_angle_alpha                 114.786071
_cell_angle_beta                  106.394837
_cell_angle_gamma                 73.23566
_cell_volume                      2554.07450875

loop_
_atom_site_label
_atom_site_type_symbol
_atom_type_description
_atom_site_fract_x
_atom_site_fract_y
_atom_site_fract_z
_atom_type_partial_charge
C1    C     C_R   0.517110 0.118220 0.688632 0.805628
C2    C     C_R   0.482819 0.881780 0.311402 0.802286
C3    C     C_R   0.510823 0.359382 0.924253 0.067442
C4    C     C_R   0.481419 0.640748 0.076076 0.068166
C5    C     C_R   0.541237 0.320071 0.004066 0.113180
C6    C     C_R   0.438418 0.680269 0.996286 0.108824
C7    C     C_R   0.485468 0.466549 0.948247 0.077684
C8    C     C_R   0.502486 0.533624 0.052522 0.080636
C9    C     C_R   0.535894 0.491446 0.129952 -0.249103
C10   C     C_R   0.439621 0.508698 0.871448 -0.247354
C11   C     C_R   0.551544 0.387913 0.106231 -0.233541
C12   C     C_R   0.416790 0.612614 0.894987 -0.234224
C13   C     C_R   0.360580 0.275824 0.305307 -0.303611
C14   C     C_R   0.641785 0.723695 0.694069 -0.330162
C15   C     C_R   0.377196 0.199822 0.343074 0.069987
C16   C     C_R   0.624624 0.799642 0.656108 0.067550
C17   C     C_R   0.476349 0.292782 0.498231 0.016304
C18   C     C_R   0.522825 0.707606 0.502498 0.011488
C19   C     C_R   0.467696 0.370863 0.461862 -0.027301
C20   C     C_R   0.531992 0.629726 0.539300 -0.027619
C21   C     C_R   0.404483 0.361711 0.364664 0.153961
C22   C     C_R   0.596362 0.638613 0.635888 0.140682
C23   C     C_R   0.686665 0.987074 0.503691 0.822000
C24   C     C_R   0.313388 0.013286 0.496876 0.825490
C25   C     C_R   0.514936 0.458735 0.518864 0.002614
C26   C     C_R   0.484136 0.542248 0.483053 0.004057
C27   C     C_R   0.407566 0.533934 0.392058 -0.026984
C28   C     C_R   0.590830 0.467634 0.610475 -0.021065
C29   C     C_R   0.377844 0.441350 0.330156 -0.227565
C30   C     C_R   0.621988 0.559707 0.671237 -0.229455
C31   C     C_1   0.207956 0.019608 0.492899 -0.181011
C32   C     C_1   0.792219 0.982185 0.509768 -0.179474
C33   C     C_2   0.013261 0.023229 0.476869 -0.183456
C34   C     C_2   0.986785 0.981438 0.529031 -0.182425
C35   C     C_1   0.881295 0.979891 0.517685 -0.015518
C36   C     C_1   0.118875 0.023356 0.486775 -0.019658
C37   C     C_R   0.525797 0.185452 0.797842 -0.071627
C38   C     C_R   0.470487 0.814643 0.202160 -0.069631
C39   C     C_R   0.559685 0.213635 0.979639 0.002606
C40   C     C_R   0.414000 0.787048 0.020415 0.009093
C41   C     C_R   0.550176 0.147507 0.876504 -0.243605
C42   C     C_R   0.427108 0.852807 0.123646 -0.246780
C43   C     C_R   0.507802 0.290164 0.822491 -0.257084
C44   C     C_R   0.500799 0.709943 0.177472 -0.252296
Cu1   Cu    Cu3+1 0.526370 0.916390 0.524860 0.936234
Cu2   Cu    Cu3+1 0.473630 0.083610 0.475140 0.935502
H1    H     H_    0.043757 0.949956 0.581929 0.148249
H2    H     H_    0.956163 0.054822 0.424106 0.146619
H3    H     H_    0.312957 0.267764 0.230240 0.133230
H4    H     H_    0.690557 0.731386 0.768559 0.140686
H5    H     H_    0.572684 0.361822 0.169683 0.167059
H6    H     H_    0.379562 0.639256 0.832462 0.163492
H7    H     H_    0.539809 0.684358 0.239725 0.155451
H8    H     H_    0.494162 0.316262 0.760518 0.155399
H9    H     H_    0.403777 0.933948 0.142569 0.140255
H10   H     H_    0.563426 0.066399 0.857991 0.157882
H11   H     H_    0.546662 0.536184 0.210972 0.142081
H12   H     H_    0.416174 0.463535 0.791846 0.146778
H13   H     H_    0.322459 0.435424 0.259274 0.146938
H14   H     H_    0.677315 0.565715 0.742194 0.147428
H15   H     H_    0.483373 0.703353 0.426555 0.147674
H16   H     H_    0.514451 0.297220 0.574443 0.144966
H17   H     H_    0.657276 0.866673 0.702300 0.130708
H18   H     H_    0.345337 0.132432 0.296143 0.119818
N1    N     N_R   0.433980 0.209250 0.437830 -0.179646
N2    N     N_R   0.566020 0.790750 0.562170 -0.181905
O1    O     O_R   0.534760 0.019630 0.662610 -0.597745
O2    O     O_R   0.465240 0.980370 0.337390 -0.600423
O3    O     O_R   0.490220 0.160840 0.620610 -0.586854
O4    O     O_R   0.509780 0.839160 0.379390 -0.586336
O5    O     O_R   0.663260 0.919400 0.523940 -0.571054
O6    O     O_R   0.336740 0.080600 0.476060 -0.571769
O7    O     O_R   0.618720 0.060610 0.481950 -0.570053
O8    O     O_R   0.381280 0.939390 0.518050 -0.568036
C45   C     C_R   0.338341 0.622023 0.369610 0.084601
C46   C     C_R   0.321967 0.627835 0.272297 -0.177231
C47   C     C_R   0.250005 0.707078 0.249203 -0.129114
C48   C     C_R   0.191584 0.778955 0.321749 -0.105961
C49   C     C_R   0.206511 0.772514 0.418010 -0.106514
C50   C     C_R   0.280287 0.695272 0.442465 -0.133815
H19   H     H_    0.363645 0.570341 0.214082 0.142993
H20   H     H_    0.238146 0.711556 0.174426 0.135723
H21   H     H_    0.134169 0.838972 0.302948 0.130733
H22   H     H_    0.160442 0.826451 0.473770 0.136443
H23   H     H_    0.290036 0.690743 0.516959 0.129183
C51   C     C_R   0.657872 0.380425 0.635762 0.087634
C52   C     C_R   0.720764 0.307790 0.567297 -0.131168
C53   C     C_R   0.792831 0.231612 0.595283 -0.111919
C54   C     C_R   0.800942 0.225451 0.690444 -0.104176
C55   C     C_R   0.737794 0.296999 0.758697 -0.131171
C56   C     C_R   0.667576 0.375367 0.732278 -0.187960
H24   H     H_    0.716142 0.312111 0.493723 0.127065
H25   H     H_    0.843009 0.178399 0.543246 0.137132
H26   H     H_    0.856779 0.165927 0.711696 0.126586
H27   H     H_    0.744434 0.292791 0.832685 0.136206
H28   H     H_    0.621312 0.432377 0.786909 0.142000
C57   C     C_R   0.586970 0.169485 0.060046 0.095463
C58   C     C_R   0.515065 0.128490 0.073928 -0.150564
C59   C     C_R   0.538986 0.091073 0.152916 -0.112048
C60   C     C_R   0.634754 0.093650 0.217983 -0.094545
C61   C     C_R   0.707237 0.133062 0.203635 -0.152201
C62   C     C_R   0.683680 0.170656 0.124722 -0.162958
H29   H     H_    0.440131 0.127058 0.024764 0.134171
H30   H     H_    0.482858 0.061133 0.164366 0.124289
H31   H     H_    0.652710 0.065224 0.279504 0.139516
H32   H     H_    0.781437 0.134988 0.254005 0.123497
H33   H     H_    0.740004 0.201898 0.114798 0.128951
C63   C     C_R   0.374174 0.832863 0.940375 0.100526
C64   C     C_R   0.279102 0.900243 0.939840 -0.159055
C65   C     C_R   0.242113 0.944546 0.865417 -0.143942
C66   C     C_R   0.299819 0.922401 0.791360 -0.118891
C67   C     C_R   0.394888 0.856369 0.791959 -0.133486
C68   C     C_R   0.432444 0.812136 0.866455 -0.160402
H34   H     H_    0.233441 0.917903 0.996619 0.121717
H35   H     H_    0.168598 0.995968 0.865075 0.125487
H36   H     H_    0.270961 0.956497 0.733599 0.128898
H37   H     H_    0.439320 0.839647 0.734641 0.151920
H38   H     H_    0.506632 0.761645 0.866448 0.134632

loop_
_geom_bond_atom_site_label_1
_geom_bond_atom_site_label_2
_ccdc_geom_bond_type
C7    C10   A    
C52   C53   A    
C61   C62   A    
C27   C29   A    
C66   C67   A    
C4    C8    A    
C57   C58   A    
C55   H27   S    
C39   C41   A    
C14   H4    S    
C47   C48   A    
C25   C28   A    
Cu2   O2    S    
C3    C43   A    
C60   H31   S    
C19   C21   A    
C5    C11   A    
C2    O2    A    
C51   C56   A    
C6    C12   A    
C49   H22   S    
C42   H9    S    
C39   C57   S    
Cu1   O5    S    
C58   H29   S    
C15   N1    A    
C33   C36   S    
C63   C64   A    
C18   C20   A    
C34   C35   S    
C54   H26   S    
C65   C66   A    
Cu2   O3    S    
C17   C19   A    
C56   H28   S    
C44   H7    S    
C29   H13   S    
C8    C9    A    
C30   H14   S    
Cu1   O1    S    
C15   H18   S    
C66   H36   S    
C16   H17   S    
C45   C50   A    
Cu2   O6    S    
C57   C62   A    
C1    C37   S    
C40   C63   S    
C40   C42   A    
C59   H30   S    
C52   H24   S    
C23   O7    A    
C27   C45   S    
C48   H21   S    
C67   C68   A    
C12   H6    S    
C32   C35   T    
C23   O5    A    
C7    C8    A    
C6    C40   A    
C46   C47   A    
Cu2   N1    S    
C4    C6    A    
C48   C49   A    
C4    C44   A    
C25   C26   A    
Cu1   Cu2   S    
C21   C29   A    
C1    O3    A    
C49   C50   A    
Cu1   O8    S    
C63   C68   A    
C37   C43   A    
C45   C46   A    
C41   H10   S    
C38   C44   A    
C50   H23   S    
C17   H16   S    
C2    C38   S    
C43   H8    S    
C59   C60   A    
C33   C34   D    
C26   C27   A    
C13   C21   A    
C62   H33   S    
C9    C11   A    
C10   C12   A    
C64   H34   S    
C13   H3    S    
C20   C22   A    
C13   C15   A    
C28   C51   S    
C14   C16   A    
C16   N2    A    
C24   O6    A    
C61   H32   S    
C53   H25   S    
C22   C30   A    
C10   H12   S    
Cu1   O4    S    
C51   C52   A    
C17   N1    A    
C3    C5    A    
C46   H19   S    
C18   H15   S    
C38   C42   A    
C18   N2    A    
C3    C7    A    
C23   C32   S    
C14   C22   A    
C5    C39   A    
C24   C31   S    
C64   C65   A    
C24   O8    A    
C55   C56   A    
C67   H37   S    
C20   C26   A    
C47   H20   S    
C28   C30   A    
C60   C61   A    
C1    O1    A    
C9    H11   S    
C37   C41   A    
C19   C25   A    
C11   H5    S    
C68   H38   S    
C53   C54   A    
C58   C59   A    
Cu1   N2    S    
C33   H2    S    
C31   C36   T    
C34   H1    S    
C54   C55   A    
C2    O4    A    
C65   H35   S    
Cu2   O7    S    
