data_mof_unit_36460.cif
_audit_creation_date              2012-12-11T18:34:55-0500
_audit_creation_method            fapswitch 2.2
_symmetry_space_group_name_H-M    P1
_symmetry_Int_Tables_number       1
_space_group_crystal_system       triclinic
_cell_length_a                    8.241756
_cell_length_b                    14.273602
_cell_length_c                    22.903581
_cell_angle_alpha                 93.689573
_cell_angle_beta                  89.496003
_cell_angle_gamma                 91.566701
_cell_volume                      2687.71034303

loop_
_atom_site_label
_atom_site_type_symbol
_atom_type_description
_atom_site_fract_x
_atom_site_fract_y
_atom_site_fract_z
_atom_type_partial_charge
Ba1   Ba    Ba6+2 0.846250 0.544220 0.470860 1.635455
Ba2   Ba    Ba6+2 0.343570 0.455860 0.529140 1.633437
C1    C     C_3   0.621140 0.890346 0.310617 -0.362435
C2    C     C_R   0.091141 0.579063 0.937689 -0.028092
C3    C     C_R   0.046389 0.573468 0.877699 0.595988
C4    C     C_3   0.078400 0.742568 0.304519 0.320012
C5    C     C_R   0.970033 0.410783 0.883283 0.571372
C6    C     C_R   0.013037 0.414424 0.943086 -0.016459
C7    C     C_R   0.073754 0.498998 0.970453 -0.052107
C8    C     C_R   0.152205 0.663130 0.965911 -0.075395
C9    C     C_R   0.194961 0.667460 0.025126 -0.073979
C10   C     C_R   0.178055 0.587907 0.058350 -0.018935
C11   C     C_R   0.117110 0.503420 0.030856 -0.051824
C12   C     C_3   0.604643 0.792569 0.333089 0.350409
C13   C     C_R   0.996792 0.334737 0.976170 -0.074285
C14   C     C_R   0.039838 0.338983 0.035218 -0.076526
C15   C     C_R   0.100245 0.423134 0.063416 -0.026375
C16   C     C_3   0.049624 0.768124 0.242119 -0.308084
C17   C     C_R   0.145056 0.428327 0.123228 0.591432
C18   C     C_R   0.220658 0.591246 0.118342 0.574511
C19   C     C_2   0.799481 0.439971 0.770952 -0.084565
C20   C     C_3   0.776584 0.409654 0.707203 -0.047619
C21   C     C_1   0.002285 0.517439 0.685110 0.032764
C22   C     C_2   0.048774 0.522555 0.741249 -0.104527
C23   C     C_3   0.514342 0.323036 0.355506 0.275649
C24   C     C_2   0.940173 0.484194 0.788457 0.195701
C25   C     C_R   0.398622 0.557251 0.231115 -0.097958
C26   C     C_R   0.440879 0.564061 0.290434 -0.018849
C27   C     C_R   0.189893 0.484397 0.315892 0.044479
C28   C     C_3   0.179107 0.744790 0.591821 0.367108
C29   C     C_R   0.144316 0.479013 0.256247 -0.101037
C30   C     C_R   0.247477 0.516819 0.212889 0.197635
C31   C     C_2   0.871463 0.469066 0.666371 -0.289537
C32   C     C_R   0.693019 0.935527 0.530830 -0.037375
C33   C     C_R   0.510950 0.801156 0.497404 0.038011
C34   C     C_3   0.487797 0.296730 0.290815 -0.366899
C35   C     C_R   0.371781 0.769161 0.467049 -0.300568
C36   C     C_R   0.269277 0.832057 0.442905 0.014860
C37   C     C_R   0.313958 0.926798 0.443024 -0.140642
C38   C     C_R   0.458265 0.959905 0.470275 -0.006053
C39   C     C_R   0.555647 0.898105 0.499880 -0.035711
C40   C     C_3   0.230435 0.846499 0.609494 -0.134879
C41   C     C_R   0.640942 0.091621 0.499411 -0.023427
C42   C     C_R   0.737939 0.030969 0.529850 0.002563
C43   C     C_R   0.684984 0.187750 0.500122 0.021335
C44   C     C_R   0.820371 0.222546 0.531442 -0.256741
C45   C     C_3   0.108581 0.256516 0.696014 0.331426
C46   C     C_R   0.923412 0.162088 0.557447 0.034758
C47   C     C_R   0.881230 0.066372 0.557552 -0.140263
C48   C     C_R   0.502739 0.054823 0.469516 -0.041739
C49   C     C_3   0.975346 0.248483 0.391109 0.402894
C50   C     C_3   0.900141 0.165844 0.354187 -0.286890
C51   C     C_3   0.675238 0.662318 0.641585 0.303179
C52   C     C_3   0.683436 0.686903 0.707114 -0.364311
C53   C     C_3   0.134642 0.231155 0.758640 -0.311323
C54   C     C_3   0.571164 0.206248 0.670784 0.359606
C55   C     C_3   0.539233 0.110796 0.695186 -0.365940
C56   C     C_R   0.335081 0.529954 0.332301 -0.300852
H1    H     H_    0.666523 0.793816 0.376076 0.080021
H2    H     H_    0.751331 0.910838 0.305985 0.142214
H3    H     H_    0.774592 0.744581 0.716424 0.133454
H4    H     H_    0.718517 0.624817 0.730291 0.071464
H5    H     H_    0.562788 0.709578 0.723780 0.131058
H6    H     H_    0.473262 0.775518 0.338749 -0.053581
H7    H     H_    0.562817 0.941935 0.341923 0.071872
H8    H     H_    0.398223 0.347509 0.374990 0.040924
H9    H     H_    0.607415 0.380724 0.359763 0.061208
H10   H     H_    0.392370 0.240452 0.285381 0.145255
H11   H     H_    0.448838 0.358661 0.268285 0.073951
H12   H     H_    0.342292 0.847568 0.636424 0.103426
H13   H     H_    0.602292 0.271540 0.270162 0.117543
H14   H     H_    0.561098 0.891679 0.267470 0.126393
H15   H     H_    0.047776 0.703483 0.212627 0.120004
H16   H     H_    0.182079 0.321232 0.688692 0.095300
H17   H     H_    0.978057 0.269824 0.690310 -0.049903
H18   H     H_    0.253370 0.197645 0.763094 0.145417
H19   H     H_    0.134841 0.295947 0.787961 0.122619
H20   H     H_    0.036618 0.181900 0.772095 0.122062
H21   H     H_    0.704915 0.218944 0.670177 -0.067497
H22   H     H_    0.524768 0.203373 0.625254 0.075406
H23   H     H_    0.258132 0.884010 0.569524 0.053819
H24   H     H_    0.606204 0.056394 0.668629 0.070888
H25   H     H_    0.407884 0.091859 0.693551 0.145904
H26   H     H_    0.001535 0.679679 0.312540 0.102370
H27   H     H_    0.581160 0.112040 0.741185 0.124424
H28   H     H_    0.025279 0.275853 0.058787 0.123666
H29   H     H_    0.950647 0.268402 0.956452 0.123755
H30   H     H_    0.241395 0.733710 0.044863 0.122908
H31   H     H_    0.484098 0.582668 0.199257 0.116448
H32   H     H_    0.167279 0.726134 0.942253 0.122836
H33   H     H_    0.166805 0.553189 0.753078 0.130381
H34   H     H_    0.876449 0.291759 0.409964 0.032723
H35   H     H_    0.713588 0.414001 0.802672 0.118633
H36   H     H_    0.029992 0.444783 0.243733 0.129249
H37   H     H_    0.370446 0.534018 0.377788 0.083439
H38   H     H_    0.208283 0.725637 0.309148 -0.042022
H39   H     H_    0.849353 0.455527 0.619918 0.081193
H40   H     H_    0.336947 0.695417 0.465740 0.075753
H41   H     H_    0.234840 0.974691 0.422883 0.077685
H42   H     H_    0.961039 0.019714 0.578020 0.094580
H43   H     H_    0.852899 0.296555 0.531694 0.062253
H44   H     H_    0.767163 0.891686 0.555784 0.115259
H45   H     H_    0.828989 0.192015 0.317991 0.114606
H46   H     H_    0.426997 0.099298 0.445582 0.093416
H47   H     H_    0.930833 0.802038 0.238666 0.147115
H48   H     H_    0.147289 0.817171 0.228178 0.125468
H49   H     H_    0.285350 0.708449 0.572351 -0.038944
H50   H     H_    0.080899 0.744121 0.559017 0.055554
H51   H     H_    0.139955 0.965254 0.649854 0.187007
H52   H     H_    0.091627 0.868136 0.683567 0.216868
H53   H     H_    0.171166 0.179914 0.420147 0.191980
H54   H     H_    0.106702 0.270298 0.464891 0.209927
H55   H     H_    0.818807 0.123094 0.381534 0.080513
H56   H     H_    0.996510 0.120190 0.334947 0.108057
H57   H     H_    0.797365 0.643488 0.625321 0.012373
H58   H     H_    0.589691 0.601483 0.633843 0.079487
N1    N     N_R   0.986705 0.489758 0.850624 -0.422819
N2    N     N_R   0.202290 0.512239 0.150801 -0.422905
N3    N     N_3   0.101505 0.895124 0.642265 -0.494287
N4    N     N_3   0.068132 0.212397 0.437992 -0.522446
O1    O     O_2   0.901900 0.448470 0.362340 -0.473764
O2    O     O_2   0.260419 0.165567 0.550344 -0.478176
O3    O     O_3   0.157319 0.182023 0.657563 -0.610310
O4    O     O_3   0.142240 0.449440 0.433360 -0.487876
O5    O     O_3   0.549340 0.612930 0.525560 -0.484078
O6    O     O_2   0.396530 0.270940 0.479440 -0.460915
O7    O     O_3   0.566538 0.243920 0.382541 -0.658276
O8    O     O_2   0.442388 0.458049 0.710767 -0.496841
O9    O     O_3   0.491817 0.276278 0.705663 -0.594649
O10   O     O_2   0.058265 0.643693 0.850000 -0.596715
O11   O     O_2   0.918382 0.336457 0.860287 -0.618826
O12   O     O_3   0.622422 0.740575 0.614015 -0.643439
O13   O     O_2   0.135779 0.357406 0.150370 -0.598479
O14   O     O_2   0.273693 0.665052 0.141605 -0.614678
O15   O     O_3   0.645560 0.619080 0.391970 -0.485554
O16   O     O_2   0.778318 0.554808 0.291063 -0.499395
O17   O     O_3   0.079398 0.299047 0.355330 -0.638123
O18   O     O_3   0.677333 0.727586 0.292894 -0.599557
O19   O     O_2   0.793170 0.729090 0.520590 -0.465928
O20   O     O_3   0.052800 0.667320 0.419180 -0.492914
O21   O     O_2   0.933477 0.834573 0.451143 -0.485360
O22   O     O_3   0.035834 0.818333 0.343189 -0.603836
O23   O     O_2   0.287790 0.551560 0.637690 -0.459058
O24   O     O_3   0.047460 0.550640 0.566640 -0.495304
O25   O     O_3   0.544140 0.380990 0.608030 -0.475149
O26   O     O_3   0.124152 0.701288 0.641523 -0.632087
O27   O     O_3   0.640350 0.387150 0.474440 -0.477315
O28   O     O_3   0.136890 0.332750 0.580830 -0.492869
P1    P     P_3+3 0.074990 0.420800 0.372080 0.983235
P2    P     P_3+3 0.618830 0.715330 0.538180 0.974000
P3    P     P_3+3 0.072262 0.788757 0.414732 0.944249
P4    P     P_3+3 0.114710 0.579280 0.627920 0.992211
P5    P     P_3+3 0.119097 0.210431 0.585959 0.943512
P6    P     P_3+3 0.636620 0.614602 0.315681 0.947481
P7    P     P_3+3 0.576903 0.270686 0.458031 0.921937
P8    P     P_3+3 0.562398 0.385400 0.683901 0.944737

loop_
_geom_bond_atom_site_label_1
_geom_bond_atom_site_label_2
_ccdc_geom_bond_type
C42   C47   A    
C14   H28   S    
O4    P1    S    
C50   H45   S    
C48   H46   S    
C28   H49   S    
O12   P2    S    
C5    N1    Am   
C23   H9    S    
C24   N1    S    
C19   C24   D    
C26   C56   A    
C18   N2    Am   
C5    C6    A    
C20   P8    S    
C43   C44   A    
Ba2   O25   S    
C30   N2    S    
C12   H1    S    
C40   H23   S    
O21   P3    D    
C32   H44   S    
O15   P6    S    
C13   H29   S    
C33   C35   A    
Ba1   O5    S    
C36   C37   A    
C53   H19   S    
C40   N3    S    
C52   H5    S    
Ba2   O28   S    
C13   C14   A    
C40   H12   S    
Ba2   O24   S    
C54   C55   S    
C21   P4    S    
Ba1   Ba2   S    
C7    C11   A    
C38   C39   A    
O25   P8    S    
C45   O3    S    
C12   O18   S    
C17   N2    Am   
O1    P1    D    
C6    C7    A    
C21   C31   D    
C21   C22   D    
C55   H25   S    
Ba1   P1    S    
C43   P7    S    
C33   P2    S    
C50   H55   S    
C4    O22   S    
O27   P7    S    
C5    O11   D    
C54   O9    S    
Ba1   O19   S    
C51   H58   S    
C1    H2    S    
O18   P6    S    
C19   C20   S    
C26   P6    S    
Ba2   O23   S    
O17   P1    S    
C1    H7    S    
C32   C39   A    
C35   H40   S    
C28   O26   S    
Ba2   P4    S    
C4    C16   S    
C44   H43   S    
C44   C46   A    
C4    H26   S    
C49   C50   S    
C56   H37   S    
C32   C42   A    
C8    C9    A    
O7    P7    S    
C37   C38   A    
H54   N4    S    
C53   H20   S    
C14   C15   A    
C52   H4    S    
Ba2   O27   S    
C51   C52   S    
C3    N1    Am   
H53   N4    S    
O22   P3    S    
C41   C42   A    
C16   H48   S    
C35   C36   A    
C49   H34   S    
O16   P6    D    
C37   H41   S    
C29   C30   A    
C9    H30   S    
C27   C29   A    
C12   H6    S    
C10   C18   A    
C34   H10   S    
C49   N4    S    
Ba1   P2    S    
C51   O12   S    
C27   C56   A    
C54   H21   S    
O20   P3    S    
C1    C12   S    
O26   P4    S    
C53   H18   S    
C49   O17   S    
C46   C47   A    
C46   P5    S    
C6    C13   A    
Ba2   O4    S    
O2    P5    D    
Ba1   O27   S    
O28   P5    S    
C2    C8    A    
C22   H33   S    
Ba2   O6    S    
C36   P3    S    
C34   H11   S    
H51   N3    S    
C45   C53   S    
O3    P5    S    
C20   C31   S    
C3    O10   D    
C28   H50   S    
C25   C30   A    
C23   H8    S    
C45   H16   S    
C22   C24   S    
C2    C3    A    
H52   N3    S    
O9    P8    S    
C9    C10   A    
C34   H13   S    
C41   C48   A    
C52   H3    S    
C50   H56   S    
C17   O13   D    
C29   H36   S    
O19   P2    D    
C4    H38   S    
C54   H22   S    
C11   C15   A    
C16   H15   S    
C1    H14   S    
C23   O7    S    
Ba1   O4    S    
C45   H17   S    
C41   C43   A    
Ba1   O24   S    
O6    P7    D    
C47   H42   S    
C19   H35   S    
C38   C48   A    
C15   C17   A    
C55   H27   S    
C25   H31   S    
C31   H39   S    
C33   C39   A    
Ba1   O1    S    
C16   H47   S    
O5    P2    S    
O8    P8    D    
C23   C34   S    
C27   P1    S    
Ba2   O5    S    
C10   C11   A    
C8    H32   S    
O24   P4    S    
C25   C26   A    
C55   H24   S    
C28   C40   S    
Ba1   O20   S    
C18   O14   D    
C2    C7    A    
Ba1   O15   S    
O23   P4    D    
C51   H57   S    
