data_mof_unit_62192.cif
_audit_creation_date              2012-12-10T17:11:53-0500
_audit_creation_method            fapswitch 2.2
_symmetry_space_group_name_H-M    P1
_symmetry_Int_Tables_number       1
_space_group_crystal_system       triclinic
_cell_length_a                    21.653421
_cell_length_b                    21.649904
_cell_length_c                    21.869488
_cell_angle_alpha                 61.183663
_cell_angle_beta                  118.37614
_cell_angle_gamma                 88.413216
_cell_volume                      7452.14995028

loop_
_atom_site_label
_atom_site_type_symbol
_atom_type_description
_atom_site_fract_x
_atom_site_fract_y
_atom_site_fract_z
_atom_type_partial_charge
C1    C     C_R   0.619639 0.499412 0.499480 0.878220
C2    C     C_3   0.288784 0.708457 0.082611 0.171863
C3    C     C_3   0.180643 0.740075 0.972201 -0.164280
C4    C     C_3   0.206679 0.790989 0.917537 0.123176
C5    C     C_3   0.213516 0.770404 0.028262 -0.252011
C6    C     C_3   0.238435 0.822371 0.971716 -0.160488
C7    C     C_1   0.334715 0.663106 0.173577 -0.048057
C8    C     C_1   0.161730 0.836593 0.826619 -0.053236
C9    C     C_R   0.755626 0.461182 0.648664 -0.153451
C10   C     C_R   0.816705 0.457213 0.715489 -0.188330
C11   C     C_R   0.871701 0.483064 0.706448 -0.155326
C12   C     C_R   0.418646 0.581266 0.337514 0.883311
C13   C     C_R   0.868326 0.509269 0.632066 0.227586
C14   C     C_R   0.812361 0.501656 0.568827 0.086596
C15   C     C_R   0.751516 0.485863 0.573611 0.008639
C16   C     C_R   0.687129 0.496353 0.502618 -0.090697
C17   C     C_R   0.685425 0.512644 0.431315 0.176750
C18   C     C_R   0.749506 0.516221 0.432726 -0.218269
C19   C     C_R   0.812890 0.509838 0.500483 -0.172937
C20   C     C_3   0.711478 0.214813 0.028796 -0.168343
C21   C     C_3   0.692594 0.300050 0.973112 0.247847
C22   C     C_1   0.626467 0.374080 0.751549 -0.187019
C23   C     C_R   0.379803 0.501093 0.499561 0.864095
C24   C     C_1   0.875074 0.125538 0.248411 -0.187148
C25   C     C_3   0.729510 0.205770 0.972282 -0.203478
C26   C     C_3   0.710446 0.290898 0.917631 0.189330
C27   C     C_3   0.811540 0.198592 0.027544 -0.155771
C28   C     C_3   0.792711 0.208591 0.082332 0.164477
C29   C     C_3   0.791698 0.284499 0.971449 -0.207598
C30   C     C_3   0.773826 0.293714 0.028000 -0.169812
C31   C     C_1   0.664607 0.336434 0.826632 -0.063455
C32   C     C_1   0.837956 0.163054 0.173297 -0.065891
C33   C     C_R   0.244704 0.532382 0.351536 -0.190568
C34   C     C_R   0.581232 0.418696 0.662530 0.889612
C35   C     C_R   0.184358 0.533526 0.286206 0.225650
C36   C     C_R   0.129379 0.508353 0.296785 -0.159838
C37   C     C_R   0.132389 0.485625 0.370395 0.161055
C38   C     C_R   0.187476 0.496191 0.431179 0.086305
C39   C     C_R   0.247925 0.511666 0.425148 0.009047
C40   C     C_R   0.310969 0.505658 0.493468 -0.062167
C41   C     C_R   0.311498 0.495011 0.561569 -0.212842
C42   C     C_R   0.249132 0.489564 0.563118 -0.207295
C43   C     C_R   0.186770 0.490998 0.498540 -0.110052
C44   C     C_R   0.999315 0.881475 0.497005 0.863383
C45   C     C_3   0.281879 0.729152 0.971307 -0.178391
C46   C     C_R   0.080990 0.918710 0.662512 0.894284
C47   C     C_R   0.000609 0.118456 0.502848 0.862927
C48   C     C_R   0.918992 0.081127 0.337467 0.894990
C49   C     C_R   0.004015 0.620234 0.499879 0.875296
C50   C     C_R   0.879608 0.504050 0.500360 0.901804
C51   C     C_R   0.995754 0.379762 0.500127 0.875023
C52   C     C_R   0.120388 0.496105 0.499518 0.885470
C53   C     C_R   0.002896 0.879893 0.366168 -0.177303
C54   C     C_R   0.012350 0.875633 0.309402 -0.137106
C55   C     C_R   0.024692 0.807928 0.317521 -0.140214
C56   C     C_3   0.313462 0.759469 0.026942 0.210251
C57   C     C_R   0.025163 0.744754 0.380715 -0.172954
C58   C     C_R   0.012674 0.748559 0.436949 0.101991
C59   C     C_R   0.005323 0.815904 0.432190 0.096861
C60   C     C_R   0.999961 0.817247 0.493470 -0.095765
C61   C     C_R   0.000794 0.754446 0.557001 -0.204393
C62   C     C_R   0.005858 0.689461 0.560274 -0.216340
C63   C     C_R   0.008957 0.686732 0.499298 -0.111593
C64   C     C_R   0.000109 0.118860 0.635616 -0.177828
C65   C     C_R   0.992182 0.122386 0.693591 -0.137081
C66   C     C_R   0.979745 0.189922 0.685797 -0.141152
C67   C     C_1   0.373103 0.625714 0.248595 -0.181165
C68   C     C_R   0.977646 0.253694 0.621668 -0.172886
C69   C     C_R   0.988647 0.250676 0.564175 0.102604
C70   C     C_R   0.996109 0.183410 0.568747 0.096691
C71   C     C_R   0.999891 0.182703 0.506359 -0.094396
C72   C     C_R   0.996993 0.246166 0.441614 -0.205503
C73   C     C_R   0.991666 0.311152 0.438352 -0.215702
C74   C     C_R   0.990625 0.313198 0.500691 -0.112539
C75   C     C_1   0.124818 0.874204 0.751530 -0.187449
C76   C     C_3   0.256633 0.678469 0.027478 0.210545
H1    H     H_    0.749715 0.523780 0.380045 0.178926
H2    H     H_    0.679097 0.186027 0.053551 0.140399
H3    H     H_    0.792205 0.329158 0.052112 0.136215
H4    H     H_    0.823815 0.313615 0.946472 0.137767
H5    H     H_    0.710817 0.170470 0.948046 0.145429
H6    H     H_    0.288540 0.548984 0.343770 0.146994
H7    H     H_    0.085850 0.502829 0.249329 0.143524
H8    H     H_    0.998363 0.755556 0.604878 0.152562
H9    H     H_    0.010959 0.924839 0.259547 0.134619
H10   H     H_    0.230688 0.882308 0.947392 0.143281
H11   H     H_    0.006182 0.641484 0.610081 0.167891
H12   H     H_    0.997981 0.245565 0.392781 0.151123
H13   H     H_    0.186241 0.786516 0.052882 0.150828
H14   H     H_    0.125420 0.732332 0.948346 0.143345
H15   H     H_    0.712000 0.444142 0.656501 0.134333
O1    O     O_R   0.591660 0.448290 0.500000 -0.620764
O2    O     O_R   0.948250 0.908380 0.499990 -0.617229
O3    O     O_R   0.113330 0.938270 0.623230 -0.610410
O4    O     O_R   0.009880 0.938380 0.623210 -0.625581
O5    O     O_R   0.051750 0.091470 0.500010 -0.616858
O6    O     O_R   0.948300 0.091580 0.500000 -0.622624
O7    O     O_R   0.990120 0.061470 0.376790 -0.625948
O8    O     O_R   0.886670 0.061580 0.376770 -0.610658
O9    O     O_R   0.965170 0.626380 0.430470 -0.624672
O10   O     O_R   0.034730 0.556800 0.569600 -0.629027
O11   O     O_R   0.873600 0.534810 0.430420 -0.623554
O12   O     O_R   0.591590 0.551700 0.500020 -0.615176
O13   O     O_R   0.943150 0.465220 0.569550 -0.622846
O14   O     O_R   0.965270 0.443220 0.430400 -0.629848
O15   O     O_R   0.034830 0.373630 0.569530 -0.624975
O16   O     O_R   0.056850 0.534790 0.430450 -0.622179
O17   O     O_R   0.126400 0.465210 0.569580 -0.621658
O18   O     O_R   0.438430 0.509910 0.376770 -0.621878
O19   O     O_R   0.438360 0.613320 0.376790 -0.612479
O20   O     O_R   0.408410 0.448300 0.499980 -0.613882
O21   O     O_R   0.408340 0.551710 0.500000 -0.622587
O22   O     O_R   0.561640 0.386680 0.623210 -0.613921
O23   O     O_R   0.561570 0.490090 0.623230 -0.619269
O24   O     O_R   0.051700 0.908270 0.500000 -0.623173
Zn1   Zn    Zn3+2 0.500040 0.430950 0.499990 0.964162
Zn2   Zn    Zn3+2 0.499960 0.569050 0.500010 0.964952
Zn3   Zn    Zn3+2 0.069070 0.999850 0.500010 0.959768
Zn4   Zn    Zn3+2 0.930930 0.000000 0.499990 0.959866
Zn5   Zn    Zn3+2 0.953560 0.546470 0.407100 0.935385
Zn6   Zn    Zn3+2 0.046440 0.453550 0.592900 0.935344
C77   C     C_3   0.389067 0.770124 0.058774 -0.927815
H16   H     H_    0.391528 0.810208 0.004590 0.246338
H17   H     H_    0.397813 0.792311 0.097569 0.249199
H18   H     H_    0.433499 0.715681 0.097589 0.245188
H19   H     H_    0.915266 0.486206 0.756093 0.139671
C78   C     C_3   0.916407 0.555983 0.618330 -0.887507
H20   H     H_    0.975285 0.519487 0.658706 0.259872
H21   H     H_    0.897340 0.591252 0.551397 0.231450
H22   H     H_    0.912971 0.595534 0.636115 0.217803
C79   C     C_3   0.624631 0.358079 0.941336 -0.941185
H23   H     H_    0.626115 0.351698 0.995549 0.245342
H24   H     H_    0.624482 0.415013 0.902219 0.247699
H25   H     H_    0.573290 0.350222 0.902878 0.246407
H26   H     H_    0.861431 0.155898 0.051666 0.137587
H27   H     H_    0.360430 0.490761 0.613688 0.147144
H28   H     H_    0.309402 0.712739 0.947064 0.142192
C80   C     C_3   0.181810 0.557295 0.207974 -0.935410
H29   H     H_    0.231336 0.520018 0.224564 0.249169
H30   H     H_    0.130987 0.554690 0.161903 0.236813
H31   H     H_    0.182170 0.615658 0.177740 0.245405
C81   C     C_3   0.084563 0.439442 0.386189 -0.871444
H32   H     H_    0.103789 0.405977 0.453207 0.231701
H33   H     H_    0.025698 0.476140 0.345108 0.260901
H34   H     H_    0.088081 0.398147 0.370627 0.217988
H35   H     H_    0.249423 0.485173 0.614775 0.168263
H36   H     H_    0.993339 0.933663 0.357431 0.145169
H37   H     H_    0.033811 0.804337 0.274598 0.136991
H38   H     H_    0.037050 0.693072 0.385814 0.158756
H39   H     H_    0.009639 0.065242 0.643997 0.144248
H40   H     H_    0.994771 0.072747 0.744106 0.136185
H41   H     H_    0.971745 0.192936 0.729655 0.137215
H42   H     H_    0.965559 0.305203 0.616824 0.159268
H43   H     H_    0.989509 0.359684 0.387411 0.167375
C82   C     C_3   0.267143 0.596614 0.059790 -0.933006
H44   H     H_    0.238140 0.591263 0.005842 0.244675
H45   H     H_    0.327369 0.564483 0.099020 0.248373
H46   H     H_    0.243611 0.573880 0.098217 0.249922
C83   C     C_3   0.617402 0.526560 0.352606 -0.898769
H47   H     H_    0.567031 0.526421 0.354124 0.244308
H48   H     H_    0.604057 0.582070 0.297498 0.236732
H49   H     H_    0.629120 0.482907 0.342924 0.242979
H50   H     H_    0.819297 0.437957 0.772717 0.143734

loop_
_geom_bond_atom_site_label_1
_geom_bond_atom_site_label_2
_ccdc_geom_bond_type
C66   C68   A    
C21   C26   S    
C50   O13   A    
C10   H50   S    
C49   C63   S    
C82   H45   S    
O3    Zn3   S    
C41   C42   A    
C35   C36   A    
C51   C74   S    
O17   Zn6   S    
C4    C8    S    
C79   H25   S    
C9    H15   S    
C12   O19   A    
C53   C59   A    
C2    C76   S    
C53   C54   A    
C34   O22   A    
C23   O21   A    
C33   C39   A    
C3    H14   S    
C5    C6    S    
O5    Zn3   S    
C36   C37   A    
C37   C38   A    
C51   O15   A    
C35   C80   S    
C49   O10   A    
C38   C39   A    
C43   C52   S    
C27   C29   S    
C20   C25   S    
C36   H7    S    
C15   C16   A    
C53   H36   S    
C18   C19   A    
C73   C74   A    
C24   C32   T    
C12   O18   A    
C44   O2    A    
O18   Zn1   S    
C52   O16   A    
C21   C79   S    
C46   O4    A    
C2    C7    S    
C44   O24   A    
C16   C17   A    
C57   H38   S    
C73   H43   S    
C47   O5    A    
C83   H48   S    
O14   Zn5   S    
O20   Zn1   S    
O9    Zn5   S    
C64   C70   A    
C9    C10   A    
C1    O12   A    
C21   C30   S    
C61   C62   A    
O22   Zn1   S    
C59   C60   A    
C13   C14   A    
C82   H46   S    
C25   H5    S    
C81   H34   S    
O12   Zn2   S    
O19   Zn2   S    
C46   C75   S    
C72   H12   S    
O7    Zn3   S    
C4    C45   S    
C22   C34   S    
C12   C67   S    
C37   C81   S    
C24   C48   S    
C28   C32   S    
C11   H19   S    
C45   C56   S    
C4    C6    S    
C68   H42   S    
C22   C31   T    
C39   C40   A    
C68   C69   A    
O13   Zn6   S    
C20   C28   S    
O4    Zn4   S    
C58   C59   A    
O8    Zn4   S    
C61   H8    S    
C8    C75   T    
O10   Zn6   S    
C3    C4    S    
C64   H39   S    
C60   C61   A    
C56   C77   S    
C65   H40   S    
C78   H21   S    
C66   H41   S    
C29   C30   S    
C83   H47   S    
C46   O3    A    
C51   O14   A    
O24   Zn3   S    
C62   C63   A    
C45   H28   S    
C17   C18   A    
C83   H49   S    
C69   C74   A    
C1    C16   S    
C3    C76   S    
O1    Zn1   S    
C47   C71   S    
C70   C71   A    
C80   H30   S    
C30   H3    S    
C40   C41   A    
C50   O11   A    
C1    O1    A    
C10   C11   A    
C55   C57   A    
C81   H33   S    
C2    C5    S    
C34   O23   A    
C42   C43   A    
C77   H17   S    
C79   H23   S    
C42   H35   S    
C3    C5    S    
O16   Zn5   S    
C82   H44   S    
O11   Zn5   S    
C33   H6    S    
C58   C63   A    
C48   O8    A    
C54   C55   A    
C14   C15   A    
C14   C19   A    
C6    C56   S    
C72   C73   A    
C79   H24   S    
C80   H31   S    
C6    H10   S    
C54   H9    S    
C78   H20   S    
C25   C27   S    
C23   O20   A    
C62   H11   S    
C76   C82   S    
C47   O6    A    
C20   H2    S    
C27   H26   S    
C64   C65   A    
C77   H18   S    
C28   C30   S    
C9    C15   A    
C78   H22   S    
C38   C43   A    
C2    C56   S    
C25   C26   S    
C49   O9    A    
C11   C13   A    
C19   C50   S    
C57   C58   A    
O21   Zn2   S    
C29   H4    S    
C44   C60   S    
C18   H1    S    
O15   Zn6   S    
C45   C76   S    
O6    Zn4   S    
C33   C35   A    
C55   H37   S    
C48   O7    A    
C69   C70   A    
C17   C83   S    
O23   Zn2   S    
C80   H29   S    
C7    C67   T    
C13   C78   S    
C26   C31   S    
C71   C72   A    
C20   C21   S    
C52   O17   A    
C26   C29   S    
C65   C66   A    
C27   C28   S    
C81   H32   S    
O2    Zn4   S    
C77   H16   S    
C41   H27   S    
C5    H13   S    
C23   C40   S    
