data_mof_unit_28888.cif
_audit_creation_date              2012-12-11T14:45:53-0500
_audit_creation_method            fapswitch 2.2
_symmetry_space_group_name_H-M    P1
_symmetry_Int_Tables_number       1
_space_group_crystal_system       triclinic
_cell_length_a                    10.926448
_cell_length_b                    10.944007
_cell_length_c                    18.827353
_cell_angle_alpha                 89.920582
_cell_angle_beta                  90.096754
_cell_angle_gamma                 119.890844
_cell_volume                      1951.87139874

loop_
_atom_site_label
_atom_site_type_symbol
_atom_type_description
_atom_site_fract_x
_atom_site_fract_y
_atom_site_fract_z
_atom_type_partial_charge
C1    C     C_R   0.864995 0.636952 0.603746 0.542775
C2    C     C_R   0.439872 0.647962 0.776272 -0.109152
C3    C     C_R   0.415250 0.636767 0.704057 -0.129763
C4    C     C_R   0.316266 0.668542 0.676488 0.029040
C5    C     C_R   0.835138 0.156082 0.819953 -0.024330
C6    C     C_R   0.086910 0.225990 0.824752 -0.124760
C7    C     C_R   0.211281 0.253799 0.790606 -0.073329
C8    C     C_R   0.211941 0.234872 0.717562 0.101505
C9    C     C_R   0.087919 0.189907 0.678450 -0.073502
C10   C     C_R   0.963611 0.172658 0.710802 -0.011431
C11   C     C_R   0.961060 0.182483 0.785886 -0.013870
C12   C     C_R   0.269053 0.631862 0.604089 0.543556
C13   C     C_R   0.714758 0.103897 0.705108 0.010022
C14   C     C_R   0.717619 0.136279 0.777290 0.022960
C15   C     C_R   0.585797 0.043498 0.667467 -0.074702
C16   C     C_R   0.467218 0.038103 0.697547 -0.101165
C17   C     C_R   0.476625 0.095285 0.764493 -0.111953
C18   C     C_R   0.601257 0.146846 0.803485 -0.077136
C19   C     C_R   0.842752 0.147252 0.670184 -0.041155
C20   C     C_R   0.732290 0.532098 0.714671 -0.130569
C21   C     C_R   0.723437 0.543645 0.787794 -0.150946
C22   C     C_R   0.803599 0.675145 0.819925 0.020351
C23   C     C_R   0.861110 0.221273 0.601353 0.535825
C24   C     C_R   0.883119 0.796102 0.778169 -0.133821
C25   C     C_R   0.890490 0.785038 0.705782 -0.149947
C26   C     C_R   0.820713 0.652581 0.674010 0.015455
C27   C     C_R   0.249952 0.539090 0.276501 -0.132646
C28   C     C_R   0.268625 0.555619 0.204296 -0.151582
C29   C     C_R   0.343041 0.690884 0.175407 0.009475
C30   C     C_R   0.390525 0.810162 0.219233 -0.147349
C31   C     C_R   0.368841 0.793201 0.292223 -0.152851
C32   C     C_R   0.302842 0.657417 0.321001 0.023393
C33   C     C_R   0.782187 0.250070 0.276191 -0.110715
C34   C     C_R   0.867577 0.638128 0.396842 0.538767
C35   C     C_R   0.779263 0.235594 0.203499 0.069324
C36   C     C_R   0.850304 0.171144 0.172232 0.027328
C37   C     C_R   0.934072 0.135385 0.214696 -0.166284
C38   C     C_R   0.937187 0.152090 0.287993 -0.161452
C39   C     C_R   0.856256 0.204069 0.318955 0.005610
C40   C     C_R   0.954509 0.676879 0.276011 -0.114144
C41   C     C_R   0.937169 0.683513 0.203521 0.086413
C42   C     C_R   0.807560 0.660786 0.177873 0.091794
C43   C     C_R   0.693654 0.624597 0.224375 -0.138777
C44   C     C_R   0.711019 0.616132 0.296915 -0.151747
C45   C     C_R   0.267923 0.631956 0.395476 0.539356
C46   C     C_R   0.843080 0.647407 0.322577 0.014471
C47   C     C_R   0.806469 0.104178 0.894591 0.531727
C48   C     C_R   0.398381 0.701976 0.895811 0.540284
C49   C     C_R   0.794553 0.695832 0.895236 0.548910
C50   C     C_R   0.809268 0.109253 0.101802 0.560418
C51   C     C_R   0.396521 0.705392 0.103890 0.547541
C52   C     C_R   0.795794 0.695938 0.105312 0.598596
C53   C     C_R   0.864364 0.234843 0.394117 0.541287
C54   C     C_R   0.244683 0.715398 0.721259 -0.128071
C55   C     C_R   0.271552 0.729177 0.793705 -0.137800
C56   C     C_R   0.366372 0.691600 0.821202 0.043295
Cr1   Cr    Cr6+3 0.791660 0.390250 0.499930 1.016853
Cr2   Cr    Cr6+3 0.098520 0.708290 0.500540 1.004191
Cr3   Cr    Cr6+3 0.109770 0.401430 0.499480 1.005066
Cr4   Cr    Cr6+3 0.874790 0.925890 0.000070 1.024514
Cr5   Cr    Cr6+3 0.574120 0.948670 0.999300 1.044042
Cr6   Cr    Cr6+3 0.551420 0.625320 0.000920 1.032285
H1    H     H_    0.165026 0.737325 0.700551 0.141386
H2    H     H_    0.369801 0.994479 0.667678 0.111843
H3    H     H_    0.578485 0.005303 0.613677 0.119810
H4    H     H_    0.387075 0.098875 0.786531 0.127042
H5    H     H_    0.677085 0.428252 0.690864 0.164415
H6    H     H_    0.657310 0.450738 0.819162 0.120766
H7    H     H_    0.940571 0.900287 0.801431 0.152743
H8    H     H_    0.957577 0.879066 0.675304 0.128800
H9    H     H_    0.192503 0.432861 0.297443 0.151073
H10   H     H_    0.230181 0.462477 0.171317 0.143327
H11   H     H_    0.449781 0.915765 0.197663 0.161933
H12   H     H_    0.216145 0.764690 0.828112 0.118969
H13   H     H_    0.405809 0.884897 0.326079 0.130069
H14   H     H_    0.726503 0.299163 0.299242 0.165811
H15   H     H_    0.989649 0.085946 0.191978 0.148596
H16   H     H_    0.999900 0.122028 0.320429 0.132069
H17   H     H_    0.055004 0.694248 0.295999 0.140701
H18   H     H_    0.593204 0.608173 0.204852 0.151105
H19   H     H_    0.623826 0.589517 0.332801 0.126767
H20   H     H_    0.516103 0.621863 0.797371 0.142628
H21   H     H_    0.470448 0.600278 0.670134 0.122218
H22   H     H_    0.307469 0.290507 0.821094 0.128552
H23   H     H_    0.091967 0.245328 0.881297 0.134065
H24   H     H_    0.090198 0.166392 0.622895 0.128931
H25   H     H_    0.605854 0.198310 0.853153 0.139220
O1    O     O_R   0.766500 0.250040 0.579790 -0.512442
O2    O     O_R   0.218690 0.701900 0.425960 -0.506258
O3    O     O_R   0.249490 0.516440 0.419420 -0.524956
O4    O     O_R   0.982880 0.281910 0.424890 -0.508714
O5    O     O_3   0.999980 0.499990 0.499980 -0.244044
O6    O     O_R   0.895110 0.806860 0.920430 -0.520796
O7    O     O_R   0.872260 0.046970 0.925000 -0.509500
O8    O     O_R   0.691430 0.085060 0.918550 -0.520858
O9    O     O_R   0.451490 0.822460 0.925250 -0.495679
O10   O     O_R   0.413330 0.603360 0.920440 -0.528609
O11   O     O_R   0.676110 0.626250 0.926750 -0.505255
O12   O     O_R   0.798570 0.516780 0.574780 -0.503079
O13   O     O_R   0.895350 0.809870 0.080950 -0.490422
O14   O     O_R   0.872490 0.049760 0.073800 -0.516961
O15   O     O_R   0.691680 0.088070 0.079070 -0.478936
O16   O     O_R   0.451720 0.825250 0.074050 -0.497555
O17   O     O_R   0.413580 0.606370 0.080960 -0.520151
O18   O     O_R   0.676340 0.629040 0.075550 -0.494587
O19   O     O_3   0.666780 0.833290 0.000090 -0.262930
O20   O     O_R   0.984000 0.732950 0.581090 -0.530770
O21   O     O_R   0.218600 0.700890 0.574760 -0.512969
O22   O     O_R   0.249390 0.515350 0.579940 -0.518695
O23   O     O_R   0.982790 0.280900 0.573700 -0.507160
O24   O     O_R   0.766600 0.251130 0.419260 -0.526043
O25   O     O_R   0.798660 0.517790 0.425980 -0.502170
O26   O     O_R   0.984100 0.734040 0.420570 -0.520837
I1    I     I_    0.653766 0.305024 0.148526 -0.394055
N1    N     N_3   0.050047 0.712289 0.155704 -0.602113
H26   H     H_    0.139294 0.805664 0.171708 0.238986
H27   H     H_    0.071210 0.629553 0.160072 0.239768
N2    N     N_3   0.340190 0.265077 0.682757 -0.654229
H28   H     H_    0.319976 0.177035 0.652550 0.215121
H29   H     H_    0.365849 0.347508 0.647041 0.242578

loop_
_geom_bond_atom_site_label_1
_geom_bond_atom_site_label_2
_ccdc_geom_bond_type
C55   C56   A    
Cr1   O5    S    
C34   O25   A    
C41   C42   A    
C14   C18   A    
C20   H5    S    
C35   C36   A    
C1    O12   A    
Cr5   O9    S    
C8    N2    S    
C7    C8    A    
Cr6   O18   S    
C39   C53   S    
C34   O26   A    
C40   C46   A    
C48   O10   A    
C5    C47   S    
C17   H4    S    
C29   C30   A    
C6    H23   S    
C28   C29   A    
Cr5   O16   S    
C5    C11   A    
C30   C31   A    
Cr1   O25   S    
C54   H1    S    
C51   O16   A    
C15   C16   A    
C15   H3    S    
Cr3   O23   S    
C35   I1    S    
Cr2   O20   S    
C32   C45   S    
N2    H28   S    
C33   C35   A    
C49   O11   A    
Cr6   O11   S    
C55   H12   S    
C8    C9    A    
N1    H27   S    
C53   O4    A    
Cr2   O26   S    
C34   C46   S    
C51   O17   A    
C4    C12   S    
C45   O2    A    
C9    C10   A    
Cr4   O6    S    
C53   O24   A    
C7    H22   S    
C21   C22   A    
C28   H10   S    
C41   N1    S    
C12   O22   A    
C44   C46   A    
C24   H7    S    
Cr6   O17   S    
C38   C39   A    
C13   C19   A    
C24   C25   A    
C44   H19   S    
C6    C11   A    
C12   O21   A    
C30   H11   S    
C16   C17   A    
Cr3   O4    S    
C38   H16   S    
C25   C26   A    
C37   H15   S    
C52   O13   A    
C3    C4    A    
C27   H9    S    
Cr3   O3    S    
C19   C23   S    
C43   C44   A    
Cr4   O7    S    
C37   C38   A    
C45   O3    A    
C9    H24   S    
Cr6   O10   S    
C33   H14   S    
C31   H13   S    
C31   C32   A    
C10   C19   A    
C17   C18   A    
C40   H17   S    
C33   C39   A    
Cr5   O19   S    
C5    C14   A    
C1    O20   A    
C22   C49   S    
C40   C41   A    
C52   O18   A    
C50   O15   A    
C23   O1    A    
C13   C15   A    
C21   H6    S    
C3    H21   S    
C1    C26   S    
C22   C24   A    
C2    H20   S    
C42   C43   A    
Cr4   O14   S    
C36   C50   S    
C29   C51   S    
C48   C56   S    
C23   O23   A    
C54   C55   A    
C36   C37   A    
C48   O9    A    
C4    C54   A    
C27   C32   A    
Cr4   O13   S    
Cr5   O8    S    
C6    C7    A    
Cr6   O19   S    
Cr4   O19   S    
C18   H25   S    
Cr1   O1    S    
C2    C3    A    
C43   H18   S    
C2    C56   A    
Cr1   O24   S    
C20   C26   A    
Cr3   O22   S    
C47   O7    A    
Cr5   O15   S    
Cr2   O21   S    
Cr3   O5    S    
Cr2   O2    S    
N2    H29   S    
C10   C11   A    
C20   C21   A    
C50   O14   A    
C27   C28   A    
C47   O8    A    
C25   H8    S    
C16   H2    S    
C49   O6    A    
C13   C14   A    
Cr2   O5    S    
N1    H26   S    
C42   C52   S    
Cr1   O12   S    
