data_mof_unit_11020.cif
_audit_creation_date              2012-12-10T20:27:12-0500
_audit_creation_method            fapswitch 2.2
_symmetry_space_group_name_H-M    P1
_symmetry_Int_Tables_number       1
_space_group_crystal_system       triclinic
_cell_length_a                    10.546423
_cell_length_b                    10.707398
_cell_length_c                    9.855692
_cell_angle_alpha                 89.338155
_cell_angle_beta                  103.228746
_cell_angle_gamma                 89.873662
_cell_volume                      1083.33277655

loop_
_atom_site_label
_atom_site_type_symbol
_atom_type_description
_atom_site_fract_x
_atom_site_fract_y
_atom_site_fract_z
_atom_type_partial_charge
C1    C     C_R   0.504105 0.259738 0.501292 0.853756
C2    C     C_R   0.601297 0.548622 0.096985 -0.295123
C3    C     C_R   0.601379 0.551992 0.950770 0.548021
C4    C     C_R   0.257660 0.505555 0.442644 0.977041
C5    C     C_R   0.391574 0.465650 0.902872 0.191050
C6    C     C_3   0.325950 0.342436 0.883180 -0.497050
C7    C     C_3   0.323924 0.343505 0.036663 -0.491557
C8    C     C_R   0.503265 0.739888 0.499973 0.910490
C9    C     C_R   0.743201 0.504680 0.557365 0.773267
C10   C     C_2   0.118171 0.524665 0.411852 -0.495133
C11   C     C_2   0.065628 0.601742 0.490535 0.633989
C12   C     C_R   0.523064 0.127906 0.502784 -0.093518
C13   C     C_2   0.883531 0.531646 0.585935 0.379587
C14   C     C_2   0.926773 0.586844 0.481898 -0.420896
C15   C     C_R   0.566195 0.061209 0.627128 -0.094358
C16   C     C_3   0.740031 0.148991 0.865977 0.137790
C17   C     C_3   0.834855 0.037537 0.889917 -0.392618
C18   C     C_3   0.974070 0.077665 0.892235 -0.987551
C19   C     C_3   0.790064 0.676942 0.992294 -0.391202
C20   C     C_3   0.076331 0.789197 0.606627 -0.238064
C21   C     C_3   0.939731 0.402956 0.781916 -0.311400
C22   C     C_3   0.384068 0.851936 0.890527 -0.290969
C23   C     C_R   0.506113 0.065369 0.375349 -0.183995
C24   C     C_R   0.506042 0.936588 0.374495 -0.232570
C25   C     C_R   0.522146 0.870827 0.501063 -0.041189
C26   C     C_R   0.563175 0.933681 0.626236 -0.054535
C27   C     C_3   0.528591 0.922705 0.765008 0.337745
C28   C     C_3   0.527350 0.065160 0.764932 0.243698
C29   C     C_R   0.391283 0.466174 0.045092 0.207664
H1    H     H_    0.862727 0.606818 0.380864 0.117855
H2    H     H_    0.608520 0.876984 0.843563 0.102519
H3    H     H_    0.427515 0.103122 0.752758 0.121523
H4    H     H_    0.778264 0.219767 0.946388 0.156440
H5    H     H_    0.736390 0.196881 0.764605 0.132336
H6    H     H_    0.833011 0.991325 0.991020 0.227483
H7    H     H_    0.805190 0.968382 0.805860 0.208011
H8    H     H_    0.980081 0.116177 0.788891 0.261169
H9    H     H_    0.040064 0.995363 0.915897 0.265811
H10   H     H_    0.007325 0.148902 0.973564 0.262656
H11   H     H_    0.854215 0.726021 0.934387 0.210477
H12   H     H_    0.682030 0.583601 0.174723 0.163157
H13   H     H_    0.853679 0.617086 0.072999 0.169614
H14   H     H_    0.739213 0.749925 0.039730 0.144385
H15   H     H_    0.008202 0.770996 0.675456 0.182030
H16   H     H_    0.023493 0.831231 0.505429 0.123659
H17   H     H_    0.147371 0.859709 0.657887 0.210412
H18   H     H_    0.914659 0.324057 0.708178 0.122401
H19   H     H_    0.861546 0.420473 0.837796 0.214642
H20   H     H_    0.026475 0.374619 0.862731 0.178244
H21   H     H_    0.388159 0.941468 0.947587 0.153611
H22   H     H_    0.456150 0.784217 0.950689 0.154676
H23   H     H_    0.228341 0.348244 0.811364 0.222744
H24   H     H_    0.286113 0.811346 0.882864 0.194934
H25   H     H_    0.391045 0.269808 0.858437 0.222009
H26   H     H_    0.224367 0.352057 0.055489 0.193859
H27   H     H_    0.385396 0.269062 0.098601 0.214762
H28   H     H_    0.057343 0.469455 0.330320 0.105541
H29   H     H_    0.483284 0.114625 0.276167 0.164008
H30   H     H_    0.483298 0.889848 0.274953 0.162370
N1    N     N_R   0.499160 0.499140 0.142600 -0.118779
N2    N     N_R   0.499160 0.499180 0.856960 -0.144262
O1    O     O_R   0.500020 0.316790 0.614700 -0.630122
O2    O     O_3   0.701502 0.603423 0.897332 -0.572935
O3    O     O_3   0.144046 0.678923 0.588102 -0.546148
O4    O     O_3   0.969301 0.512714 0.715228 -0.573174
O5    O     O_3   0.403506 0.871491 0.754905 -0.587880
O6    O     O_R   0.500000 0.316760 0.385350 -0.614488
O7    O     O_R   0.317820 0.500020 0.571850 -0.553443
O8    O     O_R   0.317800 0.499980 0.342510 -0.618726
O9    O     O_R   0.500000 0.683240 0.614650 -0.540095
O10   O     O_R   0.499980 0.683210 0.385300 -0.643502
O11   O     O_R   0.682200 0.500020 0.657490 -0.556259
O12   O     O_R   0.682180 0.499980 0.428150 -0.636166
O13   O     O_3   0.615731 0.113200 0.884897 -0.668409
Zn1   Zn    Zn3+2 0.500010 0.500020 0.653140 1.027416
Zn2   Zn    Zn3+2 0.499990 0.499980 0.346860 0.931265

loop_
_geom_bond_atom_site_label_1
_geom_bond_atom_site_label_2
_ccdc_geom_bond_type
C20   O3    S    
C23   H29   S    
C18   H10   S    
C29   N1    A    
C19   H13   S    
C6    C7    S    
C7    C29   S    
C17   H7    S    
C3    O2    S    
C16   H4    S    
C15   C26   A    
C8    O9    A    
C20   H16   S    
C12   C15   A    
C7    H26   S    
C23   C24   A    
C21   H19   S    
C28   O13   S    
C1    O1    A    
C8    O10   A    
C21   H20   S    
C2    C3    A    
C18   H9    S    
C5    N2    A    
C27   O5    S    
C13   O4    S    
C13   C14   D    
N2    Zn1   S    
O7    Zn1   S    
C8    C25   S    
C12   C23   A    
C15   C28   S    
C5    C6    S    
C1    C12   S    
C9    O12   A    
C7    H27   S    
C6    H25   S    
C24   H30   S    
C16   O13   S    
C4    O8    A    
C1    O6    A    
C18   H8    S    
C19   H14   S    
C20   H15   S    
C22   H24   S    
C5    C29   A    
O11   Zn1   S    
C27   H2    S    
C26   C27   S    
O10   Zn2   S    
O12   Zn2   S    
C2    N1    A    
O1    Zn1   S    
C16   C17   S    
C10   C11   D    
C2    H12   S    
C4    C10   S    
C6    H23   S    
C22   H21   S    
C28   H3    S    
C10   H28   S    
C24   C25   A    
O9    Zn1   S    
O8    Zn2   S    
C17   C18   S    
C11   O3    S    
C19   H11   S    
C19   O2    S    
C11   C14   S    
C4    O7    A    
C21   H18   S    
C9    C13   S    
C22   O5    S    
C9    O11   A    
O6    Zn2   S    
C17   H6    S    
C16   H5    S    
C25   C26   A    
C14   H1    S    
C21   O4    S    
N1    Zn2   S    
C20   H17   S    
C3    N2    A    
C22   H22   S    
C27   C28   S    
