data_mof_unit_10254.cif
_audit_creation_date              2012-12-10T17:16:37-0500
_audit_creation_method            fapswitch 2.2
_symmetry_space_group_name_H-M    P1
_symmetry_Int_Tables_number       1
_space_group_crystal_system       triclinic
_cell_length_a                    10.231226
_cell_length_b                    10.564688
_cell_length_c                    10.812915
_cell_angle_alpha                 90.772128
_cell_angle_beta                  96.763153
_cell_angle_gamma                 78.943864
_cell_volume                      1139.04059763

loop_
_atom_site_label
_atom_site_type_symbol
_atom_type_description
_atom_site_fract_x
_atom_site_fract_y
_atom_site_fract_z
_atom_type_partial_charge
C1    C     C_R   0.442335 0.509278 0.266583 0.958576
C2    C     C_R   0.557558 0.493928 0.732786 0.965208
C3    C     C_2   0.407849 0.525623 0.132258 0.034726
C4    C     C_2   0.592520 0.491616 0.866395 0.035397
C5    C     C_2   0.509931 0.532939 0.066614 -0.057166
C6    C     C_2   0.495078 0.547083 0.933685 -0.108455
C7    C     C_2   0.076832 0.477638 0.497769 0.164636
C8    C     C_2   0.934314 0.489371 0.526183 0.187737
C9    C     C_R   0.509010 0.259520 0.518104 0.934494
C10   C     C_R   0.493122 0.742272 0.489676 0.926391
C11   C     C_R   0.750580 0.062298 0.466685 -0.159279
C12   C     C_R   0.261977 0.938248 0.568215 -0.182539
C13   C     C_R   0.827492 0.993391 0.380811 0.406134
C14   C     C_R   0.186383 0.009158 0.653939 0.401794
C15   C     C_R   0.777598 0.897039 0.309366 0.062538
C16   C     C_R   0.234603 0.109846 0.719474 0.064973
C17   C     C_R   0.654138 0.866921 0.332491 0.359480
C18   C     C_R   0.355737 0.141434 0.691644 0.346236
C19   C     C_R   0.585276 0.927255 0.430501 -0.044587
C20   C     C_R   0.424369 0.076877 0.595195 -0.052203
C21   C     C_R   0.623076 0.037202 0.483595 -0.061151
C22   C     C_R   0.387745 0.964276 0.545718 -0.054406
C23   C     C_R   0.478915 0.881895 0.476196 -0.074363
C24   C     C_R   0.528753 0.121840 0.546408 -0.079886
H1    H     H_    0.792527 0.134751 0.521081 0.227158
H2    H     H_    0.216937 0.866687 0.515947 0.232287
H3    H     H_    0.398968 0.598288 0.889305 0.175489
H4    H     H_    0.611670 0.525517 0.111736 0.194417
H5    H     H_    0.861260 0.434601 0.357862 0.165866
H6    H     H_    0.114631 0.633036 0.595538 0.182663
N1    N     N_2   0.157300 0.551390 0.551120 -0.189686
N2    N     N_2   0.842700 0.448610 0.448880 -0.183966
O1    O     O_R   0.568940 0.489660 0.307530 -0.608852
O2    O     O_R   0.431060 0.510340 0.692470 -0.588546
O3    O     O_R   0.348880 0.522640 0.340350 -0.620470
O4    O     O_R   0.651120 0.477360 0.659650 -0.631344
O5    O     O_R   0.610030 0.300280 0.483580 -0.623481
O6    O     O_R   0.389970 0.699720 0.516420 -0.633564
O7    O     O_R   0.389970 0.333270 0.516400 -0.603428
O8    O     O_R   0.610030 0.666730 0.483600 -0.594505
Zn1   Zn    Zn3+2 0.646940 0.477980 0.478080 0.966160
Zn2   Zn    Zn3+2 0.353060 0.522020 0.521920 0.969020
C25   C     C_3   0.158910 0.185467 0.817137 -0.733467
H7    H     H_    0.061485 0.157668 0.826132 0.267309
H8    H     H_    0.220212 0.170728 0.909421 0.266787
H9    H     H_    0.137859 0.289754 0.792560 0.234214
C26   C     C_3   0.852858 0.825754 0.209245 -0.725954
H10   H     H_    0.952156 0.851310 0.204540 0.271005
H11   H     H_    0.869996 0.720316 0.227618 0.228868
H12   H     H_    0.793181 0.847443 0.116843 0.266948
Cl1   Cl    Cl    0.978858 0.040941 0.357663 -0.655808
Cl2   Cl    Cl    0.036373 0.961417 0.681698 -0.649116
Cl3   Cl    Cl    0.572073 0.775624 0.222520 -0.668713
Cl4   Cl    Cl    0.433484 0.244275 0.793006 -0.648611
C27   C     C_3   0.726720 0.416843 0.924026 -0.863751
H13   H     H_    0.784355 0.362945 0.853046 0.249122
H14   H     H_    0.786807 0.483923 0.972154 0.236677
H15   H     H_    0.711768 0.344136 0.991595 0.269969
C28   C     C_3   0.265403 0.533249 0.072261 -0.882587
H16   H     H_    0.197492 0.519044 0.141509 0.243809
H17   H     H_    0.227213 0.629370 0.027715 0.260933
H18   H     H_    0.261965 0.457050 0.000797 0.267438
C29   C     C_3   0.904813 0.530736 0.655185 -0.757769
H19   H     H_    0.990802 0.559028 0.713327 0.195061
H20   H     H_    0.820123 0.614142 0.650976 0.267320
H21   H     H_    0.885268 0.446820 0.704709 0.241894
C30   C     C_3   0.130008 0.361637 0.421969 -0.712007
H22   H     H_    0.052269 0.323115 0.361923 0.208941
H23   H     H_    0.197694 0.384480 0.357271 0.257564
H24   H     H_    0.177485 0.280396 0.485754 0.254421

loop_
_geom_bond_atom_site_label_1
_geom_bond_atom_site_label_2
_ccdc_geom_bond_type
C1    C3    S    
C19   C23   A    
C27   H13   S    
C29   H20   S    
C9    C24   S    
C7    C8    S    
N1    Zn2   S    
C17   Cl3   S    
C10   C23   S    
H5    N2    S    
C5    H4    S    
C11   C13   A    
C2    C4    S    
C6    H3    S    
O2    Zn2   S    
C13   C15   A    
C15   C26   S    
C10   O6    A    
C30   H24   S    
O1    Zn1   S    
C2    O2    A    
C9    O5    A    
C29   H21   S    
C1    O1    A    
C28   H16   S    
C26   H11   S    
C16   C18   A    
C13   Cl1   S    
C25   H8    S    
C16   C25   S    
O4    Zn1   S    
C5    C6    S    
C10   O8    A    
O8    Zn1   S    
C19   C21   A    
C12   H2    S    
C20   C22   A    
O6    Zn2   S    
C26   H12   S    
C18   C20   A    
C27   H14   S    
C25   H7    S    
O5    Zn1   S    
H6    N1    S    
C20   C24   A    
C25   H9    S    
C14   C16   A    
C28   H17   S    
C7    N1    D    
C18   Cl4   S    
N2    Zn1   S    
C7    C30   S    
C30   H22   S    
C8    N2    D    
C11   H1    S    
C12   C22   A    
C9    O7    A    
C1    O3    A    
C4    C6    D    
C3    C5    D    
C21   C24   A    
C2    O4    A    
C4    C27   S    
C15   C17   A    
O3    Zn2   S    
C27   H15   S    
O7    Zn2   S    
C28   H18   S    
C8    C29   S    
C17   C19   A    
C22   C23   A    
C11   C21   A    
C14   Cl2   S    
C26   H10   S    
C12   C14   A    
C29   H19   S    
C30   H23   S    
C3    C28   S    
