data_mof_unit_22890.cif
_audit_creation_date              2012-12-11T15:31:32-0500
_audit_creation_method            fapswitch 2.2
_symmetry_space_group_name_H-M    P1
_symmetry_Int_Tables_number       1
_space_group_crystal_system       triclinic
_cell_length_a                    7.033697
_cell_length_b                    15.270893
_cell_length_c                    21.479767
_cell_angle_alpha                 71.577112
_cell_angle_beta                  90.400203
_cell_angle_gamma                 90.654988
_cell_volume                      2188.76054417

loop_
_atom_site_label
_atom_site_type_symbol
_atom_type_description
_atom_site_fract_x
_atom_site_fract_y
_atom_site_fract_z
_atom_type_partial_charge
O1    O     O_R   0.648150 0.130050 0.214300 -0.555032
O2    O     O_R   0.351850 0.869950 0.785700 -0.554472
O3    O     O_R   0.320490 0.006660 0.340150 -0.531094
O4    O     O_R   0.679510 0.993340 0.659850 -0.528376
O5    O     O_R   0.146100 0.869940 0.285700 -0.541848
O6    O     O_R   0.853900 0.130060 0.714300 -0.544685
C1    C     C_R   0.488305 0.999925 0.367168 0.813524
C2    C     C_R   0.510255 0.996379 0.633610 0.807358
O7    O     O_R   0.318690 0.137980 0.218120 -0.531528
O8    O     O_R   0.681310 0.862020 0.781880 -0.530126
O9    O     O_R   0.144280 0.002190 0.162800 -0.531512
O10   O     O_R   0.855720 0.997810 0.837200 -0.531325
C3    C     C_R   0.487363 0.174576 0.207515 0.698632
C4    C     C_R   0.512472 0.825440 0.792251 0.698846
O11   O     O_R   0.649960 0.997790 0.337200 -0.518295
O12   O     O_R   0.350040 0.002210 0.662800 -0.519456
O13   O     O_3   0.479300 0.955290 0.231990 -0.378690
O14   O     O_3   0.520700 0.044710 0.768010 -0.378558
V1    V     V_3+5 0.206040 0.008290 0.253340 1.531518
V2    V     V_3+5 0.793960 0.991710 0.746660 1.527670
O15   O     O_R   0.814320 0.993320 0.159850 -0.546429
O16   O     O_R   0.185680 0.006680 0.840150 -0.547179
C5    C     C_R   0.982660 0.998474 0.132980 0.736342
C6    C     C_R   0.017340 0.001543 0.867014 0.732966
O17   O     O_R   0.816120 0.862000 0.281880 -0.537361
O18   O     O_R   0.183880 0.138000 0.718120 -0.535058
C7    C     C_R   0.984951 0.824492 0.291872 0.680861
C8    C     C_R   0.016391 0.175638 0.709273 0.681532
V3    V     V_3+5 0.705540 0.991700 0.246660 1.513424
V4    V     V_3+5 0.294460 0.008300 0.753340 1.516188
O19   O     O_3   0.982150 0.044700 0.268010 -0.363881
O20   O     O_3   0.017850 0.955300 0.731990 -0.363041
C9    C     C_R   0.989423 0.722782 0.320278 -0.073452
C10   C     C_R   0.021945 0.278183 0.686588 -0.063323
C11   C     C_R   0.867921 0.573281 0.322525 -0.104395
C12   C     C_R   0.182939 0.417697 0.692171 -0.107248
C13   C     C_R   0.880196 0.668271 0.291977 -0.095924
C14   C     C_R   0.131807 0.324776 0.721296 -0.092687
C15   C     C_R   0.084162 0.680628 0.380011 -0.172081
C16   C     C_R   0.963107 0.327297 0.623013 -0.121264
C17   C     C_R   0.039005 0.588831 0.418586 0.091237
C18   C     C_R   0.043642 0.414878 0.588978 0.107712
C19   C     C_R   0.943641 0.533576 0.385743 0.080172
C20   C     C_R   0.142298 0.462526 0.625552 0.037271
C21   C     C_R   0.079587 0.549270 0.487977 -0.104661
C22   C     C_R   0.030881 0.454900 0.519417 -0.051289
C23   C     C_R   0.989245 0.398935 0.480551 0.440302
C24   C     C_R   0.158431 0.598787 0.528557 0.441147
C25   C     C_R   0.933272 0.438452 0.415124 -0.275444
C26   C     C_R   0.199183 0.553748 0.595007 -0.246163
H1    H     H_    0.890651 0.394979 0.386156 0.115491
H2    H     H_    0.268218 0.591904 0.623664 0.139397
H3    H     H_    0.862233 0.294975 0.599286 0.141738
H4    H     H_    0.187383 0.721696 0.395552 0.200448
H5    H     H_    0.180980 0.288594 0.770545 0.144895
H6    H     H_    0.808315 0.699022 0.245526 0.144812
H7    H     H_    0.791839 0.531298 0.298043 0.132594
H8    H     H_    0.263193 0.452829 0.720600 0.138047
C27   C     C_3   0.919058 0.923700 0.994553 0.323320
C28   C     C_3   0.080943 0.076338 0.005428 0.322076
C29   C     C_3   0.092282 0.925794 0.038865 -0.186407
C30   C     C_3   0.907720 0.074244 0.961116 -0.188258
H9    H     H_    0.167417 0.864220 0.070782 0.185986
H10   H     H_    0.832600 0.135817 0.929192 0.186332
C31   C     C_3   0.991089 0.998994 0.062277 -0.113657
C32   C     C_3   0.008913 0.001043 0.937707 -0.113991
C33   C     C_3   0.816844 0.996136 0.018593 -0.177581
C34   C     C_3   0.183155 0.003903 0.981388 -0.178469
H11   H     H_    0.665589 0.992292 0.033754 0.157009
H12   H     H_    0.334407 0.007754 0.966223 0.157328
C35   C     C_3   0.615829 0.059950 0.466011 0.396126
C36   C     C_3   0.376491 0.931573 0.535788 0.432468
C37   C     C_3   0.448865 0.078394 0.505220 0.111554
C38   C     C_3   0.542633 0.913017 0.496243 0.100750
C39   C     C_3   0.501830 0.993289 0.563733 -0.311801
C40   C     C_3   0.491544 0.998595 0.438008 -0.303152
C41   C     C_3   0.672559 0.973735 0.524859 0.161260
C42   C     C_3   0.320992 0.016767 0.477180 0.198000
C43   C     C_R   0.487668 0.274991 0.181598 -0.043862
C44   C     C_R   0.510566 0.725048 0.818079 -0.040743
C45   C     C_R   0.357109 0.417864 0.186835 -0.112556
C46   C     C_R   0.629539 0.580521 0.812015 -0.119990
C47   C     C_R   0.393726 0.324851 0.216234 -0.200592
C48   C     C_R   0.600441 0.674375 0.783184 -0.204920
C49   C     C_R   0.540184 0.317795 0.116650 -0.138822
C50   C     C_R   0.455481 0.682405 0.882753 -0.138380
C51   C     C_R   0.488603 0.410225 0.083344 0.070533
C52   C     C_R   0.497244 0.588529 0.915346 0.068797
C53   C     C_R   0.400255 0.461279 0.120282 0.069062
C54   C     C_R   0.582145 0.536808 0.878199 0.070833
C55   C     C_R   0.516559 0.452109 0.014417 0.006113
C56   C     C_R   0.464418 0.545935 0.983942 0.006140
C57   C     C_R   0.383531 0.594657 0.023152 -0.136433
C58   C     C_R   0.590563 0.402326 0.974776 -0.134538
C59   C     C_R   0.351202 0.553659 0.089686 0.258005
C60   C     C_R   0.623208 0.443291 0.908241 0.256071
H13   H     H_    0.392611 0.726758 0.906935 0.121640
H14   H     H_    0.610383 0.274756 0.092942 0.121132
H15   H     H_    0.650229 0.707907 0.733643 0.125053
H16   H     H_    0.345797 0.291133 0.265986 0.124952
H17   H     H_    0.286557 0.453794 0.216030 0.172060
H18   H     H_    0.697346 0.543935 0.782704 0.170609
H19   H     H_    0.340583 0.665418 0.003878 0.171455
H20   H     H_    0.624649 0.330301 0.993578 0.174590
O21   O     O_3   0.736604 0.129392 0.427037 -0.532239
C61   C     C_3   0.639952 0.198725 0.377785 0.118800
H21   H     H_    0.590962 0.253151 0.397677 0.159370
H22   H     H_    0.514816 0.172818 0.356970 0.101703
C62   C     C_3   0.779176 0.243378 0.322459 -0.695544
H23   H     H_    0.819718 0.193063 0.297507 0.256857
H24   H     H_    0.714852 0.304705 0.286561 0.175029
H25   H     H_    0.910505 0.266625 0.341519 0.218066
O22   O     O_3   0.252903 0.861550 0.572649 -0.509349
C63   C     C_3   0.347912 0.794026 0.623632 0.184330
H26   H     H_    0.469274 0.821722 0.645133 0.074190
H27   H     H_    0.402551 0.739557 0.604853 0.180776
C64   C     C_3   0.206965 0.749525 0.678410 -0.692760
H28   H     H_    0.080069 0.722788 0.659233 0.223188
H29   H     H_    0.273251 0.690415 0.715880 0.167875
H30   H     H_    0.160505 0.800837 0.701791 0.254303
Br1   Br    Br    0.883998 0.916441 0.578296 -0.542919
Br2   Br    Br    0.095289 0.061618 0.430239 -0.523696
Br3   Br    Br    0.235854 0.629066 0.135777 -0.560071
Br4   Br    Br    0.728196 0.366328 0.861399 -0.571826
O23   O     O_3   0.051215 0.309175 0.503978 -0.539638
C65   C     C_3   0.920338 0.246298 0.492813 0.106784
H31   H     H_    0.972306 0.229465 0.449724 0.232419
H32   H     H_    0.772862 0.273200 0.483913 0.133148
C66   C     C_3   0.919173 0.159683 0.552475 -0.503158
H33   H     H_    0.785582 0.154554 0.580468 0.177600
H34   H     H_    0.931894 0.099077 0.536356 0.265695
H35   H     H_    0.041068 0.158304 0.585695 0.236845
O24   O     O_3   0.193586 0.692072 0.505321 -0.548079
C67   C     C_3   0.021708 0.738662 0.505285 0.098239
H36   H     H_    0.000126 0.746843 0.553992 0.203091
H37   H     H_    0.895860 0.700721 0.494697 0.148057
C68   C     C_3   0.029994 0.833122 0.452955 -0.455900
H38   H     H_    0.177821 0.858947 0.443035 0.245347
H39   H     H_    0.963364 0.830071 0.407389 0.156204
H40   H     H_    0.944731 0.883247 0.467005 0.259972
Br5   Br    Br    0.800108 0.812090 0.987549 -0.547708
Br6   Br    Br    0.199907 0.187961 0.012393 -0.554899
Br7   Br    Br    0.398869 0.195878 0.517407 -0.578839
Br8   Br    Br    0.571916 0.795959 0.480977 -0.614611

loop_
_geom_bond_atom_site_label_1
_geom_bond_atom_site_label_2
_ccdc_geom_bond_type
C32   C34   S    
C3    C43   S    
C65   H31   S    
C51   C55   A    
C37   C39   S    
O21   C61   S    
C35   C41   S    
O4    C2    A    
V1    O19   S    
C57   H19   S    
C67   C68   S    
C63   H26   S    
C23   C25   A    
C45   H17   S    
C21   C22   A    
C7    C9    S    
C68   H39   S    
O9    V1    S    
C9    C15   A    
C38   C40   S    
C30   C33   S    
C10   C16   A    
C11   C13   A    
C40   C42   S    
O22   C63   S    
O3    C1    A    
C64   H29   S    
C27   C32   S    
V2    O20   S    
C35   C40   S    
C50   C52   A    
C15   H4    S    
C61   H21   S    
C20   C26   A    
O13   V3    S    
C28   C30   S    
C18   C22   A    
C29   H9    S    
C50   H13   S    
O7    C3    A    
C57   C59   A    
C30   H10   S    
C49   H14   S    
C62   H24   S    
C27   C33   S    
O5    C7    A    
C13   H6    S    
O7    V1    S    
O6    C8    A    
C14   H5    S    
C52   C56   A    
O8    V2    S    
C25   H1    S    
C38   C41   S    
C26   H2    S    
C37   C42   S    
O3    V1    S    
O14   V4    S    
C4    C44   S    
V4    O20   S    
C11   C19   A    
C44   C48   A    
C66   H35   S    
C28   Br6   S    
C16   C18   A    
C58   H20   S    
C2    O12   A    
C17   C19   A    
C18   C20   A    
C36   C39   S    
C42   Br2   S    
C45   C47   A    
O11   V3    S    
C23   O23   S    
C49   C51   A    
O17   V3    S    
C68   H40   S    
C27   C29   S    
C60   Br4   S    
C24   O24   S    
C41   Br1   S    
C36   C38   S    
O8    C4    A    
C64   H30   S    
C55   C56   A    
C35   C37   S    
C30   C32   S    
C19   C25   A    
C67   H37   S    
C1    O11   A    
C65   C66   S    
C31   C33   S    
O15   V3    S    
C36   O22   S    
C2    C39   S    
C9    C13   A    
C33   H11   S    
C53   C59   A    
O10   V2    S    
O1    V3    S    
C46   H18   S    
C58   C60   A    
C24   C26   A    
C39   C41   S    
C28   C34   S    
C67   H36   S    
C52   C54   A    
C28   C31   S    
O18   V4    S    
C46   C48   A    
C47   H16   S    
C35   O21   S    
O23   C65   S    
O16   C6    A    
C62   H25   S    
O1    C3    A    
C12   C14   A    
C43   C49   A    
C66   H33   S    
C37   Br7   S    
C21   C24   A    
C59   Br3   S    
C38   Br8   S    
C22   C23   A    
C65   H32   S    
O16   V4    S    
C10   C14   A    
C48   H15   S    
O18   C8    A    
C63   H27   S    
C54   C60   A    
C1    C40   S    
O5    V1    S    
C6    C32   S    
O17   C7    A    
C15   C17   A    
O6    V2    S    
C68   H38   S    
O10   C6    A    
C12   H8    S    
C46   C54   A    
O2    V4    S    
C11   H7    S    
C5    C31   S    
O15   C5    A    
C45   C53   A    
V3    O19   S    
C62   H23   S    
C55   C58   A    
C43   C47   A    
C29   C34   S    
O24   C67   S    
C61   H22   S    
O9    C5    A    
C56   C57   A    
O13   V1    S    
O14   V2    S    
O2    C4    A    
C63   C64   S    
C12   C20   A    
C8    C10   S    
O4    V2    S    
C29   C31   S    
C44   C50   A    
C27   Br5   S    
C34   H12   S    
C16   H3    S    
C36   C42   S    
C51   C53   A    
C17   C21   A    
C64   H28   S    
O12   V4    S    
C66   H34   S    
C61   C62   S    
