data_mof_unit_49240.cif
_audit_creation_date              2012-10-26T19:52:26-0400
_audit_creation_method            fapswitch 2.2
_symmetry_space_group_name_H-M    P1
_symmetry_Int_Tables_number       1
_space_group_crystal_system       triclinic
_cell_length_a                    9.530984
_cell_length_b                    10.842576
_cell_length_c                    13.454912
_cell_angle_alpha                 89.856902
_cell_angle_beta                  72.403394
_cell_angle_gamma                 89.482991
_cell_volume                      1325.32174901

loop_
_atom_site_label
_atom_site_type_symbol
_atom_type_description
_atom_site_fract_x
_atom_site_fract_y
_atom_site_fract_z
_atom_type_partial_charge
C1    C     C_R   0.498302 0.737488 0.502670 0.552085
C2    C     C_R   0.373439 0.492926 0.815155 -0.002569
C3    C     C_R   0.371231 0.937972 0.508713 0.011444
C4    C     C_R   0.421290 0.494706 0.700219 0.533117
C5    C     C_R   0.492359 0.869892 0.515491 -0.007167
C6    C     C_R   0.606616 0.931014 0.540004 -0.137724
C7    C     C_R   0.611254 0.060091 0.540747 -0.031117
C8    C     C_R   0.497127 0.128434 0.516322 0.016350
C9    C     C_R   0.373889 0.064669 0.508832 0.011401
C10   C     C_3   0.292862 0.073679 0.429697 -0.269812
C11   C     C_3   0.290011 0.933634 0.429756 -0.266631
C12   C     C_R   0.434762 0.488582 0.979434 0.034796
C13   C     C_R   0.948898 0.409703 0.448829 0.144766
C14   C     C_R   0.899630 0.581784 0.558719 -0.009611
C15   C     C_R   0.048657 0.581850 0.558671 -0.017273
C16   C     C_R   0.499706 0.262057 0.503646 0.546333
C17   C     C_R   0.096394 0.409527 0.448900 0.158759
C18   C     C_3   0.150408 0.381910 0.335019 -0.271779
C19   C     C_3   0.991435 0.382449 0.335149 -0.284167
C20   C     C_R   0.578754 0.498167 0.299990 0.547118
C21   C     C_R   0.784331 0.388853 0.030274 -0.136658
C22   C     C_R   0.623442 0.481660 0.186854 -0.003576
C23   C     C_R   0.470271 0.456921 0.872357 0.026279
C24   C     C_R   0.233161 0.539717 0.868316 -0.135082
C25   C     C_R   0.191835 0.557862 0.975322 -0.145665
C26   C     C_R   0.291822 0.535606 0.030267 -0.122506
C27   C     C_3   0.741634 0.118846 0.563049 -0.374937
C28   C     C_R   0.542799 0.469857 0.031638 0.030301
C29   C     C_R   0.677592 0.409230 0.979442 0.048984
C30   C     C_R   0.702933 0.366562 0.878081 -0.145714
C31   C     C_R   0.600231 0.388495 0.825864 -0.125292
C32   C     C_R   0.521436 0.509847 0.134221 -0.137041
C33   C     C_R   0.756596 0.423549 0.133953 -0.143087
Cu1   Cu    Cu3+1 0.359330 0.500020 0.500010 0.931734
Cu2   Cu    Cu3+1 0.640670 0.499980 0.499990 0.920921
H1    H     H_    0.836248 0.400066 0.173638 0.116746
H2    H     H_    0.965829 0.460217 0.289398 0.147809
H3    H     H_    0.802663 0.315646 0.838858 0.106456
H4    H     H_    0.952694 0.290513 0.318792 0.117499
H5    H     H_    0.887215 0.342361 0.990855 0.111402
H6    H     H_    0.425287 0.562237 0.175898 0.106707
H7    H     H_    0.156156 0.565452 0.826721 0.129292
H8    H     H_    0.252295 0.553384 0.112799 0.092987
H9    H     H_    0.082869 0.593207 0.015607 0.120862
H10   H     H_    0.622805 0.347731 0.749614 0.138359
H11   H     H_    0.696261 0.878322 0.553596 0.129189
H12   H     H_    0.181875 0.116257 0.462405 0.135633
H13   H     H_    0.703368 0.186781 0.627152 0.141421
H14   H     H_    0.811086 0.049924 0.588061 0.103032
H15   H     H_    0.812806 0.163836 0.491650 0.150270
H16   H     H_    0.361129 0.113365 0.354497 0.133623
H17   H     H_    0.177498 0.895572 0.462693 0.134723
H18   H     H_    0.356474 0.891935 0.354636 0.138738
H19   H     H_    0.823426 0.649520 0.604624 0.116599
H20   H     H_    0.084444 0.649648 0.604455 0.112611
H21   H     H_    0.214079 0.458685 0.288591 0.148263
H22   H     H_    0.203950 0.289717 0.318348 0.120075
N1    N     N_R   0.852320 0.499070 0.499340 -0.231169
N2    N     N_R   0.148230 0.499110 0.499340 -0.230129
O1    O     O_R   0.381190 0.680360 0.500000 -0.500946
O2    O     O_R   0.618780 0.680320 0.499990 -0.509195
O3    O     O_R   0.323230 0.500000 0.650990 -0.504385
O4    O     O_R   0.560820 0.499960 0.650980 -0.510014
O5    O     O_R   0.381220 0.319680 0.500010 -0.495317
O6    O     O_R   0.618810 0.319640 0.500000 -0.510538
O7    O     O_R   0.439180 0.500040 0.349020 -0.507402
O8    O     O_R   0.676770 0.500000 0.349010 -0.500180

loop_
_geom_bond_atom_site_label_1
_geom_bond_atom_site_label_2
_ccdc_geom_bond_type
C27   H13   S    
C2    C4    S    
C32   H6    S    
C21   C29   A    
C6    C7    A    
C3    C9    A    
Cu2   O8    S    
C3    C11   S    
C24   H7    S    
C9    C10   S    
C20   O8    A    
C11   H17   S    
C11   H18   S    
C27   H15   S    
C13   C17   A    
Cu1   O7    S    
Cu1   O5    S    
C17   C18   S    
C7    C8    A    
C8    C16   S    
C13   N1    A    
Cu1   O1    S    
C18   H21   S    
C12   C23   A    
C6    H11   S    
C29   C30   A    
C21   H5    S    
C22   C32   A    
C12   C28   A    
Cu2   N1    S    
C1    C5    S    
C10   H16   S    
C19   H4    S    
C25   H9    S    
C4    O4    A    
C28   C29   A    
C14   H19   S    
C12   C26   A    
C17   N2    A    
C26   H8    S    
Cu1   Cu2   S    
C2    C23   A    
C2    C24   A    
C30   C31   A    
C14   N1    A    
C18   H22   S    
C19   H2    S    
C21   C33   A    
C10   C11   S    
Cu2   O6    S    
C1    O2    A    
Cu1   O3    S    
C4    O3    A    
C28   C32   A    
C33   H1    S    
C7    C27   S    
C24   C25   A    
C30   H3    S    
Cu2   O2    S    
C18   C19   S    
C31   H10   S    
C1    O1    A    
C20   O7    A    
C10   H12   S    
C5    C6    A    
C22   C33   A    
C13   C19   S    
C14   C15   A    
Cu2   O4    S    
C16   O6    A    
C16   O5    A    
C23   C31   A    
C25   C26   A    
Cu1   N2    S    
C15   N2    A    
C27   H14   S    
C20   C22   S    
C8    C9    A    
C3    C5    A    
C15   H20   S    
