data_mof_unit_63639.cif
_audit_creation_date              2012-12-10T20:49:08-0500
_audit_creation_method            fapswitch 2.2
_symmetry_space_group_name_H-M    P1
_symmetry_Int_Tables_number       1
_space_group_crystal_system       triclinic
_cell_length_a                    19.197596
_cell_length_b                    19.192532
_cell_length_c                    19.459344
_cell_angle_alpha                 89.863173
_cell_angle_beta                  94.587344
_cell_angle_gamma                 85.030967
_cell_volume                      7119.66303828

loop_
_atom_site_label
_atom_site_type_symbol
_atom_type_description
_atom_site_fract_x
_atom_site_fract_y
_atom_site_fract_z
_atom_type_partial_charge
C1    C     C_R   0.492395 0.689175 0.507164 0.790550
C2    C     C_2   0.483250 0.508599 0.016836 -0.210827
C3    C     C_2   0.529707 0.469797 0.981958 -0.118108
C4    C     C_R   0.507499 0.310755 0.492995 0.793634
C5    C     C_R   0.514427 0.485472 0.763302 -0.070714
C6    C     C_R   0.512364 0.233948 0.492775 0.000175
C7    C     C_R   0.462104 0.198478 0.523941 -0.221327
C8    C     C_R   0.467349 0.125783 0.526088 -0.166301
C9    C     C_R   0.523331 0.087024 0.497065 0.321638
C10   C     C_R   0.573945 0.122453 0.466820 -0.190767
C11   C     C_R   0.568256 0.195435 0.463975 -0.210552
C12   C     C_R   0.487364 0.510907 0.092658 0.191589
C13   C     C_R   0.542527 0.873421 0.533457 -0.162750
C14   C     C_R   0.545945 0.800518 0.535201 -0.220120
C15   C     C_R   0.480856 0.912378 0.506119 0.320179
C16   C     C_R   0.689777 0.491809 0.507194 0.790265
C17   C     C_R   0.488313 0.765792 0.508996 0.003388
C18   C     C_R   0.426641 0.804854 0.482871 -0.208449
C19   C     C_R   0.422804 0.877591 0.482369 -0.191393
C20   C     C_R   0.233249 0.513171 0.492678 0.000267
C21   C     C_R   0.200568 0.460244 0.524087 -0.224029
C22   C     C_R   0.128078 0.465379 0.526212 -0.166269
C23   C     C_R   0.427637 0.536078 0.125083 -0.172443
C24   C     C_R   0.086706 0.523923 0.496923 0.322119
C25   C     C_R   0.119429 0.577127 0.466425 -0.191563
C26   C     C_R   0.192153 0.571607 0.463606 -0.213681
C27   C     C_R   0.876314 0.540002 0.533157 -0.160223
C28   C     C_R   0.310088 0.508185 0.492967 0.791396
C29   C     C_R   0.803577 0.543162 0.534935 -0.216030
C30   C     C_R   0.912876 0.480684 0.506171 0.319834
C31   C     C_R   0.766566 0.487686 0.509092 0.003248
C32   C     C_R   0.803354 0.428278 0.483308 -0.207331
C33   C     C_R   0.876024 0.424587 0.482789 -0.189341
C34   C     C_R   0.429108 0.536991 0.196825 -0.190093
C35   C     C_R   0.508605 0.491343 0.688252 0.826162
C36   C     C_R   0.491891 0.508484 0.311647 0.797240
C37   C     C_R   0.490301 0.512145 0.236653 -0.000359
C38   C     C_R   0.550634 0.489241 0.204385 -0.204894
C39   C     C_R   0.549606 0.489501 0.133073 -0.125900
C40   C     C_R   0.464294 0.458152 0.868910 -0.231738
C41   C     C_R   0.458708 0.463339 0.797476 -0.189214
C42   C     C_R   0.576419 0.500954 0.801023 -0.277243
C43   C     C_R   0.583065 0.494716 0.872806 0.492383
C44   C     C_R   0.526048 0.473867 0.906807 0.041279
H1    H     H_    0.598923 0.471499 0.234397 0.162927
H2    H     H_    0.776201 0.589385 0.555225 0.166014
H3    H     H_    0.410546 0.451040 0.769032 0.168565
H4    H     H_    0.903884 0.583474 0.553122 0.153839
H5    H     H_    0.088362 0.622689 0.444271 0.145486
H6    H     H_    0.216254 0.613473 0.439712 0.164782
H7    H     H_    0.775945 0.384501 0.463770 0.163897
H8    H     H_    0.104575 0.423936 0.551418 0.153411
H9    H     H_    0.903719 0.378333 0.462900 0.145863
H10   H     H_    0.231040 0.414791 0.547210 0.167158
H11   H     H_    0.619773 0.517151 0.774319 0.204511
H12   H     H_    0.593941 0.771344 0.555767 0.165785
H13   H     H_    0.573002 0.437367 0.007701 0.179681
H14   H     H_    0.379512 0.553924 0.094870 0.133646
H15   H     H_    0.420475 0.441709 0.894807 0.163145
H16   H     H_    0.382118 0.555275 0.221058 0.157445
H17   H     H_    0.440360 0.539793 0.988351 0.157157
H18   H     H_    0.597962 0.473350 0.110515 0.153823
H19   H     H_    0.687453 0.574495 0.010467 0.384678
H20   H     H_    0.587669 0.899230 0.553710 0.153587
H21   H     H_    0.617568 0.093344 0.444882 0.145964
H22   H     H_    0.608093 0.221662 0.440277 0.165903
H23   H     H_    0.381234 0.779155 0.463056 0.163363
H24   H     H_    0.428058 0.100021 0.551099 0.152884
H25   H     H_    0.374819 0.907058 0.462202 0.145173
H26   H     H_    0.418673 0.226906 0.546845 0.167563
N1    N     N_2   0.530851 0.012822 0.498609 -0.199236
N2    N     N_2   0.474342 0.986381 0.503516 -0.202467
N3    N     N_2   0.012640 0.531364 0.498428 -0.199493
N4    N     N_2   0.986642 0.474428 0.503620 -0.201452
O1    O     O_3   0.500000 0.500000 0.500000 -0.479437
O2    O     O_R   0.546320 0.532340 0.658770 -0.637394
O3    O     O_R   0.450550 0.549430 0.344370 -0.643066
O4    O     O_R   0.467400 0.453980 0.652500 -0.645887
O5    O     O_R   0.535730 0.464240 0.344360 -0.643451
O6    O     O_2   0.698712 0.449271 0.950900 -0.318521
O7    O     O_2   0.709149 0.546839 0.871842 -0.283534
O8    O     O_3   0.642787 0.572237 0.981659 -0.555396
O9    O     O_R   0.656240 0.454400 0.463600 -0.647747
O10   O     O_R   0.340160 0.549180 0.454800 -0.647419
O11   O     O_R   0.536860 0.652450 0.548350 -0.639911
O12   O     O_R   0.466740 0.343960 0.533260 -0.645102
O13   O     O_R   0.451210 0.659450 0.463610 -0.646027
O14   O     O_R   0.545190 0.344140 0.454780 -0.645102
O15   O     O_R   0.656710 0.532590 0.548340 -0.639425
O16   O     O_R   0.346890 0.463830 0.533270 -0.647000
S1    S     S_3+6 0.661844 0.515203 0.918960 0.011209
Zn1   Zn    Zn3+2 0.558280 0.441710 0.441700 0.971536
Zn2   Zn    Zn3+2 0.558950 0.553420 0.562770 0.983910
Zn3   Zn    Zn3+2 0.446190 0.441460 0.553820 0.969849
Zn4   Zn    Zn3+2 0.436580 0.563410 0.441710 0.970627

loop_
_geom_bond_atom_site_label_1
_geom_bond_atom_site_label_2
_ccdc_geom_bond_type
C27   H4    S    
C1    O13   A    
C23   H14   S    
C14   H12   S    
C5    C42   A    
C27   C29   A    
C34   C37   A    
N3    N4    D    
C2    C12   S    
C7    H26   S    
O1    Zn4   S    
C7    C8    A    
C16   C31   S    
C15   C19   A    
O9    Zn1   S    
C12   C23   A    
C36   C37   S    
O4    Zn3   S    
C36   O3    A    
C26   H6    S    
C21   H10   S    
C42   H11   S    
C24   N3    S    
C4    O12   A    
C18   C19   A    
C38   H1    S    
O12   Zn3   S    
O11   Zn2   S    
O14   Zn1   S    
C8    C9    A    
O13   Zn4   S    
C9    C10   A    
C2    H17   S    
C16   O15   A    
C40   H15   S    
C13   C14   A    
C27   C30   A    
C34   H16   S    
C14   C17   A    
O16   Zn3   S    
C33   H9    S    
C3    C44   S    
C35   O2    A    
H19   O8    S    
C24   C25   A    
C4    C6    S    
C6    C11   A    
C20   C28   S    
C25   C26   A    
O3    Zn4   S    
C16   O9    A    
C43   S1    S    
O8    S1    S    
O10   Zn4   S    
C43   C44   A    
C32   H7    S    
C37   C38   A    
C15   N2    S    
O2    Zn2   S    
C31   C32   A    
C23   C34   A    
C17   C18   A    
C41   H3    S    
O5    Zn1   S    
O1    Zn1   S    
C3    H13   S    
C40   C41   A    
C8    H24   S    
C13   C15   A    
C22   C24   A    
C19   H25   S    
C1    O11   A    
C42   C43   A    
O1    Zn2   S    
C22   H8    S    
C10   H21   S    
C39   H18   S    
C5    C41   A    
C30   C33   A    
C9    N1    S    
C36   O5    A    
C11   H22   S    
C6    C7    A    
C4    O14   A    
C35   O4    A    
C1    C17   S    
C29   H2    S    
C32   C33   A    
C12   C39   A    
C2    C3    D    
C18   H23   S    
C28   O10   A    
N1    N2    D    
C29   C31   A    
C38   C39   A    
C13   H20   S    
C20   C26   A    
O6    S1    D    
C30   N4    S    
C5    C35   S    
O15   Zn2   S    
C25   H5    S    
C10   C11   A    
O7    S1    D    
C40   C44   A    
C20   C21   A    
C28   O16   A    
C21   C22   A    
O1    Zn3   S    
