data_mof_unit_49031.cif
_audit_creation_date              2013-03-05T16:45:22-0500
_audit_creation_method            fapswitch 2.2
_symmetry_space_group_name_H-M    P1
_symmetry_Int_Tables_number       1
_space_group_crystal_system       triclinic
_cell_length_a                    8.905922
_cell_length_b                    10.675904
_cell_length_c                    9.887297
_cell_angle_alpha                 89.899301
_cell_angle_beta                  89.920274
_cell_angle_gamma                 90.14668
_cell_volume                      940.066572181

loop_
_atom_site_label
_atom_site_type_symbol
_atom_site_description
_atom_site_fract_x
_atom_site_fract_y
_atom_site_fract_z
_atom_type_partial_charge
O1    O     O_R   0.500020 0.316790 0.614690 -0.602938
O2    O     O_R   0.500000 0.316760 0.385350 -0.617553
C1    C     C_R   0.504816 0.260008 0.500098 0.885874
O3    O     O_R   0.285350 0.500020 0.614650 -0.604893
O4    O     O_R   0.285340 0.499980 0.385310 -0.623331
C2    C     C_R   0.218785 0.500222 0.500001 0.940548
Zn1   Zn    Zn3+2 0.500010 0.500020 0.653130 0.975218
Zn2   Zn    Zn3+2 0.499990 0.499980 0.346870 0.950155
O5    O     O_R   0.500000 0.683240 0.614650 -0.626540
O6    O     O_R   0.499980 0.683210 0.385310 -0.625659
O7    O     O_R   0.714660 0.500020 0.614690 -0.596793
O8    O     O_R   0.714650 0.499980 0.385350 -0.628064
C3    C     C_R   0.504904 0.739984 0.499912 0.862503
C4    C     C_R   0.781239 0.500262 0.499932 0.928291
C5    C     C_1   0.065440 0.500586 0.499849 -0.155858
C6    C     C_1   0.934601 0.500575 0.499745 -0.153769
C7    C     C_R   0.526051 0.063665 0.622875 0.114066
C8    C     C_R   0.529168 0.128643 0.500795 -0.102638
C9    C     C_R   0.561004 0.065119 0.380047 -0.201100
C10   C     C_R   0.561023 0.935523 0.379958 -0.217999
C11   C     C_R   0.529243 0.871409 0.500620 -0.096189
C12   C     C_R   0.526215 0.935873 0.622842 0.125164
C13   C     C_3   0.416112 0.928197 0.736882 -0.482859
C14   C     C_3   0.415500 0.070128 0.736459 -0.385807
H1    H     H_    0.306206 0.110659 0.704555 0.239921
H2    H     H_    0.465195 0.111678 0.829264 0.223453
C15   C     C_R   0.394035 0.433864 0.071679 0.190425
N1    N     N_R   0.499010 0.499140 0.142800 -0.106434
C16   C     C_R   0.611616 0.556806 0.071588 -0.118828
H3    H     H_    0.699956 0.605277 0.125409 0.149255
C17   C     C_R   0.611431 0.557086 0.927829 -0.104106
N2    N     N_R   0.499010 0.499180 0.857150 -0.133744
C18   C     C_R   0.394732 0.432506 0.929063 0.151672
C19   C     C_3   0.228184 0.451192 0.925267 0.099449
C20   C     C_3   0.228698 0.453833 0.079013 -0.553592
H4    H     H_    0.575327 0.114398 0.285004 0.180909
N3    N     N_R   0.148685 0.342125 0.871162 0.237187
O9    O     O_R   0.178236 0.229706 0.914733 -0.422643
O10   O     O_R   0.040089 0.358045 0.785112 -0.393817
H5    H     H_    0.199277 0.547234 0.120860 0.191080
H6    H     H_    0.169782 0.373894 0.128224 0.240742
H7    H     H_    0.575350 0.886659 0.284885 0.173201
H8    H     H_    0.306866 0.886268 0.706289 0.207945
H9    H     H_    0.466801 0.887464 0.829720 0.209439
H10   H     H_    0.699537 0.605857 0.873610 0.157639
H11   H     H_    0.193660 0.541232 0.877788 0.121017

loop_
_geom_bond_atom_site_label_1
_geom_bond_atom_site_label_2
_geom_bond_distance
_ccdc_geom_bond_type
O4    Zn2   1.948552 S    
C10   H7    1.083412 S    
C13   C14   1.515267 S    
C16   H3    1.081655 S    
C19   H11   1.113216 S    
C7    C12   1.364293 A    
C19   N3    1.463649 S    
C9    C10   1.383547 A    
Zn2   O8    1.949755 S    
N2    C18   1.366634 A    
C10   C11   1.402546 A    
C7    C8    1.391341 A    
C3    C11   1.419213 S    
C16   C17   1.421386 A    
C11   C12   1.391985 A    
C15   C18   1.410199 A    
Zn1   O7    1.948553 S    
N3    O9    1.302071 A    
O3    Zn1   1.949755 S    
C20   H6    1.111719 S    
O3    C2    1.279953 A    
N1    C16   1.368882 A    
O8    C4    1.279474 A    
C18   C19   1.497638 S    
O2    C1    1.286069 A    
C9    H4    1.083377 S    
O4    C2    1.278834 A    
Zn2   N1    2.017767 S    
O7    C4    1.279503 A    
C4    C6    1.365820 S    
C7    C14   1.494281 S    
C20   H5    1.112040 S    
C5    C6    1.165244 T    
N3    O10   1.300284 A    
C13   H8    1.112449 S    
C14   H1    1.112069 S    
C1    C8    1.419663 S    
Zn2   O6    1.993382 S    
C19   C20   1.520455 S    
C17   H10   1.081634 S    
C15   N1    1.361754 A    
Zn1   O5    1.992040 S    
O5    C3    1.285756 A    
C12   C13   1.495253 S    
C8    C9    1.403046 A    
Zn1   N2    2.017218 S    
C15   C20   1.490053 S    
C2    C5    1.365700 S    
O1    Zn1   1.993382 S    
O2    Zn2   1.992042 S    
C13   H9    1.111857 S    
C17   N2    1.368670 A    
C14   H2    1.111823 S    
O1    C1    1.286629 A    
O6    C3    1.286717 A    
