data_mof_unit_13495.cif
_audit_creation_date              2012-12-11T14:19:22-0500
_audit_creation_method            fapswitch 2.2
_symmetry_space_group_name_H-M    P1
_symmetry_Int_Tables_number       1
_space_group_crystal_system       triclinic
_cell_length_a                    19.465326
_cell_length_b                    7.230486
_cell_length_c                    17.748989
_cell_angle_alpha                 89.999796
_cell_angle_beta                  107.669313
_cell_angle_gamma                 89.999599
_cell_volume                      2380.21156921

loop_
_atom_site_label
_atom_site_type_symbol
_atom_type_description
_atom_site_fract_x
_atom_site_fract_y
_atom_site_fract_z
_atom_type_partial_charge
O1    O     O_R   0.414820 0.494320 0.416790 -0.545189
O2    O     O_R   0.585180 0.994320 0.583210 -0.545187
O3    O     O_R   0.560270 0.819500 0.430140 -0.535333
O4    O     O_R   0.439730 0.319500 0.569860 -0.535331
C1    C     C_R   0.581392 0.655433 0.415061 0.722301
C2    C     C_R   0.418608 0.155434 0.584939 0.722316
O5    O     O_R   0.413840 0.823740 0.407440 -0.523470
O6    O     O_R   0.586160 0.323740 0.592560 -0.523472
O7    O     O_R   0.437710 0.998590 0.560350 -0.546385
O8    O     O_R   0.562290 0.498590 0.439650 -0.546385
C3    C     C_R   0.388033 0.655871 0.384874 0.757065
C4    C     C_R   0.611966 0.155870 0.615126 0.757069
O9    O     O_3   0.508000 0.662290 0.550200 -0.375111
O10   O     O_3   0.492000 0.162290 0.449800 -0.375116
V1    V     V_3+5 0.498520 0.935380 0.490690 1.494702
V2    V     V_3+5 0.501480 0.435380 0.509310 1.494701
C5    C     C_2   0.781197 0.261233 0.792676 -0.233496
C6    C     C_2   0.218804 0.761232 0.207321 -0.233494
C7    C     C_2   0.811114 0.105753 0.831729 -0.134631
C8    C     C_2   0.188886 0.605749 0.168273 -0.134623
H1    H     H_    0.812056 0.388975 0.803579 0.135963
H2    H     H_    0.187946 0.888977 0.196412 0.135961
C9    C     C_2   0.706164 0.273693 0.737865 0.035542
C10   C     C_2   0.293837 0.773690 0.262132 0.035558
C11   C     C_2   0.681691 0.147507 0.678825 -0.233430
C12   C     C_2   0.318308 0.647511 0.321176 -0.233427
H3    H     H_    0.716820 0.033727 0.674662 0.108958
H4    H     H_    0.283179 0.533737 0.325342 0.108961
C13   C     C_R   0.320739 0.298158 0.629169 -0.134676
C14   C     C_R   0.679264 0.798152 0.370837 -0.134688
C15   C     C_R   0.366993 0.148350 0.631453 -0.127168
C16   C     C_R   0.633007 0.648349 0.368547 -0.127099
C17   C     C_R   0.361667 0.991202 0.675628 -0.147727
C18   C     C_R   0.638328 0.491210 0.324365 -0.147842
C19   C     C_R   0.311899 0.985019 0.718969 0.044344
C20   C     C_R   0.688095 0.485031 0.281023 0.044297
C21   C     C_R   0.264507 0.136387 0.715282 -0.073374
C22   C     C_R   0.735491 0.636391 0.284716 -0.073307
C23   C     C_R   0.267761 0.290921 0.668148 0.054058
C24   C     C_R   0.732241 0.790918 0.331855 0.054068
C25   C     C_R   0.308899 0.830401 0.766062 0.485330
C26   C     C_R   0.691091 0.330426 0.233921 0.485311
C27   C     C_R   0.259061 0.827296 0.808738 -0.300295
C28   C     C_R   0.740924 0.327322 0.191242 -0.300228
C29   C     C_R   0.213204 0.977896 0.806867 0.050364
C30   C     C_R   0.786789 0.477907 0.193123 0.050313
C31   C     C_R   0.214291 0.132849 0.758821 0.038766
C32   C     C_R   0.785708 0.632851 0.241177 0.038788
C33   C     C_R   0.165450 0.282422 0.754165 -0.033045
C34   C     C_R   0.834551 0.782419 0.245836 -0.033031
C35   C     C_R   0.164571 0.428238 0.698840 -0.137279
C36   C     C_R   0.835429 0.928236 0.301160 -0.137255
C37   C     C_R   0.216456 0.433075 0.657993 0.422921
C38   C     C_R   0.783544 0.933072 0.342009 0.422892
C39   C     C_R   0.166870 0.973873 0.853313 -0.201495
C40   C     C_R   0.833124 0.473883 0.146678 -0.201492
C41   C     C_R   0.121841 0.123511 0.855347 -0.113507
C42   C     C_R   0.878158 0.623511 0.144652 -0.113493
C43   C     C_R   0.120254 0.278888 0.805021 -0.054930
C44   C     C_R   0.879748 0.778881 0.194981 -0.054935
H5    H     H_    0.324606 0.418576 0.594367 0.163749
H6    H     H_    0.675400 0.918563 0.405643 0.163729
H7    H     H_    0.397489 0.875458 0.677401 0.174400
H8    H     H_    0.602504 0.375470 0.322589 0.174354
H9    H     H_    0.256179 0.705747 0.843427 0.131380
H10   H     H_    0.743785 0.205789 0.156534 0.131479
H11   H     H_    0.168189 0.855117 0.891048 0.123097
H12   H     H_    0.831801 0.355133 0.108939 0.123098
O11   O     O_R   0.937810 0.773680 0.060480 -0.533979
O12   O     O_R   0.062190 0.273680 0.939520 -0.533976
O13   O     O_R   0.086190 0.439740 0.092580 -0.554535
O14   O     O_R   0.913810 0.939740 0.907420 -0.554534
C45   C     C_R   0.114290 0.606972 0.112208 0.682215
C46   C     C_R   0.885710 0.106973 0.887792 0.682218
O15   O     O_R   0.939760 0.444210 0.069890 -0.545659
O16   O     O_R   0.060240 0.944210 0.930110 -0.545658
O17   O     O_R   0.914790 0.269640 0.916760 -0.524180
O18   O     O_R   0.085210 0.769640 0.083240 -0.524181
C47   C     C_R   0.921807 0.613470 0.088125 0.717393
C48   C     C_R   0.078194 0.113469 0.911874 0.717390
O19   O     O_3   0.992050 0.601530 0.949880 -0.368933
O20   O     O_3   0.007950 0.101530 0.050120 -0.368938
V3    V     V_3+5 0.001480 0.328340 0.009300 1.467824
V4    V     V_3+5 0.998520 0.828340 0.990700 1.467825
C49   C     C_2   0.073748 0.438592 0.808695 0.514798
H13   H     H_    0.097252 0.575044 0.822991 -0.014032
O21   O     O_2   0.008608 0.419257 0.793466 -0.504350
C50   C     C_2   0.926258 0.938578 0.191310 0.514796
H14   H     H_    0.902757 0.075034 0.177012 -0.014011
O22   O     O_2   0.991398 0.919233 0.206542 -0.504359
C51   C     C_2   0.107791 0.571962 0.675665 0.390512
H15   H     H_    0.122639 0.717026 0.678275 0.090058
O23   O     O_2   0.044515 0.528445 0.647808 -0.505329
C52   C     C_2   0.892199 0.071981 0.324324 0.390503
H16   H     H_    0.877341 0.217040 0.321699 0.090051
O24   O     O_2   0.955477 0.028491 0.352189 -0.505334
O25   O     O_3   0.217453 0.581000 0.608508 -0.560724
C53   C     C_3   0.175995 0.535000 0.530648 -0.248506
H17   H     H_    0.197912 0.411813 0.508194 0.126772
H18   H     H_    0.177847 0.652853 0.491302 0.176849
H19   H     H_    0.118515 0.511054 0.526402 0.179826
O26   O     O_3   0.782544 0.081002 0.391489 -0.560729
C54   C     C_3   0.824008 0.035020 0.469349 -0.248499
H20   H     H_    0.802095 0.911839 0.491811 0.126772
H21   H     H_    0.822158 0.152882 0.508691 0.176852
H22   H     H_    0.881488 0.011073 0.473591 0.179831
C55   C     C_2   0.768748 0.932022 0.828196 0.359246
H23   H     H_    0.795434 0.798685 0.833954 0.040243
O27   O     O_2   0.704796 0.936129 0.823213 -0.520327
C56   C     C_2   0.231250 0.432012 0.171812 0.359213
H24   H     H_    0.204563 0.298678 0.166057 0.040252
O28   O     O_2   0.295202 0.436108 0.176796 -0.520352
C57   C     C_2   0.661990 0.428440 0.753006 0.429397
H25   H     H_    0.688511 0.553026 0.781580 0.051720
O29   O     O_2   0.596818 0.414275 0.739109 -0.513293
C58   C     C_2   0.338012 0.928429 0.246987 0.429346
H26   H     H_    0.311492 0.053013 0.218408 0.051734
O30   O     O_2   0.403185 0.914261 0.260889 -0.513314
O31   O     O_3   0.351219 0.676673 0.765874 -0.550976
C59   C     C_3   0.406506 0.667583 0.838632 -0.239476
H27   H     H_    0.384466 0.637392 0.888248 0.136151
H28   H     H_    0.439033 0.797084 0.850455 0.139691
H29   H     H_    0.443319 0.552549 0.835695 0.189200
O32   O     O_3   0.648766 0.176700 0.234080 -0.550968
C60   C     C_3   0.593342 0.168068 0.161419 -0.239550
H30   H     H_    0.615239 0.138576 0.111632 0.136138
H31   H     H_    0.560769 0.297505 0.149916 0.139786
H32   H     H_    0.556612 0.052776 0.164279 0.189214

loop_
_geom_bond_atom_site_label_1
_geom_bond_atom_site_label_2
_ccdc_geom_bond_type
C22   C24   A    
C55   O27   D    
C20   C26   A    
O1    C3    A    
O2    C4    A    
O16   V4    S    
C2    O7    A    
O25   C53   S    
C44   C50   S    
C26   O32   S    
C31   C33   A    
C49   H13   S    
O5    C3    A    
C5    C9    S    
C6    C10   S    
C19   C21   A    
C10   C12   D    
C32   C34   A    
C17   C19   A    
C41   C43   A    
C51   O23   D    
O17   V3    S    
C42   C44   A    
C53   H17   S    
C58   H26   S    
C29   C31   A    
C56   H24   S    
C35   C51   S    
C28   H10   S    
O13   V3    S    
C59   H28   S    
C33   C35   A    
C46   O17   A    
C60   H32   S    
C34   C36   A    
C45   O18   A    
C15   C17   A    
C36   C52   S    
C21   C31   A    
C22   C32   A    
C59   H29   S    
O6    C4    A    
C1    C16   S    
O5    V1    S    
C2    C15   S    
O6    V2    S    
C25   C27   A    
C41   C48   S    
O26   C54   S    
C26   C28   A    
C36   C38   A    
C30   C32   A    
C49   O21   D    
C13   H5    S    
C17   H7    S    
O12   C48   A    
O14   C46   A    
C51   H15   S    
O13   C45   A    
C28   C30   A    
C3    C12   S    
C37   O25   S    
C40   H12   S    
C5    H1    S    
C35   C37   A    
C16   C18   A    
O4    V2    S    
C43   C49   S    
O12   V3    S    
C9    C57   S    
C27   H9    S    
C13   C23   A    
C18   H8    S    
C14   C24   A    
C54   H21   S    
O1    V2    S    
C25   O31   S    
C52   O24   D    
O2    V1    S    
C27   C29   A    
O14   V4    S    
C42   C47   S    
C58   O30   D    
C8    C56   S    
O4    C2    A    
C50   O22   D    
C10   C58   S    
C24   C38   A    
C14   H6    S    
C60   H30   S    
O11   C47   A    
C55   H23   S    
O19   V4    S    
O3    V1    S    
C59   H27   S    
C57   H25   S    
C6    H2    S    
C38   O26   S    
C7    C46   S    
O16   C48   A    
O3    C1    A    
C39   H11   S    
O31   C59   S    
C11   H3    S    
C53   H19   S    
C12   H4    S    
C33   C43   A    
C4    C11   S    
C34   C44   A    
C39   C41   A    
O7    V1    S    
C1    O8    A    
C21   C23   A    
O11   V4    S    
O8    V2    S    
C14   C16   A    
O15   V3    S    
C23   C37   A    
C20   C22   A    
C5    C7    D    
C18   C20   A    
C40   C42   A    
C8    C45   S    
C54   H22   S    
C6    C8    D    
C9    C11   D    
C52   H16   S    
C19   C25   A    
C53   H18   S    
C56   O28   D    
O18   V4    S    
C50   H14   S    
C29   C39   A    
C13   C15   A    
O20   V3    S    
O9    V2    S    
C30   C40   A    
C54   H20   S    
C60   H31   S    
O10   V1    S    
O15   C47   A    
O32   C60   S    
C57   O29   D    
C7    C55   S    
