data_mof_unit_7482.cif
_audit_creation_date              2012-12-11T17:22:18-0500
_audit_creation_method            fapswitch 2.2
_symmetry_space_group_name_H-M    P1
_symmetry_Int_Tables_number       1
_space_group_crystal_system       triclinic
_cell_length_a                    20.712315
_cell_length_b                    7.267689
_cell_length_c                    20.39592
_cell_angle_alpha                 90.000089
_cell_angle_beta                  101.834946
_cell_angle_gamma                 90.000668
_cell_volume                      3004.94629794

loop_
_atom_site_label
_atom_site_type_symbol
_atom_type_description
_atom_site_fract_x
_atom_site_fract_y
_atom_site_fract_z
_atom_type_partial_charge
O1    O     O_R   0.807340 0.614490 0.194100 -0.537358
O2    O     O_R   0.192660 0.385510 0.805900 -0.532019
O3    O     O_R   0.692660 0.114490 0.305900 -0.537347
O4    O     O_R   0.307340 0.885510 0.694100 -0.532026
O5    O     O_R   0.672910 0.282300 0.178070 -0.522956
O6    O     O_R   0.327090 0.717700 0.821930 -0.543655
O7    O     O_R   0.827090 0.782300 0.321930 -0.522930
O8    O     O_R   0.172910 0.217700 0.678070 -0.543659
C1    C     C_R   0.650078 0.453700 0.160388 0.735550
C2    C     C_R   0.348635 0.546144 0.841033 0.734456
C3    C     C_R   0.849924 0.953701 0.339609 0.735517
C4    C     C_R   0.151364 0.046142 0.658967 0.734473
O9    O     O_R   0.805620 0.284620 0.186180 -0.533425
O10   O     O_R   0.194380 0.715380 0.813820 -0.542547
O11   O     O_R   0.694380 0.784620 0.313820 -0.533430
O12   O     O_R   0.305620 0.215380 0.686180 -0.542544
O13   O     O_R   0.826310 0.116750 0.314070 -0.542172
O14   O     O_R   0.173690 0.883250 0.685930 -0.525742
O15   O     O_R   0.673690 0.616750 0.185930 -0.542183
O16   O     O_R   0.326310 0.383250 0.814070 -0.525736
C5    C     C_R   0.825233 0.452795 0.172150 0.714461
C6    C     C_R   0.175072 0.547282 0.828126 0.718922
C7    C     C_R   0.674767 0.952795 0.327851 0.714409
C8    C     C_R   0.324927 0.047283 0.671874 0.718937
O17   O     O_3   0.756630 0.448770 0.291950 -0.376554
O18   O     O_3   0.243370 0.551230 0.708050 -0.381815
O19   O     O_3   0.743370 0.948770 0.208050 -0.376574
O20   O     O_3   0.256630 0.051230 0.791950 -0.381814
V1    V     V_3+5 0.748770 0.172970 0.242220 1.428474
V2    V     V_3+5 0.251230 0.827030 0.757780 1.368205
V3    V     V_3+5 0.751230 0.672970 0.257780 1.428483
V4    V     V_3+5 0.248770 0.327030 0.742220 1.368218
C9    C     C_R   0.466310 0.165988 0.504563 -0.236279
C10   C     C_R   0.531845 0.837209 0.493662 -0.228873
C11   C     C_R   0.033691 0.665983 0.995438 -0.236325
C12   C     C_R   0.968155 0.337203 0.006340 -0.228833
H1    H     H_    0.441724 0.292929 0.509570 0.145047
H2    H     H_    0.559256 0.712069 0.491402 0.119522
H3    H     H_    0.058279 0.792925 0.990431 0.145056
H4    H     H_    0.940745 0.212061 0.008600 0.119529
C13   C     C_R   0.454051 0.015674 0.542715 0.087606
C14   C     C_R   0.543420 0.988069 0.454595 0.084648
C15   C     C_R   0.045951 0.515668 0.957287 0.087644
C16   C     C_R   0.956581 0.488064 0.045406 0.084639
C17   C     C_R   0.484871 0.846730 0.534935 0.105096
C18   C     C_R   0.509115 0.153974 0.459245 0.096045
C19   C     C_R   0.015130 0.346724 0.965066 0.105089
C20   C     C_R   0.990886 0.653970 0.040756 0.096016
C21   C     C_1   0.408591 0.033833 0.588545 -0.056830
C22   C     C_1   0.589829 0.970079 0.409876 -0.050863
C23   C     C_1   0.091410 0.533828 0.911456 -0.056798
C24   C     C_1   0.910173 0.470075 0.090125 -0.050865
C25   C     C_1   0.628504 0.960643 0.372481 -0.190875
C26   C     C_1   0.370384 0.040494 0.626482 -0.194994
C27   C     C_1   0.871497 0.460641 0.127520 -0.190876
C28   C     C_1   0.129617 0.540490 0.873519 -0.195039
C29   C     C_R   0.911379 0.967987 0.391874 -0.187844
C30   C     C_R   0.090679 0.033228 0.605740 -0.194397
C31   C     C_R   0.588624 0.467977 0.108122 -0.187880
C32   C     C_R   0.409320 0.533237 0.894261 -0.194362
C33   C     C_R   0.974180 0.940237 0.579231 0.474491
C34   C     C_R   0.028252 0.050150 0.418413 0.480027
C35   C     C_R   0.525831 0.440344 0.920760 0.474520
C36   C     C_R   0.471740 0.550030 0.081590 0.480042
C37   C     C_R   0.033932 0.971614 0.625392 -0.344808
C38   C     C_R   0.968213 0.029062 0.372318 -0.343805
C39   C     C_R   0.466075 0.471712 0.874602 -0.344937
C40   C     C_R   0.531780 0.528938 0.127686 -0.343824
C41   C     C_R   0.089947 0.058358 0.536653 0.385930
C42   C     C_R   0.912235 0.940504 0.460565 0.397927
C43   C     C_R   0.410048 0.558295 0.963350 0.385953
C44   C     C_R   0.587777 0.440619 0.039426 0.397946
C45   C     C_R   0.030335 0.026882 0.488251 -0.130034
C46   C     C_R   0.971842 0.968774 0.509636 -0.141407
C47   C     C_R   0.469662 0.526835 0.011750 -0.130047
C48   C     C_R   0.528164 0.468832 0.990358 -0.141404
H5    H     H_    0.965251 0.063809 0.320138 0.133182
H6    H     H_    0.037741 0.942246 0.678008 0.138871
H7    H     H_    0.534737 0.563621 0.179870 0.133169
H8    H     H_    0.462260 0.442406 0.821981 0.138884
C49   C     C_3   0.518353 0.323044 0.418989 -0.359364
C50   C     C_3   0.455897 0.367450 0.366569 -0.303252
C51   C     C_3   0.461687 0.554322 0.334184 -0.776505
H9    H     H_    0.468881 0.664554 0.372609 0.243301
H10   H     H_    0.503792 0.554884 0.308094 0.224575
H11   H     H_    0.415507 0.584233 0.297438 0.207294
H12   H     H_    0.447992 0.259245 0.327211 0.195004
H13   H     H_    0.412027 0.370472 0.390073 0.191267
H14   H     H_    0.530235 0.438663 0.454445 0.168576
H15   H     H_    0.560532 0.309284 0.393445 0.181721
C52   C     C_3   0.466653 0.677200 0.569708 -0.359329
C53   C     C_3   0.394288 0.621416 0.541552 -0.314964
C54   C     C_3   0.368004 0.500106 0.591102 -0.729129
H16   H     H_    0.405780 0.398375 0.613874 0.232906
H17   H     H_    0.355737 0.585734 0.631945 0.240941
H18   H     H_    0.322817 0.427403 0.565202 0.205546
H19   H     H_    0.360763 0.741100 0.530246 0.206794
H20   H     H_    0.390491 0.550760 0.492786 0.178401
H21   H     H_    0.499572 0.560224 0.563911 0.160118
H22   H     H_    0.474276 0.706678 0.624272 0.178404
C55   C     C_3   0.981650 0.823041 0.081011 -0.359346
C56   C     C_3   0.044106 0.867448 0.133431 -0.303238
C57   C     C_3   0.038322 0.054330 0.165810 -0.776523
H23   H     H_    0.031134 0.164553 0.127382 0.243299
H24   H     H_    0.996215 0.054914 0.191898 0.224577
H25   H     H_    0.084502 0.084239 0.202556 0.207294
H26   H     H_    0.052006 0.759253 0.172792 0.195002
H27   H     H_    0.087977 0.870451 0.109928 0.191269
H28   H     H_    0.969769 0.938659 0.045554 0.168584
H29   H     H_    0.939470 0.809284 0.106555 0.181721
C58   C     C_3   0.033347 0.177194 0.930294 -0.359322
C59   C     C_3   0.105712 0.121410 0.958450 -0.314973
C60   C     C_3   0.131994 0.000089 0.908902 -0.729113
H30   H     H_    0.094212 0.898376 0.886124 0.232912
H31   H     H_    0.144271 0.085712 0.868063 0.240942
H32   H     H_    0.177174 0.927363 0.934805 0.205547
H33   H     H_    0.139238 0.241094 0.969754 0.206792
H34   H     H_    0.109508 0.050763 0.007218 0.178403
H35   H     H_    0.000427 0.060218 0.936090 0.160106
H36   H     H_    0.025726 0.206672 0.875730 0.178400
O21   O     O_3   0.854729 0.883800 0.479112 -0.547636
C61   C     C_3   0.818125 0.040635 0.490456 0.117809
H37   H     H_    0.800394 0.117018 0.442872 0.098740
H38   H     H_    0.848389 0.135118 0.527622 0.121278
C62   C     C_3   0.758313 0.978383 0.517840 -0.274964
H39   H     H_    0.727306 0.885986 0.480995 0.193690
H40   H     H_    0.774822 0.898335 0.564582 0.205965
C63   C     C_3   0.717293 0.142146 0.532426 -0.853212
H41   H     H_    0.747278 0.232707 0.570869 0.228670
H42   H     H_    0.674056 0.092115 0.551697 0.239447
H43   H     H_    0.699288 0.222899 0.486031 0.237310
O22   O     O_3   0.148701 0.075420 0.514318 -0.573791
C64   C     C_3   0.180765 0.247605 0.528638 0.112260
H44   H     H_    0.213421 0.264298 0.492090 0.139668
H45   H     H_    0.214660 0.243437 0.577939 0.126179
C65   C     C_3   0.135484 0.417751 0.522191 -0.345157
H46   H     H_    0.103038 0.421568 0.471578 0.224483
H47   H     H_    0.104149 0.413482 0.560324 0.189841
C66   C     C_3   0.176522 0.593280 0.533017 -0.803534
H48   H     H_    0.209315 0.593403 0.583238 0.257099
H49   H     H_    0.143183 0.713326 0.529470 0.250227
H50   H     H_    0.207339 0.605514 0.494666 0.220798
O23   O     O_3   0.645306 0.384166 0.020867 -0.547643
C67   C     C_3   0.681846 0.541169 0.009557 0.117697
H51   H     H_    0.699537 0.617514 0.057158 0.098902
H52   H     H_    0.651546 0.635614 0.972405 0.121267
C68   C     C_3   0.741692 0.479230 0.982169 -0.274912
H53   H     H_    0.772685 0.386651 0.018953 0.193761
H54   H     H_    0.725220 0.399466 0.935353 0.205829
C69   C     C_3   0.782717 0.643190 0.967754 -0.853108
H55   H     H_    0.752741 0.734007 0.929399 0.228739
H56   H     H_    0.825963 0.593393 0.948446 0.239404
H57   H     H_    0.800711 0.723608 0.014231 0.237283
O24   O     O_3   0.351293 0.575312 0.985687 -0.573786
C70   C     C_3   0.319217 0.747480 0.971368 0.112261
H58   H     H_    0.286555 0.764138 0.007911 0.139665
H59   H     H_    0.285329 0.743306 0.922064 0.126152
C71   C     C_3   0.364487 0.917656 0.977827 -0.345175
H60   H     H_    0.396920 0.921487 0.028446 0.224467
H61   H     H_    0.395835 0.913410 0.939704 0.189834
C72   C     C_3   0.323437 0.093160 0.966988 -0.803564
H62   H     H_    0.290651 0.093253 0.916763 0.257102
H63   H     H_    0.356767 0.213229 0.970534 0.250238
H64   H     H_    0.292611 0.105381 0.005331 0.220801
O25   O     O_3   0.919736 0.862409 0.599527 -0.546181
C73   C     C_3   0.910496 0.924924 0.662920 0.086082
H65   H     H_    0.857404 0.956721 0.658519 0.125277
H66   H     H_    0.936342 0.056549 0.679622 0.097554
C74   C     C_3   0.928599 0.771716 0.715267 -0.299180
H67   H     H_    0.891856 0.658732 0.703604 0.192617
H68   H     H_    0.977710 0.713080 0.713500 0.193926
C75   C     C_3   0.929787 0.842405 0.785969 -0.856274
H69   H     H_    0.967892 0.951105 0.799336 0.227122
H70   H     H_    0.941999 0.727674 0.822387 0.239066
H71   H     H_    0.880836 0.899279 0.789482 0.232542
O26   O     O_3   0.083052 0.116702 0.396350 -0.554698
C76   C     C_3   0.102289 0.997644 0.348618 0.099642
H72   H     H_    0.136657 0.075838 0.323805 0.134377
H73   H     H_    0.060646 0.954507 0.308188 0.106888
C77   C     C_3   0.138724 0.827837 0.381952 -0.295965
H74   H     H_    0.182712 0.872387 0.419426 0.226010
H75   H     H_    0.105432 0.748114 0.407592 0.199616
C78   C     C_3   0.161016 0.703129 0.330635 -0.858576
H76   H     H_    0.117695 0.653584 0.293314 0.235372
H77   H     H_    0.187438 0.582055 0.356490 0.238370
H78   H     H_    0.194910 0.778461 0.304363 0.229725
O27   O     O_3   0.580292 0.362584 0.900469 -0.546170
C79   C     C_3   0.589464 0.424815 0.837019 0.086273
H79   H     H_    0.642555 0.456499 0.841340 0.125188
H80   H     H_    0.563638 0.556449 0.820295 0.097548
C80   C     C_3   0.571275 0.271437 0.784750 -0.299268
H81   H     H_    0.608039 0.158501 0.796384 0.192573
H82   H     H_    0.522197 0.212779 0.786648 0.193970
C81   C     C_3   0.569927 0.341907 0.713989 -0.856275
H83   H     H_    0.531789 0.450529 0.700650 0.227124
H84   H     H_    0.557667 0.227053 0.677630 0.239096
H85   H     H_    0.618839 0.398814 0.710345 0.232540
O28   O     O_3   0.416936 0.616529 0.103658 -0.554689
C82   C     C_3   0.397706 0.497438 0.151385 0.099643
H86   H     H_    0.363331 0.575597 0.176198 0.134381
H87   H     H_    0.439350 0.454314 0.191815 0.106887
C83   C     C_3   0.361283 0.327622 0.118042 -0.295978
H88   H     H_    0.317293 0.372162 0.080570 0.226008
H89   H     H_    0.394582 0.247934 0.092400 0.199608
C84   C     C_3   0.338998 0.202875 0.169353 -0.858562
H90   H     H_    0.382321 0.153347 0.206675 0.235372
H91   H     H_    0.312586 0.081791 0.143493 0.238382
H92   H     H_    0.305095 0.278169 0.195626 0.229717

loop_
_geom_bond_atom_site_label_1
_geom_bond_atom_site_label_2
_ccdc_geom_bond_type
O17   V3    S    
C44   O23   S    
C71   H61   S    
C47   C48   A    
O18   V4    S    
O25   C73   S    
C64   H44   S    
C36   O28   S    
O19   V1    S    
O13   V1    S    
C45   C46   A    
O1    C5    A    
O3    C7    A    
C58   C59   S    
C10   C14   A    
C29   C38   A    
C44   C48   A    
O15   V3    S    
C63   H41   S    
C72   H62   S    
C53   H20   S    
C84   H90   S    
C75   H69   S    
O7    C3    A    
O5    C1    A    
C55   C56   S    
C83   H89   S    
C79   C80   S    
C36   C40   A    
C58   H35   S    
C68   H54   S    
C24   C27   T    
C65   C66   S    
C59   H33   S    
O4    C8    A    
C66   H50   S    
C19   C58   S    
C81   H85   S    
C70   H59   S    
C35   C48   A    
C20   C55   S    
C55   H28   S    
O23   C67   S    
O1    V3    S    
C12   C19   A    
O2    V4    S    
C23   C28   T    
C14   C18   A    
O3    V1    S    
C71   C72   S    
C1    O15   A    
C68   H53   S    
C32   C39   A    
C75   H70   S    
O22   C64   S    
C76   H73   S    
C83   C84   S    
O2    C6    A    
C62   C63   S    
C34   C45   A    
C56   H27   S    
O28   C82   S    
O14   V2    S    
C52   H22   S    
C11   C15   A    
C21   C26   T    
C77   C78   S    
C31   C44   A    
C60   H32   S    
C49   H14   S    
C16   C24   S    
C40   H7    S    
O11   C7    A    
C81   H83   S    
C82   H86   S    
O12   C8    A    
C70   C71   S    
C73   H66   S    
C9    C18   A    
C74   H68   S    
C73   H65   S    
O10   V2    S    
C67   C68   S    
C11   C20   A    
C13   C21   S    
C59   C60   S    
C72   H63   S    
C77   H75   S    
C53   H19   S    
C49   C50   S    
O5    V1    S    
C84   H91   S    
C35   C39   A    
C43   C47   A    
C22   C25   T    
O7    V3    S    
C83   H88   S    
C34   C38   A    
C80   H81   S    
O8    V4    S    
C74   H67   S    
C12   H4    S    
C68   C69   S    
C67   H52   S    
C78   H78   S    
C2    O16   A    
C52   C53   S    
C5    C27   S    
C65   H46   S    
C6    C28   S    
C32   C43   A    
C55   H29   S    
C43   O24   S    
C69   H57   S    
C9    H1    S    
C58   H36   S    
C1    C31   S    
C2    C32   S    
C78   H76   S    
C80   H82   S    
C42   C46   A    
C31   C40   A    
C82   C83   S    
C18   C49   S    
C30   C37   A    
C51   H9    S    
O8    C4    A    
C76   C77   S    
C34   O26   S    
C81   H84   S    
O24   C70   S    
O9    C5    A    
C56   H26   S    
C57   H24   S    
C10   C17   A    
C41   C45   A    
O21   C61   S    
C14   C22   S    
C64   C65   S    
C49   H15   S    
C65   H47   S    
O26   C76   S    
C51   H10   S    
C76   H72   S    
C54   H18   S    
C35   O27   S    
C62   H39   S    
C29   C42   A    
C74   C75   S    
C69   H56   S    
C12   C16   A    
C61   H38   S    
C63   H43   S    
C57   H23   S    
C72   H64   S    
C77   H74   S    
C62   H40   S    
C60   H30   S    
O16   V4    S    
C84   H92   S    
O9    V1    S    
C38   H5    S    
C3    O13   A    
C37   H6    S    
O6    V2    S    
C10   H2    S    
C39   H8    S    
C67   H51   S    
C63   H42   S    
O6    C2    A    
C66   H48   S    
C75   H71   S    
C30   C41   A    
O11   V3    S    
C33   C46   A    
O12   V4    S    
C54   H16   S    
C9    C13   A    
O10   C6    A    
C61   C62   S    
C78   H77   S    
C80   C81   S    
C4    C30   S    
O27   C79   S    
C59   H34   S    
C66   H49   S    
C42   O21   S    
C15   C23   S    
C71   H60   S    
C15   C19   A    
C41   O22   S    
C50   H13   S    
C11   H3    S    
C7    C25   S    
O20   V2    S    
C53   C54   S    
C36   C47   A    
C57   H25   S    
C33   O25   S    
C56   C57   S    
C17   C52   S    
C79   H80   S    
C33   C37   A    
C50   H12   S    
C51   H11   S    
C73   C74   S    
C54   H17   S    
C50   C51   S    
C4    O14   A    
C70   H58   S    
C82   H87   S    
C64   H45   S    
C13   C17   A    
C69   H55   S    
C79   H79   S    
C52   H21   S    
C61   H37   S    
C3    C29   S    
C8    C26   S    
O4    V2    S    
C16   C20   A    
C60   H31   S    
