data_mof_unit_62516.cif
_audit_creation_date              2012-10-26T17:27:26-0400
_audit_creation_method            fapswitch 2.2
_symmetry_space_group_name_H-M    P1
_symmetry_Int_Tables_number       1
_space_group_crystal_system       triclinic
_cell_length_a                    19.017551
_cell_length_b                    18.626965
_cell_length_c                    18.937482
_cell_angle_alpha                 109.204912
_cell_angle_beta                  110.10306
_cell_angle_gamma                 109.441378
_cell_volume                      5142.36828018

loop_
_atom_site_label
_atom_site_type_symbol
_atom_type_description
_atom_site_fract_x
_atom_site_fract_y
_atom_site_fract_z
_atom_type_partial_charge
C1    C     C_R   0.118155 0.999550 0.618936 0.548286
C2    C     C_R   0.251257 0.014486 0.828656 -0.150704
C3    C     C_R   0.315370 0.001719 0.815399 0.035224
C4    C     C_R   0.117123 0.119264 0.499393 0.561553
C5    C     C_R   0.317890 0.997118 0.741304 0.004998
C6    C     C_3   0.320682 0.929948 0.673876 -0.035145
C7    C     C_3   0.253276 0.933814 0.605575 -0.213287
C8    C     C_R   0.802155 0.728874 0.471726 0.053717
C9    C     C_R   0.812663 0.812786 0.496630 -0.004988
C10   C     C_R   0.751076 0.829127 0.512601 -0.112327
C11   C     C_R   0.683804 0.764090 0.509730 0.254558
C12   C     C_R   0.271021 0.201670 0.543919 -0.030644
C13   C     C_R   0.683124 0.684976 0.497638 0.038198
C14   C     C_R   0.738896 0.666471 0.472848 -0.075782
C15   C     C_3   0.794093 0.629670 0.502912 -0.222012
C16   C     C_R   0.881180 0.999890 0.381560 0.562058
C17   C     C_3   0.864657 0.698851 0.502435 0.170562
C18   C     C_R   0.740293 0.925540 0.247473 -0.007036
C19   C     C_R   0.815668 0.001803 0.316538 -0.010193
C20   C     C_R   0.823559 0.082524 0.324873 -0.139638
C21   C     C_R   0.758954 0.084435 0.261677 0.049960
C22   C     C_R   0.683975 0.004391 0.190495 0.013176
C23   C     C_R   0.186363 0.187148 0.503579 0.026087
C24   C     C_R   0.675971 0.926971 0.189359 -0.024195
C25   C     C_3   0.619022 0.829281 0.139631 0.006818
C26   C     C_3   0.693924 0.827867 0.205273 -0.004553
C27   C     C_R   0.498354 0.617178 0.618768 0.558507
C28   C     C_R   0.881951 0.880585 0.500244 0.585916
C29   C     C_R   0.381293 0.375975 0.495615 0.570117
C30   C     C_R   0.500756 0.381631 0.381245 0.571668
C31   C     C_R   0.618367 0.618937 0.499911 0.581652
C32   C     C_R   0.498822 0.119657 0.116499 0.529002
C33   C     C_R   0.381366 0.999458 0.880493 0.533223
C34   C     C_R   0.165583 0.229482 0.457725 0.236816
C35   C     C_R   0.500275 0.880875 0.881956 0.586217
C36   C     C_R   0.618356 0.001786 0.120705 0.559036
C37   C     C_R   0.461222 0.732040 0.666726 0.048725
C38   C     C_R   0.493598 0.679314 0.684955 -0.039666
C39   C     C_R   0.524461 0.689998 0.768769 -0.119763
C40   C     C_R   0.293951 0.164759 0.596316 -0.102294
C41   C     C_R   0.528979 0.757515 0.834764 0.251368
C42   C     C_R   0.500600 0.813468 0.816311 0.040250
C43   C     C_R   0.468630 0.800610 0.732365 -0.001537
C44   C     C_3   0.498468 0.861620 0.699990 -0.051442
C45   C     C_R   0.230255 0.289625 0.455262 -0.120733
C46   C     C_3   0.484019 0.784056 0.624934 -0.028545
C47   C     C_R   0.476034 0.307303 0.232551 0.002343
C48   C     C_R   0.505836 0.318620 0.315721 0.021119
C49   C     C_R   0.547604 0.272209 0.336078 -0.117281
C50   C     C_R   0.543622 0.205377 0.269987 -0.113960
C51   C     C_R   0.504052 0.189435 0.184530 0.008828
C52   C     C_R   0.374641 0.171109 0.627944 -0.147403
C53   C     C_R   0.481746 0.249820 0.170315 0.046475
C54   C     C_3   0.408354 0.241953 0.098437 0.134244
C55   C     C_3   0.398373 0.300590 0.168396 0.002178
C56   C     C_R   0.314392 0.302474 0.490992 -0.037144
C57   C     C_R   0.430575 0.207918 0.602366 -0.087439
C58   C     C_R   0.408416 0.243540 0.549433 0.127344
C59   C     C_R   0.333092 0.251383 0.528966 0.023912
C60   C     C_3   0.035621 0.153685 0.330645 -0.001132
C61   C     C_3   0.987124 0.186769 0.279149 -0.247090
C62   C     C_3   0.921306 0.114628 0.184772 -0.462203
C63   C     C_3   0.574354 0.795812 0.466181 0.015114
C64   C     C_3   0.586681 0.887680 0.510677 -0.262895
C65   C     C_3   0.530373 0.904474 0.445719 -0.447124
C66   C     C_3   0.657639 0.835886 0.963126 -0.003427
C67   C     C_R   0.254887 0.998383 0.678574 -0.046680
C68   C     C_3   0.711233 0.792028 0.983182 -0.270591
C69   C     C_3   0.806552 0.860116 0.049436 -0.474453
C70   C     C_3   0.418142 0.231183 0.976975 0.008689
C71   C     C_3   0.461673 0.284884 0.943113 -0.233081
C72   C     C_3   0.438663 0.226627 0.851084 -0.482329
C73   C     C_R   0.186473 0.002895 0.687115 0.032566
C74   C     C_R   0.187874 0.016678 0.765386 -0.119174
Cu1   Cu    Cu3+1 0.000020 0.938200 0.438210 1.009987
Cu2   Cu    Cu3+1 0.999980 0.061800 0.561790 1.003155
Cu3   Cu    Cu3+1 0.438170 0.500030 0.438220 1.050009
Cu4   Cu    Cu3+1 0.561770 0.500000 0.561810 0.993079
Cu5   Cu    Cu3+1 0.561810 0.061820 0.000030 1.013167
Cu6   Cu    Cu3+1 0.438190 0.938280 0.000080 1.067786
H1    H     H_    0.278901 0.964338 0.571885 0.126846
H2    H     H_    0.548982 0.649139 0.784351 0.149513
H3    H     H_    0.453958 0.885702 0.679304 0.167067
H4    H     H_    0.391123 0.141479 0.666895 0.115974
H5    H     H_    0.543387 0.791267 0.622494 0.187388
H6    H     H_    0.579526 0.284140 0.401573 0.173357
H7    H     H_    0.570325 0.165789 0.285274 0.150013
H8    H     H_    0.351625 0.173809 0.053024 0.106176
H9    H     H_    0.410743 0.364897 0.172382 0.181342
H10   H     H_    0.488290 0.202486 0.618273 0.140721
H11   H     H_    0.213855 0.326552 0.425163 0.166907
H12   H     H_    0.189727 0.871704 0.561863 0.205986
H13   H     H_    0.137728 0.024677 0.775693 0.156054
H14   H     H_    0.249927 0.022095 0.887333 0.126350
H15   H     H_    0.384138 0.957516 0.677778 0.122556
H16   H     H_    0.988262 0.091618 0.320892 0.152463
H17   H     H_    0.075994 0.138116 0.303806 0.131775
H18   H     H_    0.952830 0.210450 0.309449 0.211947
H19   H     H_    0.034514 0.243035 0.281094 0.181048
H20   H     H_    0.953941 0.089391 0.153003 0.158654
H21   H     H_    0.888989 0.141564 0.148960 0.184556
H22   H     H_    0.871080 0.059662 0.181523 0.146180
H23   H     H_    0.755567 0.892401 0.528019 0.145521
H24   H     H_    0.505392 0.746107 0.436008 0.190268
H25   H     H_    0.587382 0.787549 0.411663 0.157378
H26   H     H_    0.569393 0.894530 0.561957 0.206818
H27   H     H_    0.655639 0.938167 0.542048 0.176290
H28   H     H_    0.548014 0.900092 0.394883 0.183421
H29   H     H_    0.540499 0.971364 0.479981 0.167802
H30   H     H_    0.460817 0.855644 0.414503 0.184310
H31   H     H_    0.673653 0.888975 0.024833 0.142133
H32   H     H_    0.677337 0.869225 0.928116 0.147490
H33   H     H_    0.686172 0.750704 0.009354 0.177101
H34   H     H_    0.809340 0.639485 0.568682 0.165521
H35   H     H_    0.705300 0.748646 0.922210 0.168161
H36   H     H_    0.832926 0.904046 0.026095 0.164167
H37   H     H_    0.844163 0.826210 0.059363 0.165436
H38   H     H_    0.814077 0.900047 0.112687 0.139748
H39   H     H_    0.346733 0.195172 0.932757 0.139675
H40   H     H_    0.441477 0.184119 0.978954 0.155279
H41   H     H_    0.440674 0.333955 0.943373 0.191630
H42   H     H_    0.533133 0.320824 0.986682 0.189664
H43   H     H_    0.460990 0.178389 0.849487 0.169285
H44   H     H_    0.471128 0.268063 0.828759 0.158163
H45   H     H_    0.767963 0.561044 0.452936 0.161274
H46   H     H_    0.367567 0.191173 0.806147 0.153479
H47   H     H_    0.880077 0.143821 0.379728 0.170149
H48   H     H_    0.249626 0.130544 0.612848 0.121047
H49   H     H_    0.608191 0.799227 0.073268 0.155816
H50   H     H_    0.726650 0.800127 0.175496 0.118426
I1    I     I_    0.270087 0.803329 0.665082 -0.272663
I2    I     I_    0.464990 0.237505 0.471312 -0.367971
I3    I     I_    0.977118 0.793113 0.629095 -0.314310
I4    I     I_    0.896140 0.645185 0.406956 -0.235952
I5    I     I_    0.776122 0.209853 0.282731 -0.337041
I6    I     I_    0.499938 0.790391 0.141592 -0.254374
I7    I     I_    0.672340 0.782794 0.290442 -0.354531
I8    I     I_    0.632886 0.962342 0.781337 -0.397355
I9    I     I_    0.373502 0.736658 0.503417 -0.350287
I10   I     I_    0.281986 0.229280 0.166423 -0.356598
O1    O     O_R   0.090180 0.947810 0.537990 -0.501216
O2    O     O_R   0.447830 0.038100 0.090230 -0.508183
O3    O     O_R   0.462030 0.052220 0.909860 -0.536487
O4    O     O_R   0.090150 0.052180 0.642350 -0.521295
O5    O     O_R   0.357640 0.947890 0.909900 -0.490078
O6    O     O_R   0.552170 0.962000 0.909870 -0.496698
O7    O     O_R   0.447780 0.857670 0.909910 -0.470603
O8    O     O_R   0.642360 0.052210 0.090200 -0.494096
O9    O     O_R   0.537970 0.947880 0.090240 -0.478856
O10   O     O_R   0.090190 0.037990 0.447830 -0.525815
O11   O     O_R   0.090170 0.142360 0.552190 -0.491336
O12   O     O_R   0.552150 0.590170 0.642370 -0.520642
O13   O     O_R   0.909850 0.947820 0.357650 -0.515053
O14   O     O_R   0.909820 0.052190 0.462010 -0.497242
O15   O     O_R   0.909830 0.857640 0.447810 -0.464565
O16   O     O_R   0.909810 0.962010 0.552170 -0.513141
O17   O     O_R   0.447770 0.590190 0.538000 -0.474399
O18   O     O_3   0.082954 0.217088 0.420198 -0.560918
O19   O     O_3   0.625131 0.781330 0.528874 -0.569752
O20   O     O_3   0.568113 0.773138 0.918693 -0.572056
O21   O     O_3   0.439867 0.289152 0.060681 -0.560232
O22   O     O_R   0.357600 0.409850 0.447820 -0.504742
O23   O     O_R   0.461980 0.409830 0.552180 -0.489337
O24   O     O_R   0.447790 0.409860 0.357660 -0.493361
O25   O     O_R   0.552170 0.409840 0.462020 -0.503598
O26   O     O_R   0.537960 0.590200 0.447840 -0.489971
O27   O     O_R   0.642340 0.590180 0.552210 -0.520422
O28   O     O_R   0.552220 0.142430 0.090190 -0.492946

loop_
_geom_bond_atom_site_label_1
_geom_bond_atom_site_label_2
_ccdc_geom_bond_type
C66   C68   S    
C69   H36   S    
C37   C43   A    
C27   O12   A    
C73   C74   A    
C29   O23   A    
C71   H42   S    
C61   H18   S    
C18   C26   S    
C30   O24   A    
C5    C67   A    
C26   I7    S    
C25   H49   S    
C60   H16   S    
C66   O20   S    
Cu4   O12   S    
C39   C41   A    
C53   C54   S    
C33   O3    A    
C12   C23   A    
Cu4   O27   S    
C18   C24   A    
C30   C48   S    
C10   H23   S    
C60   O18   S    
C38   C39   A    
C36   O9    A    
C3    C33   S    
C27   C38   S    
C40   H48   S    
C69   H38   S    
C54   H8    S    
C18   C19   A    
C41   C42   A    
C69   H37   S    
C52   H4    S    
C35   C42   S    
Cu1   O1    S    
C12   C59   A    
C36   O8    A    
Cu6   O7    S    
Cu5   O3    S    
C19   C20   A    
C45   C56   A    
C58   I2    S    
C68   C69   S    
C28   O15   A    
C44   I8    S    
C70   C71   S    
C67   C73   A    
C63   O19   S    
Cu5   O28   S    
C63   H25   S    
C9    C10   A    
C65   H28   S    
C32   O2    A    
C26   H50   S    
C68   H33   S    
C47   C53   A    
C46   H5    S    
C44   H3    S    
Cu3   O24   S    
Cu4   O23   S    
C13   C14   A    
C72   H44   S    
C74   H13   S    
C61   H19   S    
C29   O22   A    
C44   C46   S    
Cu5   O6    S    
Cu6   O9    S    
C57   H10   S    
C11   O19   S    
C2    H14   S    
C24   C25   S    
C39   H2    S    
C20   H47   S    
C60   H17   S    
C52   C57   A    
C70   H40   S    
C4    C23   S    
C8    C9    A    
Cu2   O11   S    
C25   C26   S    
Cu3   Cu4   S    
Cu2   O16   S    
C55   I10   S    
Cu5   Cu6   S    
C72   H46   S    
C60   C61   S    
C51   C53   A    
C35   O6    A    
C12   C40   A    
Cu1   Cu2   S    
C32   C51   S    
C37   C38   A    
Cu1   O15   S    
C41   O20   S    
Cu1   O13   S    
C47   C48   A    
C31   O26   A    
C70   H39   S    
C23   C34   A    
C50   C51   A    
C15   H34   S    
C34   C45   A    
C35   O7    A    
C65   H29   S    
Cu5   O8    S    
C33   O5    A    
C50   H7    S    
C62   H20   S    
Cu2   O4    S    
Cu6   O5    S    
C7    H1    S    
C31   O27   A    
C49   C50   A    
Cu6   O2    S    
C32   O28   A    
C43   C44   S    
C16   O14   A    
C66   H31   S    
C22   C24   A    
C58   C59   A    
C42   C43   A    
C70   O21   S    
C34   O18   S    
C17   I4    S    
C4    O10   A    
C64   H27   S    
C47   C55   S    
Cu3   O22   S    
C15   C17   S    
C4    O11   A    
C54   C55   S    
C48   C49   A    
Cu4   O25   S    
C8    C14   A    
C49   H6    S    
C13   C31   S    
C6    I1    S    
C30   O25   A    
C63   H24   S    
C3    C5    A    
C2    C74   A    
C64   H26   S    
C6    C7    S    
C29   C56   S    
C27   O17   A    
C22   C36   S    
C8    C17   S    
C56   C59   A    
C1    C73   S    
C64   C65   S    
C62   H21   S    
C2    C3    A    
Cu3   O26   S    
C71   C72   S    
C72   H43   S    
C1    O4    A    
C40   C52   A    
C17   I3    S    
C11   C13   A    
C57   C58   A    
C5    C6    S    
C16   C19   S    
C7    H12   S    
Cu2   O14   S    
C54   O21   S    
C61   C62   S    
C45   H11   S    
C65   H30   S    
C1    O1    A    
C10   C11   A    
C68   H35   S    
C7    C67   S    
C63   C64   S    
C25   I6    S    
C71   H41   S    
C20   C21   A    
C55   H9    S    
C6    H15   S    
C15   H45   S    
C16   O13   A    
C28   O16   A    
C14   C15   S    
Cu1   O10   S    
C66   H32   S    
C37   C46   S    
C21   C22   A    
C21   I5    S    
C9    C28   S    
Cu3   O17   S    
C46   I9    S    
C62   H22   S    
