data_mof_unit_18850.cif
_audit_creation_date              2012-12-11T19:41:51-0500
_audit_creation_method            fapswitch 2.2
_symmetry_space_group_name_H-M    P1
_symmetry_Int_Tables_number       1
_space_group_crystal_system       triclinic
_cell_length_a                    8.217021
_cell_length_b                    15.057635
_cell_length_c                    26.964098
_cell_angle_alpha                 98.632676
_cell_angle_beta                  92.724254
_cell_angle_gamma                 81.108474
_cell_volume                      3257.79257262

loop_
_atom_site_label
_atom_site_type_symbol
_atom_type_description
_atom_site_fract_x
_atom_site_fract_y
_atom_site_fract_z
_atom_type_partial_charge
Ba1   Ba    Ba6+2 0.860050 0.456430 0.522530 1.704034
Ba2   Ba    Ba6+2 0.329780 0.543490 0.477460 1.727313
C1    C     C_3   0.684891 0.133980 0.648008 -0.358231
C2    C     C_R   0.886809 0.583565 0.177410 0.578661
C3    C     C_2   0.750564 0.552911 0.272835 -0.077150
C4    C     C_3   0.178163 0.257687 0.655762 0.274266
C5    C     C_3   0.729949 0.587034 0.327942 -0.046691
C6    C     C_1   0.985479 0.486325 0.342996 -0.013282
C7    C     C_2   0.028264 0.483245 0.295334 -0.122757
C8    C     C_2   0.902612 0.515036 0.256275 0.184616
C9    C     C_R   0.027163 0.505960 0.101648 -0.081853
C10   C     C_R   0.086616 0.432677 0.127705 -0.035910
C11   C     C_R   0.188678 0.357905 0.102446 -0.050349
C12   C     C_3   0.679111 0.225683 0.630311 0.356607
C13   C     C_R   0.922847 0.580509 0.126420 -0.030141
C14   C     C_2   0.845181 0.532612 0.361022 -0.194456
C15   C     C_2   0.352390 0.473634 0.640002 -0.283511
C16   C     C_3   0.136736 0.241086 0.707581 -0.314318
C17   C     C_R   0.201863 0.423899 0.972958 0.035206
C18   C     C_R   0.066446 0.582839 0.976114 -0.030371
C19   C     C_R   0.151364 0.502024 0.948864 0.013051
C20   C     C_R   0.283927 0.345009 0.943897 -0.093536
C21   C     C_R   0.318902 0.343560 0.893655 -0.055847
C22   C     C_R   0.273125 0.420459 0.869752 -0.017022
C23   C     C_3   0.479262 0.679427 0.632062 0.295103
C24   C     C_R   0.188926 0.499804 0.897274 -0.082409
C25   C     C_R   0.144757 0.577409 0.873424 -0.095194
C26   C     C_R   0.179498 0.573872 0.822096 0.611109
C27   C     C_R   0.311111 0.419679 0.818948 0.579047
C28   C     C_3   0.207300 0.260696 0.409878 0.262372
C29   C     C_2   0.459880 0.476457 0.728188 -0.070656
C30   C     C_3   0.501000 0.482542 0.674642 -0.055698
C31   C     C_1   0.207626 0.514710 0.656262 0.044933
C32   C     C_2   0.168348 0.515543 0.703829 -0.114792
C33   C     C_2   0.300956 0.494049 0.742781 0.202169
C34   C     C_3   0.420098 0.716198 0.684951 -0.339477
C35   C     C_R   0.168867 0.427091 0.024956 0.021998
C36   C     C_R   0.070419 0.504564 0.050593 0.047785
C37   C     C_R   0.011952 0.580231 0.025438 0.035199
C38   C     C_R   0.228954 0.355034 0.052389 -0.095199
C39   C     C_R   0.852475 0.649977 0.099306 -0.051585
C40   C     C_3   0.204823 0.159636 0.392908 0.396009
C41   C     C_R   0.044511 0.663248 0.952917 0.347078
C42   C     C_R   0.075710 0.658661 0.902055 -0.049361
C43   C     C_R   0.891862 0.648089 0.049497 -0.040147
C44   C     C_R   0.844497 0.831408 0.466476 0.052706
C45   C     C_3   0.026408 0.735495 0.344272 0.327148
C46   C     C_R   0.778662 0.924749 0.470707 -0.031470
C47   C     C_R   0.643999 0.112250 0.480963 -0.026055
C48   C     C_R   0.784766 0.077381 0.452307 -0.031393
C49   C     C_R   0.852797 0.985986 0.448231 -0.079438
C50   C     C_R   0.577759 0.205933 0.487668 0.031447
C51   C     C_R   0.433702 0.235841 0.514606 -0.255388
C52   C     C_3   0.933361 0.746710 0.609806 0.665825
C53   C     C_R   0.617925 0.804273 0.514294 -0.000696
C54   C     C_R   0.553318 0.897102 0.520388 -0.035884
C55   C     C_R   0.632467 0.957562 0.497946 0.026451
C56   C     C_3   0.032707 0.759942 0.291806 -0.314629
C57   C     C_R   0.411433 0.931031 0.548281 -0.047643
C58   C     C_R   0.344449 0.021753 0.552546 -0.079240
C59   C     C_R   0.419474 0.083012 0.530472 0.020257
C60   C     C_R   0.566144 0.051182 0.503453 0.046458
C61   C     C_R   0.350901 0.175148 0.534324 0.056571
C62   C     C_R   0.759365 0.772260 0.486586 -0.237978
C63   C     C_3   0.832354 0.803663 0.652403 -0.285008
C64   C     C_3   0.721665 0.332876 0.370824 0.886940
C65   C     C_3   0.754754 0.299030 0.315646 -0.295604
C66   C     C_3   0.486425 0.787184 0.369085 0.351465
C67   C     C_3   0.432355 0.879741 0.352572 -0.329238
C68   C     C_R   0.041822 0.435268 0.178282 0.602302
Cl1   Cl    Cl    0.019414 0.822989 0.578017 -0.741632
Cl2   Cl    Cl    0.014319 0.774551 0.986410 -0.670214
F1    F     F_    0.246314 0.110840 0.432196 -0.749637
F2    F     F_    0.606424 0.410325 0.374651 -0.694149
H1    H     H_    0.785181 0.221366 0.605544 0.098231
H2    H     H_    0.852324 0.238682 0.311956 0.057175
H3    H     H_    0.795950 0.352826 0.297554 0.069841
H4    H     H_    0.640573 0.280070 0.295946 0.122417
H5    H     H_    0.561997 0.240337 0.608964 -0.073717
H6    H     H_    0.679858 0.080282 0.615129 0.076088
H7    H     H_    0.378538 0.648992 0.610343 0.063888
H8    H     H_    0.588658 0.626514 0.633933 0.008343
H9    H     H_    0.317370 0.773250 0.683692 0.170018
H10   H     H_    0.375268 0.662690 0.702264 0.075427
H11   H     H_    0.522095 0.741063 0.708842 0.107177
H12   H     H_    0.293734 0.134155 0.362394 0.039282
H13   H     H_    0.578271 0.135278 0.672061 0.123781
H14   H     H_    0.171132 0.296283 0.736139 0.125091
H15   H     H_    0.112540 0.671508 0.346486 0.080045
H16   H     H_    0.898836 0.725322 0.350678 -0.069333
H17   H     H_    0.152126 0.782346 0.286208 0.150035
H18   H     H_    0.020280 0.699473 0.263801 0.118096
H19   H     H_    0.931066 0.815493 0.285927 0.121039
H20   H     H_    0.623326 0.774472 0.369556 -0.094293
H21   H     H_    0.442659 0.789711 0.407705 0.068744
H22   H     H_    0.486282 0.932512 0.378682 0.093368
H23   H     H_    0.079449 0.148548 0.378603 0.018389
H24   H     H_    0.296155 0.897043 0.352853 0.160251
H25   H     H_    0.123220 0.328264 0.651495 0.081321
H26   H     H_    0.475387 0.879408 0.314113 0.114686
H27   H     H_    0.154907 0.459414 0.284748 0.148788
H28   H     H_    0.238208 0.300634 0.121380 0.129092
H29   H     H_    0.559222 0.464708 0.755545 0.101509
H30   H     H_    0.382367 0.281161 0.873421 0.126568
H31   H     H_    0.320931 0.282161 0.958673 0.078800
H32   H     H_    0.309982 0.295456 0.036449 0.079520
H33   H     H_    0.651046 0.572423 0.246910 0.119731
H34   H     H_    0.855616 0.706980 0.583264 -0.044039
H35   H     H_    0.763014 0.705474 0.116210 0.136479
H36   H     H_    0.314124 0.249932 0.652936 -0.014722
H37   H     H_    0.053832 0.720895 0.885522 0.166279
H38   H     H_    0.041459 0.534687 0.715215 0.122321
H39   H     H_    0.820559 0.698528 0.029671 0.148991
H40   H     H_    0.828580 0.549283 0.401210 0.082607
H41   H     H_    0.364548 0.436577 0.602248 0.067045
H42   H     H_    0.845426 0.119765 0.432646 0.107103
H43   H     H_    0.962828 0.963992 0.426599 0.125372
H44   H     H_    0.233508 0.042671 0.573745 0.125495
H45   H     H_    0.777097 0.758641 0.673600 0.078407
H46   H     H_    0.348206 0.888234 0.566899 0.158253
H47   H     H_    0.380814 0.306820 0.518053 0.048684
H48   H     H_    0.002325 0.240485 0.709721 0.149885
H49   H     H_    0.809285 0.700837 0.483253 0.063973
H50   H     H_    0.204570 0.174925 0.715703 0.121922
H51   H     H_    0.334923 0.272205 0.420037 0.000940
H52   H     H_    0.127638 0.283217 0.442842 0.063558
H53   H     H_    0.734296 0.852850 0.637522 0.107066
H54   H     H_    0.912620 0.842631 0.678788 0.131695
H55   H     H_    0.837435 0.348691 0.389909 -0.071645
H56   H     H_    0.801063 0.117549 0.669749 0.142560
N1    N     N_R   0.944171 0.510866 0.203269 -0.422013
N2    N     N_R   0.261100 0.495330 0.795197 -0.424123
O1    O     O_2   0.906480 0.548660 0.619050 -0.495921
O2    O     O_2   0.186449 0.824327 0.471058 -0.432366
O3    O     O_3   0.073340 0.806177 0.379274 -0.619486
O4    O     O_3   0.138490 0.548590 0.558870 -0.467364
O5    O     O_3   0.572560 0.389960 0.472890 -0.432966
O6    O     O_2   0.345660 0.723580 0.528500 -0.399280
O7    O     O_3   0.522896 0.751399 0.610811 -0.656089
O8    O     O_2   0.402278 0.545403 0.323749 -0.452112
O9    O     O_3   0.418821 0.719997 0.335922 -0.605373
O10   O     O_2   0.088090 0.369458 0.199634 -0.591902
O11   O     O_2   0.389036 0.351498 0.795909 -0.600541
O12   O     O_3   0.661587 0.265083 0.391619 -0.672154
O13   O     O_2   0.805817 0.652254 0.198902 -0.612183
O14   O     O_2   0.139893 0.641459 0.801660 -0.593343
O15   O     O_3   0.686300 0.382310 0.585700 -0.494582
O16   O     O_2   0.845053 0.429253 0.670959 -0.498776
O17   O     O_3   0.063692 0.693126 0.631207 -0.640003
O18   O     O_3   0.687139 0.293085 0.672024 -0.591077
O19   O     O_2   0.844040 0.276390 0.471470 -0.495480
O20   O     O_3   0.101510 0.335500 0.560330 -0.497995
O21   O     O_2   0.012138 0.175707 0.526491 -0.447076
O22   O     O_3   0.112523 0.194558 0.619787 -0.617416
O23   O     O_2   0.283210 0.451310 0.380920 -0.372303
O24   O     O_3   0.051220 0.451340 0.441120 -0.503820
O25   O     O_3   0.503410 0.617620 0.414290 -0.449996
O26   O     O_3   0.150978 0.306298 0.369458 -0.677832
O27   O     O_3   0.617150 0.609960 0.527100 -0.482104
O28   O     O_3   0.088210 0.664420 0.439670 -0.491468
P1    P     P_3+3 0.071950 0.575820 0.612140 1.000014
P2    P     P_3+3 0.664370 0.290050 0.457240 1.012569
P3    P     P_3+3 0.145173 0.219027 0.559975 0.964924
P4    P     P_3+3 0.117760 0.424110 0.387850 1.016017
P5    P     P_3+3 0.047825 0.782152 0.439640 0.999897
P6    P     P_3+3 0.680219 0.398446 0.651083 0.967148
P7    P     P_3+3 0.530561 0.723055 0.545694 0.958958
P8    P     P_3+3 0.513234 0.613826 0.349588 1.031104

loop_
_geom_bond_atom_site_label_1
_geom_bond_atom_site_label_2
_ccdc_geom_bond_type
O8    P8    D    
C53   C54   A    
C28   H52   S    
Ba2   O23   S    
C44   P5    S    
C30   P6    S    
C23   O7    S    
C1    H56   S    
C32   H38   S    
C65   H3    S    
C53   P7    S    
C5    P8    S    
C67   H22   S    
C55   C60   A    
C52   C63   S    
C61   P3    S    
C24   C25   A    
C41   Cl2   S    
O21   P3    D    
C63   H53   S    
C17   C19   A    
C56   H19   S    
C22   C24   A    
C32   C33   S    
C35   C38   A    
C3    H33   S    
C36   C37   A    
C27   N2    Am   
C64   O12   S    
C34   H9    S    
O18   P6    S    
O16   P6    D    
C54   C55   A    
Ba1   O20   S    
Ba1   Ba2   S    
O1    P1    D    
C59   C61   A    
C22   C27   A    
C11   C38   A    
C17   C35   A    
C8    N1    S    
C9    C13   A    
C25   C42   A    
C46   C49   A    
C52   Cl1   S    
C29   C30   S    
Ba2   O27   S    
C40   F1    S    
C21   C22   A    
C58   H44   S    
C40   H12   S    
C2    N1    Am   
Ba1   O4    S    
C7    C8    S    
O26   P4    S    
C37   C43   A    
C64   H55   S    
C45   O3    S    
C67   H24   S    
C47   C50   A    
C64   C65   S    
C28   H51   S    
Ba1   P1    S    
C57   C58   A    
C6    C14   D    
C39   H35   S    
C23   H7    S    
C45   H15   S    
C65   H4    S    
C15   C31   D    
Ba1   O1    S    
C1    H6    S    
O25   P8    S    
C19   C24   A    
C31   C32   D    
C52   O17   S    
O4    P1    S    
C57   H46   S    
O3    P5    S    
C4    C16   S    
C44   C46   A    
C68   O10   D    
C66   H21   S    
C1    H13   S    
Ba2   O6    S    
C63   H54   S    
O22   P3    S    
C46   C55   A    
C17   C20   A    
C13   C39   A    
C6    P4    S    
C40   H23   S    
Ba2   P4    S    
C3    C5    S    
C18   C37   A    
C6    C7    D    
O28   P5    S    
Ba2   O4    S    
C44   C62   A    
C58   C59   A    
C26   N2    Am   
C29   H29   S    
C4    H36   S    
Ba1   O24   S    
C31   P1    S    
C41   C42   A    
C42   H37   S    
C35   C36   A    
O15   P6    S    
C64   F2    S    
C21   H30   S    
Ba1   O27   S    
O19   P2    D    
C53   C62   A    
C12   O18   S    
C48   C49   A    
C63   H45   S    
O2    P5    D    
C66   O9    S    
C12   H5    S    
C18   C19   A    
O7    P7    S    
C4    O22   S    
C1    C12   S    
C16   H48   S    
Ba2   O28   S    
C5    C14   S    
Ba1   P2    S    
O6    P7    D    
C23   H8    S    
O23   P4    D    
C45   H16   S    
C29   C33   D    
Ba1   O15   S    
O17   P1    S    
C62   H49   S    
C18   C41   A    
Ba1   O5    S    
C50   C51   A    
C15   H41   S    
C38   H32   S    
C56   H17   S    
C28   O26   S    
C10   C68   A    
O9    P8    S    
Ba2   O24   S    
C47   C60   A    
O12   P2    S    
Ba2   O5    S    
C66   C67   S    
C14   H40   S    
C9    C10   A    
C34   H11   S    
C20   H31   S    
C26   O14   D    
C54   C57   A    
C52   H34   S    
C4    H25   S    
C2    C13   A    
C3    C8    D    
C51   H47   S    
C12   H1    S    
C45   C56   S    
C51   C61   A    
O5    P2    S    
C34   H10   S    
Ba2   O25   S    
C2    O13   D    
C68   N1    Am   
C49   H43   S    
O27   P7    S    
Ba1   O19   S    
C48   H42   S    
C59   C60   A    
C66   H20   S    
O20   P3    S    
C16   H14   S    
C23   C34   S    
C67   H26   S    
C43   H39   S    
C10   C11   A    
O24   P4    S    
C7    H27   S    
C47   C48   A    
C50   P2    S    
C25   C26   A    
C15   C30   S    
C39   C43   A    
C20   C21   A    
C28   C40   S    
C9    C36   A    
C65   H2    S    
C11   H28   S    
C56   H18   S    
C33   N2    S    
C16   H50   S    
C27   O11   D    
