data_mof_unit_27236.cif
_audit_creation_date              2012-12-10T17:37:17-0500
_audit_creation_method            fapswitch 2.2
_symmetry_space_group_name_H-M    P1
_symmetry_Int_Tables_number       1
_space_group_crystal_system       triclinic
_cell_length_a                    12.440567
_cell_length_b                    13.098399
_cell_length_c                    15.840817
_cell_angle_alpha                 75.59623
_cell_angle_beta                  101.066512
_cell_angle_gamma                 117.04073
_cell_volume                      2217.51661777

loop_
_atom_site_label
_atom_site_type_symbol
_atom_type_description
_atom_site_fract_x
_atom_site_fract_y
_atom_site_fract_z
_atom_type_partial_charge
C1    C     C_R   0.855145 0.285991 0.505074 0.818153
C2    C     C_3   0.000321 0.500079 0.916550 0.082668
C3    C     C_3   0.097505 0.490568 0.044391 0.107863
C4    C     C_3   0.000216 0.500696 0.083415 0.076891
C5    C     C_3   0.099224 0.589481 0.968838 0.069811
C6    C     C_3   0.001162 0.599701 0.006907 0.525114
C7    C     C_1   0.000711 0.500306 0.824973 -0.025284
C8    C     C_1   0.000330 0.500948 0.174987 0.005741
C9    C     C_R   0.279477 0.031985 0.372870 0.055944
C10   C     C_R   0.227468 0.839120 0.463558 -0.296343
C11   C     C_R   0.813842 0.073672 0.534412 0.477374
C12   C     C_R   0.000304 0.500237 0.659756 0.838615
C13   C     C_R   0.732178 0.956512 0.540516 -0.312387
C14   C     C_R   0.608830 0.923319 0.515380 0.142370
C15   C     C_R   0.564183 0.009707 0.484198 0.116635
C16   C     C_R   0.649695 0.127875 0.464736 -0.041554
C17   C     C_R   0.438395 0.982328 0.463509 -0.056125
C18   C     C_R   0.402421 0.064227 0.403977 0.008955
C19   C     C_R   0.490402 0.175689 0.374565 -0.150838
C20   C     C_R   0.611294 0.207291 0.404991 -0.172358
C21   C     C_R   0.346709 0.878129 0.503211 0.419447
C22   C     C_R   0.194361 0.915723 0.396038 0.372214
C23   C     C_R   0.144917 0.714556 0.485801 0.866196
C24   C     C_R   0.772576 0.161493 0.500596 -0.240934
C25   C     C_R   0.322492 0.300191 0.623215 0.008110
C26   C     C_R   0.764356 0.650685 0.383431 0.045823
C27   C     C_R   0.665675 0.674861 0.348355 -0.306320
C28   C     C_R   0.553580 0.609213 0.383554 0.162958
C29   C     C_R   0.542969 0.522652 0.460637 -0.049589
C30   C     C_R   0.645261 0.494555 0.491222 0.228615
C31   C     C_R   0.435248 0.461623 0.508325 -0.075807
C32   C     C_R   0.421572 0.359957 0.571719 0.100739
C33   C     C_R   0.511989 0.323284 0.589395 -0.274994
C34   C     C_R   0.000213 0.500438 0.340198 0.769388
C35   C     C_R   0.625511 0.394525 0.560929 0.158469
C36   C     C_R   0.342088 0.498620 0.499575 -0.003195
C37   C     C_R   0.236711 0.344037 0.612405 0.336338
C38   C     C_3   0.899867 0.409536 0.031783 -0.241629
C39   C     C_3   0.899992 0.509964 0.954331 -0.271999
C40   C     C_1   0.000676 0.500351 0.749420 -0.186854
C41   C     C_1   0.000276 0.500812 0.250531 -0.168832
C42   C     C_3   0.999384 0.399011 0.992445 -0.158717
Cu1   Cu    Cu3+1 0.098270 0.475420 0.519690 0.990513
Cu2   Cu    Cu3+1 0.901730 0.524580 0.480310 0.955084
H1    H     H_    0.818262 0.517085 0.916032 0.144122
H2    H     H_    0.765515 0.890116 0.563996 0.162681
H3    H     H_    0.674641 0.292417 0.375554 0.173790
H4    H     H_    0.502194 0.245575 0.637985 0.185455
H5    H     H_    0.344979 0.577062 0.456277 0.198408
H6    H     H_    0.848342 0.699790 0.353227 0.177185
H7    H     H_    0.817893 0.335305 0.059176 0.158185
H8    H     H_    0.675651 0.742462 0.290787 0.147253
H9    H     H_    0.999820 0.316826 0.985782 0.145316
H10   H     H_    0.466562 0.239490 0.327461 0.174823
N1    N     N_R   0.246280 0.438200 0.549540 -0.196568
N2    N     N_R   0.754330 0.561180 0.450980 -0.196727
O1    O     O_R   0.972510 0.318130 0.524770 -0.510946
O2    O     O_R   0.806530 0.359650 0.491510 -0.572168
O3    O     O_R   0.082970 0.479240 0.637550 -0.543388
O4    O     O_R   0.916990 0.520750 0.604290 -0.552140
O5    O     O_R   0.193470 0.640350 0.508490 -0.544133
O6    O     O_R   0.027490 0.681870 0.475230 -0.556220
O7    O     O_R   0.083010 0.479250 0.395710 -0.581356
O8    O     O_R   0.917030 0.520760 0.362450 -0.593908
O9    O     O_3   0.371458 0.815161 0.582405 -0.543886
C43   C     C_3   0.368713 0.865825 0.650261 -0.309841
H11   H     H_    0.278226 0.864304 0.649187 0.153126
H12   H     H_    0.440965 0.956583 0.646859 0.158022
H13   H     H_    0.385788 0.813923 0.713843 0.190675
O10   O     O_3   0.934153 0.101107 0.562891 -0.583779
C44   C     C_3   0.990924 0.096460 0.495777 -0.297223
H14   H     H_    0.983018 0.157237 0.434289 0.164796
H15   H     H_    0.953678 0.006114 0.483199 0.168547
H16   H     H_    0.088870 0.124258 0.517011 0.180923
N3    N     N_3   0.533888 0.803440 0.509249 -0.530339
H17   H     H_    0.541082 0.751960 0.570262 0.244663
H18   H     H_    0.568607 0.782087 0.464593 0.220262
N4    N     N_3   0.140596 0.293448 0.668408 -0.508203
H19   H     H_    0.095163 0.203940 0.669338 0.243430
H20   H     H_    0.178871 0.305757 0.731936 0.179297
N5    N     N_3   0.311733 0.197701 0.687645 -0.630407
H21   H     H_    0.309379 0.212091 0.749128 0.216408
H22   H     H_    0.230925 0.127602 0.672118 0.221944
N6    N     N_3   0.449407 0.623747 0.335807 -0.621705
H23   H     H_    0.395148 0.548836 0.309025 0.230074
H24   H     H_    0.474233 0.694100 0.283357 0.216769
N7    N     N_3   0.717852 0.367274 0.614597 -0.497848
H25   H     H_    0.720928 0.380890 0.677609 0.198513
H26   H     H_    0.695220 0.278540 0.620337 0.199839
O11   O     O_3   0.005864 0.704032 0.020758 -0.585762
C45   C     C_3   0.983986 0.769651 0.939947 -0.314238
H27   H     H_    0.888433 0.726188 0.912555 0.156760
H28   H     H_    0.047267 0.786095 0.891979 0.186567
H29   H     H_    0.998729 0.855642 0.950943 0.185058
N8    N     N_3   0.207393 0.686946 0.933807 -0.603952
H30   H     H_    0.258961 0.730051 0.985190 0.223013
H31   H     H_    0.258063 0.652147 0.915178 0.215225
N9    N     N_3   0.204178 0.479887 0.094533 -0.583830
H32   H     H_    0.256102 0.478911 0.050391 0.214096
H33   H     H_    0.255478 0.555754 0.120628 0.211821
O12   O     O_3   0.078880 0.878883 0.353436 -0.579102
C46   C     C_3   0.078146 0.835238 0.280121 -0.293839
H34   H     H_    0.988428 0.813259 0.241955 0.181718
H35   H     H_    0.092254 0.754366 0.300667 0.154660
H36   H     H_    0.147520 0.900575 0.235532 0.154181
N10   N     N_3   0.242004 0.116118 0.315628 -0.588241
H37   H     H_    0.205793 0.089256 0.255559 0.236929
H38   H     H_    0.173752 0.118621 0.343503 0.238943

loop_
_geom_bond_atom_site_label_1
_geom_bond_atom_site_label_2
_ccdc_geom_bond_type
C43   H12   S    
N7    H25   S    
C3    C42   S    
O12   C46   S    
C28   N6    S    
N8    H30   S    
C4    C8    S    
N5    H21   S    
C11   O10   S    
Cu1   O7    S    
C10   C22   A    
C26   C27   A    
C22   O12   S    
C30   C35   A    
C28   C29   A    
N6    H24   S    
C38   C42   S    
C26   H6    S    
C42   H9    S    
C5    C6    S    
N4    H20   S    
C9    C22   A    
C43   H13   S    
N10   H37   S    
C15   C16   A    
C11   C24   A    
C46   H36   S    
C18   C19   A    
C2    C7    S    
C25   C37   A    
C12   O3    A    
C35   N7    S    
C2    C39   S    
C23   O6    A    
C19   C20   A    
Cu2   O2    S    
C7    C40   T    
O10   C44   S    
Cu1   O3    S    
C39   H1    S    
C25   C32   A    
C43   H11   S    
C16   C24   A    
C13   C14   A    
C25   N5    S    
C34   C41   S    
C5    N8    S    
C10   C21   A    
Cu2   O4    S    
N6    H23   S    
C4    C6    S    
C45   H27   S    
C44   H15   S    
N4    H19   S    
C38   H7    S    
Cu2   O6    S    
C9    N10   S    
C6    O11   S    
C30   N2    A    
Cu2   O8    S    
C37   N1    A    
C12   C40   S    
N3    H17   S    
C29   C30   A    
C1    O1    A    
C45   H28   S    
Cu2   N2    S    
C31   C32   A    
C14   C15   A    
C16   C20   A    
C34   O8    A    
C17   C18   A    
C8    C41   T    
C46   H35   S    
N3    H18   S    
C19   H10   S    
Cu1   N1    S    
C4    C38   S    
N9    H32   S    
N9    H33   S    
N7    H26   S    
Cu1   Cu2   S    
C2    C5    S    
C3    C4    S    
C27   H8    S    
Cu1   O5    S    
C13   H2    S    
C15   C17   A    
C21   O9    S    
C31   C36   A    
C3    C5    S    
C26   N2    A    
N5    H22   S    
C44   H16   S    
N8    H31   S    
C10   C23   S    
C37   N4    S    
C32   C33   A    
C44   H14   S    
C29   C31   A    
C36   N1    A    
C1    O2    A    
C14   N3    S    
C45   H29   S    
C11   C13   A    
C3    N9    S    
O11   C45   S    
C38   C39   S    
N10   H38   S    
C2    C42   S    
C34   O7    A    
C33   C35   A    
C46   H34   S    
C17   C21   A    
C20   H3    S    
Cu1   O1    S    
C12   O4    A    
C9    C18   A    
C23   O5    A    
C1    C24   S    
O9    C43   S    
C27   C28   A    
C33   H4    S    
C6    C39   S    
C36   H5    S    
