data_mof_unit_10504.cif
_audit_creation_date              2012-10-26T20:06:10-0400
_audit_creation_method            fapswitch 2.2
_symmetry_space_group_name_H-M    P1
_symmetry_Int_Tables_number       1
_space_group_crystal_system       triclinic
_cell_length_a                    9.522457
_cell_length_b                    10.811502
_cell_length_c                    13.449073
_cell_angle_alpha                 90.259729
_cell_angle_beta                  72.597091
_cell_angle_gamma                 90.103316
_cell_volume                      1321.21577517

loop_
_atom_site_label
_atom_site_type_symbol
_atom_type_description
_atom_site_fract_x
_atom_site_fract_y
_atom_site_fract_z
_atom_type_partial_charge
C1    C     C_R   0.500116 0.737779 0.500029 0.549046
C2    C     C_R   0.373658 0.487467 0.814788 -0.001862
C3    C     C_R   0.633544 0.933797 0.451978 -0.069964
C4    C     C_R   0.421471 0.493339 0.700069 0.533634
C5    C     C_R   0.635374 0.061696 0.444369 0.231463
C6    C     C_R   0.503525 0.128108 0.490218 0.012960
C7    C     C_R   0.371357 0.064624 0.534979 -0.168927
C8    C     C_R   0.370003 0.936771 0.537645 -0.152163
C9    C     C_R   0.501347 0.871391 0.497504 -0.029447
C10   C     C_R   0.897876 0.575107 0.566328 0.001326
C11   C     C_R   0.046640 0.575068 0.566326 -0.014188
C12   C     C_R   0.433322 0.479434 0.979629 0.035732
C13   C     C_R   0.101842 0.424140 0.433685 0.219790
C14   C     C_R   0.952721 0.424878 0.433806 0.026362
C15   C     C_R   0.501657 0.262192 0.495878 0.538645
C16   C     C_R   0.578569 0.497862 0.300033 0.545410
C17   C     C_R   0.788338 0.395590 0.029052 -0.134863
C18   C     C_R   0.622794 0.480864 0.187023 0.000348
C19   C     C_R   0.231385 0.528583 0.868632 -0.135044
C20   C     C_R   0.188123 0.541273 0.976161 -0.144606
C21   C     C_R   0.287996 0.519640 0.031244 -0.120489
C22   C     C_R   0.471118 0.452010 0.871588 0.024809
C23   C     C_R   0.541927 0.464242 0.031832 0.030560
C24   C     C_R   0.680082 0.410536 0.978540 0.049554
C25   C     C_R   0.707528 0.369821 0.876210 -0.143563
C26   C     C_R   0.603983 0.388464 0.823969 -0.124514
C27   C     C_R   0.518185 0.502385 0.135235 -0.127406
C28   C     C_R   0.759486 0.429874 0.133165 -0.141967
Cu1   Cu    Cu3+1 0.359340 0.499980 0.500000 0.967356
Cu2   Cu    Cu3+1 0.640660 0.500020 0.500000 0.936315
H1    H     H_    0.841616 0.412379 0.172369 0.120756
H2    H     H_    0.153855 0.553601 0.827354 0.127586
H3    H     H_    0.246582 0.532343 0.114410 0.099382
H4    H     H_    0.077544 0.571841 0.016913 0.123624
H5    H     H_    0.628595 0.349009 0.746782 0.155129
H6    H     H_    0.734654 0.882884 0.418013 0.154025
H7    H     H_    0.743049 0.191531 0.354889 0.327184
H8    H     H_    0.165693 0.252529 0.380067 0.218453
H9    H     H_    0.205530 0.364032 0.288170 0.197465
H10   H     H_    0.269336 0.113919 0.569743 0.140680
H11   H     H_    0.267038 0.889128 0.573006 0.134240
H12   H     H_    0.819606 0.635370 0.619496 0.124807
H13   H     H_    0.080461 0.635256 0.619449 0.105477
H14   H     H_    0.918000 0.365020 0.380892 0.121557
H15   H     H_    0.809805 0.323475 0.836126 0.111575
H16   H     H_    0.893945 0.354608 0.988710 0.113419
H17   H     H_    0.418263 0.548685 0.178076 0.121670
N1    N     N_R   0.147940 0.499970 0.499970 -0.195826
N2    N     N_R   0.852060 0.500060 0.499990 -0.241767
N3    N     N_3   0.204299 0.343109 0.364262 -0.555997
O1    O     O_R   0.381250 0.680340 0.500010 -0.502934
O2    O     O_R   0.618820 0.680370 0.500010 -0.505560
O3    O     O_R   0.323240 0.499950 0.650980 -0.510406
O4    O     O_R   0.560810 0.499980 0.650980 -0.509591
O5    O     O_R   0.381180 0.319630 0.499990 -0.477332
O6    O     O_R   0.618750 0.319660 0.499990 -0.496196
O7    O     O_R   0.439190 0.500020 0.349020 -0.471068
O8    O     O_R   0.676760 0.500050 0.349020 -0.515761
O9    O     O_3   0.766085 0.117112 0.389734 -0.708901

loop_
_geom_bond_atom_site_label_1
_geom_bond_atom_site_label_2
_ccdc_geom_bond_type
C2    C22   A    
C13   N1    A    
C2    C4    S    
C23   C24   A    
C24   C25   A    
C11   H13   S    
C6    C7    A    
C3    C9    A    
C23   C27   A    
C4    O3    A    
C10   H12   S    
C1    O1    A    
C19   C20   A    
C7    H10   S    
C20   H4    S    
C15   O6    A    
H7    O9    S    
Cu1   O1    S    
C6    C15   S    
C1    C9    S    
C7    C8    A    
C16   O8    A    
C13   C14   A    
C20   C21   A    
C8    H11   S    
Cu2   O4    S    
C12   C23   A    
C11   N1    A    
Cu1   Cu2   S    
Cu1   O3    S    
C3    H6    S    
H8    N3    S    
C19   H2    S    
Cu2   O8    S    
C14   H14   S    
C25   C26   A    
Cu2   N2    S    
Cu1   O7    S    
C16   O7    A    
C12   C22   A    
C5    C6    A    
C1    O2    A    
C14   N2    A    
C21   H3    S    
C10   C11   A    
C5    O9    S    
Cu1   N1    S    
C13   N3    S    
C17   C24   A    
C25   H15   S    
C26   H5    S    
H9    N3    S    
C18   C28   A    
C17   H16   S    
C16   C18   S    
C22   C26   A    
C27   H17   S    
Cu2   O2    S    
Cu1   O5    S    
C4    O4    A    
C2    C19   A    
C10   N2    A    
Cu2   O6    S    
C12   C21   A    
C28   H1    S    
C18   C27   A    
C17   C28   A    
C8    C9    A    
C3    C5    A    
C15   O5    A    
