data_mof_unit_62432.cif
_audit_creation_date              2012-12-10T18:05:00-0500
_audit_creation_method            fapswitch 2.2
_symmetry_space_group_name_H-M    P1
_symmetry_Int_Tables_number       1
_space_group_crystal_system       triclinic
_cell_length_a                    30.785832
_cell_length_b                    30.742416
_cell_length_c                    22.286011
_cell_angle_alpha                 90.169265
_cell_angle_beta                  46.314423
_cell_angle_gamma                 89.99327
_cell_volume                      15252.4781003

loop_
_atom_site_label
_atom_site_type_symbol
_atom_type_description
_atom_site_fract_x
_atom_site_fract_y
_atom_site_fract_z
_atom_type_partial_charge
C1    C     C_R   0.189962 0.190737 0.501471 0.887096
C2    C     C_R   0.808701 0.190648 0.501053 0.859405
C3    C     C_R   0.689963 0.690737 0.501469 0.887153
C4    C     C_R   0.308701 0.690648 0.501054 0.859262
C5    C     C_R   0.150295 0.158426 0.447379 -0.043423
C6    C     C_R   0.901142 0.150393 0.433811 -0.102386
C7    C     C_R   0.650320 0.658415 0.447351 -0.043371
C8    C     C_R   0.401144 0.650399 0.433818 -0.102751
C9    C     C_R   0.154115 0.157925 0.506064 -0.164825
C10   C     C_R   0.840212 0.156730 0.503036 -0.149644
C11   C     C_R   0.654118 0.657926 0.506059 -0.164814
C12   C     C_R   0.340212 0.656730 0.503037 -0.149538
C13   C     C_R   0.120540 0.126865 0.570638 0.034636
C14   C     C_R   0.809047 0.126277 0.568752 0.035534
C15   C     C_R   0.620520 0.626878 0.570654 0.034353
C16   C     C_R   0.309046 0.626272 0.568746 0.035529
C17   C     C_R   0.089488 0.094137 0.568472 0.595497
C18   C     C_R   0.841916 0.093356 0.566912 0.598600
C19   C     C_R   0.589468 0.594149 0.568489 0.595655
C20   C     C_R   0.341916 0.593351 0.566905 0.598611
C21   C     C_R   0.093267 0.091783 0.501679 -0.188824
C22   C     C_R   0.904869 0.090836 0.500356 -0.194610
C23   C     C_R   0.593267 0.591783 0.501679 -0.188858
C24   C     C_R   0.404869 0.590836 0.500356 -0.194548
C25   C     C_R   0.122810 0.125020 0.442966 -0.153644
C26   C     C_R   0.932927 0.118305 0.432610 -0.122505
C27   C     C_R   0.622834 0.625008 0.442942 -0.153591
C28   C     C_R   0.432930 0.618310 0.432615 -0.122616
C29   C     C_3   0.169003 0.125441 0.349529 -0.150708
C30   C     C_3   0.988665 0.145541 0.383775 -0.161588
C31   C     C_3   0.669045 0.625410 0.349504 -0.150676
C32   C     C_3   0.488664 0.645548 0.383793 -0.161628
C33   C     C_3   0.198137 0.163316 0.355405 1.108325
C34   C     C_3   0.953004 0.181115 0.385637 1.148481
C35   C     C_3   0.698182 0.663286 0.355374 1.108268
C36   C     C_3   0.453002 0.681124 0.385661 1.148615
C37   C     C_R   0.016120 0.242996 0.044396 0.625155
C38   C     C_R   0.983410 0.256690 0.955611 0.612167
C39   C     C_R   0.516361 0.744531 0.044408 0.625284
C40   C     C_R   0.483187 0.755161 0.955596 0.612052
C41   C     C_R   0.955595 0.249920 0.087317 -0.123130
C42   C     C_R   0.043941 0.249794 0.912688 -0.114718
C43   C     C_R   0.455600 0.749899 0.087315 -0.123106
C44   C     C_R   0.543952 0.749822 0.912687 -0.114723
C45   C     C_R   0.329438 0.249998 0.341236 0.836617
C46   C     C_R   0.670609 0.250099 0.658764 0.782332
C47   C     C_R   0.829438 0.749998 0.341236 0.836635
C48   C     C_R   0.170610 0.750099 0.658764 0.782321
C49   C     C_R   0.938843 0.256831 0.042978 -0.050779
C50   C     C_R   0.060689 0.242878 0.957031 -0.055470
C51   C     C_R   0.438613 0.755263 0.042962 -0.050601
C52   C     C_R   0.560935 0.744453 0.957044 -0.056269
C53   C     C_1   0.911066 0.249872 0.177162 0.121299
C54   C     C_1   0.088504 0.249925 0.822839 0.111191
C55   C     C_1   0.411070 0.749863 0.177161 0.121302
C56   C     C_1   0.588511 0.749937 0.822839 0.110949
C57   C     C_1   0.125854 0.249995 0.747927 -0.122821
C58   C     C_1   0.873823 0.249875 0.252074 -0.095331
C59   C     C_1   0.625858 0.749999 0.747926 -0.122960
C60   C     C_1   0.373825 0.749872 0.252073 -0.095283
C61   C     C_R   0.367901 0.377029 0.447261 -0.015925
C62   C     C_R   0.635594 0.378850 0.548620 -0.008765
C63   C     C_R   0.867914 0.877021 0.447248 -0.015918
C64   C     C_R   0.135602 0.878853 0.548611 -0.008769
C65   C     C_R   0.341640 0.342208 0.501695 -0.300151
C66   C     C_R   0.658541 0.342310 0.497929 -0.302390
C67   C     C_R   0.841638 0.842207 0.501699 -0.300103
C68   C     C_R   0.158540 0.842310 0.497929 -0.302372
C69   C     C_R   0.349128 0.339535 0.557345 0.532117
C70   C     C_R   0.648024 0.338158 0.445682 0.528083
C71   C     C_R   0.849108 0.839542 0.557368 0.531909
C72   C     C_R   0.148014 0.838155 0.445692 0.528189
C73   C     C_R   0.381443 0.371940 0.557466 0.547813
C74   C     C_R   0.615860 0.370650 0.445406 0.542800
C75   C     C_R   0.881425 0.871946 0.557488 0.547778
C76   C     C_R   0.115851 0.870647 0.445416 0.542812
C77   C     C_R   0.408336 0.406465 0.499927 -0.285499
C78   C     C_R   0.592164 0.406779 0.499451 -0.286125
C79   C     C_R   0.908336 0.906463 0.499930 -0.285465
C80   C     C_R   0.092163 0.906780 0.499451 -0.286128
C81   C     C_R   0.401685 0.406871 0.444330 -0.054388
C82   C     C_R   0.601972 0.408858 0.551511 -0.073484
C83   C     C_R   0.901697 0.906863 0.444319 -0.054431
C84   C     C_R   0.101979 0.908862 0.551503 -0.073482
C85   C     C_3   0.415129 0.432349 0.375954 -0.018815
C86   C     C_3   0.592499 0.436480 0.615164 -0.022494
C87   C     C_3   0.915173 0.932324 0.375907 -0.018819
C88   C     C_3   0.092515 0.936487 0.615146 -0.022460
C89   C     C_R   0.309231 0.309281 0.500066 0.890363
C90   C     C_R   0.690843 0.309307 0.499762 0.886952
C91   C     C_R   0.809230 0.809281 0.500067 0.890287
C92   C     C_R   0.190843 0.809307 0.499762 0.886995
C93   C     C_3   0.376949 0.397523 0.378412 0.332735
C94   C     C_3   0.630431 0.401515 0.612984 0.329510
C95   C     C_3   0.876994 0.897498 0.378363 0.332732
C96   C     C_3   0.130446 0.901521 0.612966 0.329467
C97   C     C_R   0.559533 0.440540 0.499867 0.914214
C98   C     C_R   0.440671 0.440399 0.499918 0.919250
C99   C     C_R   0.059533 0.940540 0.499867 0.914242
C100  C     C_R   0.940672 0.940398 0.499918 0.919240
C101  C     C_R   0.060411 0.058633 0.500130 0.844883
C102  C     C_R   0.939988 0.059178 0.500161 0.851644
C103  C     C_R   0.560412 0.558632 0.500130 0.844838
C104  C     C_R   0.439988 0.559179 0.500161 0.851630
C105  C     C_R   0.170533 0.249985 0.658756 0.805817
C106  C     C_R   0.829378 0.249923 0.341246 0.831635
C107  C     C_R   0.670534 0.749986 0.658756 0.805852
C108  C     C_R   0.329378 0.749922 0.341246 0.831552
C109  C     C_R   0.525868 0.214973 0.956692 -0.210135
C110  C     C_R   0.482966 0.215145 0.043055 -0.192535
C111  C     C_R   0.025838 0.714968 0.956693 -0.210114
C112  C     C_R   0.982936 0.715140 0.043055 -0.192514
C113  C     C_R   0.543302 0.253767 0.912731 0.096355
C114  C     C_R   0.456673 0.254115 0.087393 0.099898
C115  C     C_R   0.043304 0.753765 0.912731 0.096347
C116  C     C_R   0.956674 0.754113 0.087393 0.099892
C117  C     C_R   0.517459 0.293794 0.955796 0.185086
C118  C     C_R   0.473669 0.294094 0.044368 0.187060
C119  C     C_R   0.017491 0.793796 0.955795 0.185078
C120  C     C_R   0.973701 0.794095 0.044368 0.187063
C121  C     C_1   0.588215 0.251849 0.822897 -0.023074
C122  C     C_1   0.412010 0.251933 0.177138 -0.009040
C123  C     C_1   0.088216 0.751848 0.822897 -0.023065
C124  C     C_1   0.912009 0.751931 0.177138 -0.009019
C125  C     C_1   0.374481 0.250624 0.252037 -0.110669
C126  C     C_1   0.625764 0.250753 0.747976 -0.151650
C127  C     C_1   0.874480 0.750622 0.252037 -0.110664
C128  C     C_1   0.125764 0.750752 0.747976 -0.151636
Cu1   Cu    Cu3+1 0.219120 0.280920 0.500000 1.025433
Cu2   Cu    Cu3+1 0.780880 0.280920 0.500000 1.038762
Cu3   Cu    Cu3+1 0.719120 0.780920 0.500000 1.025138
Cu4   Cu    Cu3+1 0.280880 0.780920 0.500000 1.039118
Cu5   Cu    Cu3+1 0.280880 0.219080 0.500020 1.039729
Cu6   Cu    Cu3+1 0.719120 0.219080 0.499980 1.030566
Cu7   Cu    Cu3+1 0.780880 0.719080 0.500020 1.039814
Cu8   Cu    Cu3+1 0.219120 0.719080 0.499980 1.030356
Cu9   Cu    Cu3+1 0.541030 0.500000 0.417970 0.986236
Cu10  Cu    Cu3+1 0.458970 0.500000 0.582030 1.089312
Cu11  Cu    Cu3+1 0.041030 0.000000 0.417970 0.986288
Cu12  Cu    Cu3+1 0.958970 0.000000 0.582030 1.089185
H1    H     H_    0.470147 0.184552 0.075588 0.174210
H2    H     H_    0.545573 0.184298 0.923907 0.166456
H3    H     H_    0.970093 0.684543 0.075589 0.174227
H4    H     H_    0.045520 0.684290 0.923907 0.166472
H5    H     H_    0.394124 0.465237 0.397532 0.155107
H6    H     H_    0.615100 0.468573 0.589275 0.179728
H7    H     H_    0.894180 0.965218 0.397450 0.155139
H8    H     H_    0.115118 0.968578 0.589249 0.179766
H9    H     H_    0.149628 0.135075 0.324002 0.181584
H10   H     H_    0.026075 0.132025 0.320630 0.191011
H11   H     H_    0.649690 0.635040 0.323947 0.181592
H12   H     H_    0.526078 0.632037 0.320644 0.190863
O1    O     O_R   0.178830 0.231030 0.500000 -0.562554
O2    O     O_R   0.821170 0.231030 0.500000 -0.526670
O3    O     O_R   0.678830 0.731030 0.500000 -0.562513
O4    O     O_R   0.321170 0.731030 0.500000 -0.526618
O5    O     O_R   0.510480 0.454840 0.569230 -0.582176
O6    O     O_R   0.489520 0.454840 0.430770 -0.591435
O7    O     O_R   0.010480 0.954840 0.569230 -0.582183
O8    O     O_R   0.989520 0.954840 0.430770 -0.591436
O9    O     O_R   0.079740 0.045080 0.430720 -0.612850
O10   O     O_R   0.920260 0.045080 0.569280 -0.532806
O11   O     O_R   0.579740 0.545080 0.430720 -0.612860
O12   O     O_R   0.420260 0.545080 0.569280 -0.532779
O13   O     O_R   0.010480 0.045040 0.569280 -0.542079
O14   O     O_R   0.989520 0.045040 0.430720 -0.604544
O15   O     O_R   0.510480 0.545040 0.569280 -0.542010
O16   O     O_R   0.489520 0.545040 0.430720 -0.604584
O17   O     O_R   0.230990 0.178800 0.500020 -0.580636
O18   O     O_R   0.769010 0.178800 0.499980 -0.596899
O19   O     O_R   0.730990 0.678800 0.500020 -0.580626
O20   O     O_R   0.269010 0.678800 0.499980 -0.596976
O21   O     O_R   0.283780 0.276120 0.380310 -0.576278
O22   O     O_R   0.716220 0.276120 0.619690 -0.588134
O23   O     O_R   0.783780 0.776120 0.380310 -0.576263
O24   O     O_R   0.216220 0.776120 0.619690 -0.588148
O25   O     O_R   0.335940 0.223900 0.380320 -0.574154
O26   O     O_R   0.664060 0.223900 0.619680 -0.580658
O27   O     O_R   0.835940 0.723900 0.380320 -0.574143
O28   O     O_R   0.164060 0.723900 0.619680 -0.580646
O29   O     O_R   0.269010 0.321200 0.499990 -0.604149
O30   O     O_R   0.730990 0.321200 0.500010 -0.606545
O31   O     O_R   0.769010 0.821200 0.499990 -0.604222
O32   O     O_R   0.230990 0.821200 0.500010 -0.606499
O33   O     O_R   0.321170 0.268970 0.500010 -0.540095
O34   O     O_R   0.678830 0.268970 0.499990 -0.533847
O35   O     O_R   0.821170 0.768970 0.500010 -0.540091
O36   O     O_R   0.178830 0.768970 0.499990 -0.533859
O37   O     O_R   0.164060 0.276100 0.619690 -0.570006
O38   O     O_R   0.835940 0.276100 0.380310 -0.555035
O39   O     O_R   0.664060 0.776100 0.619690 -0.570365
O40   O     O_R   0.335940 0.776100 0.380310 -0.554580
O41   O     O_R   0.216220 0.223880 0.619710 -0.574417
O42   O     O_R   0.783780 0.223880 0.380290 -0.571187
O43   O     O_R   0.716220 0.723880 0.619710 -0.574245
O44   O     O_R   0.283780 0.723880 0.380290 -0.571491
O45   O     O_R   0.579750 0.454880 0.430680 -0.556423
O46   O     O_R   0.420250 0.454880 0.569320 -0.533269
O47   O     O_R   0.079750 0.954880 0.430680 -0.556409
O48   O     O_R   0.920250 0.954880 0.569320 -0.533288
F1    F     F_    0.031432 0.236382 0.088123 -0.614507
F2    F     F_    0.968094 0.263283 0.911886 -0.643793
F3    F     F_    0.531898 0.739393 0.088149 -0.614624
F4    F     F_    0.467646 0.760274 0.911857 -0.644003
F5    F     F_    0.324157 0.306389 0.612545 -0.604266
F6    F     F_    0.669914 0.303465 0.393829 -0.605845
F7    F     F_    0.824122 0.806403 0.612584 -0.604479
F8    F     F_    0.169896 0.803458 0.393850 -0.605816
F9    F     F_    0.387331 0.369071 0.612353 -0.594823
F10   F     F_    0.606931 0.366346 0.393931 -0.600244
F11   F     F_    0.887299 0.869083 0.612390 -0.594891
F12   F     F_    0.106914 0.866339 0.393951 -0.600238
C129  C     C_3   0.482330 0.434093 0.296832 -0.767801
H13   H     H_    0.503942 0.460390 0.302573 0.248982
H14   H     H_    0.505382 0.402927 0.285268 0.252954
H15   H     H_    0.488350 0.441769 0.242837 0.227259
C130  C     C_3   0.526231 0.440958 0.696254 -0.714247
H16   H     H_    0.504834 0.466995 0.689671 0.269066
H17   H     H_    0.501116 0.410252 0.712739 0.239507
H18   H     H_    0.522877 0.450515 0.747399 0.228470
C131  C     C_3   0.982381 0.934051 0.296806 -0.767664
H19   H     H_    0.003991 0.960354 0.302541 0.248998
H20   H     H_    0.005417 0.902884 0.285289 0.252943
H21   H     H_    0.988425 0.941709 0.242786 0.227287
C132  C     C_3   0.026248 0.940969 0.696239 -0.714302
H22   H     H_    0.004851 0.967005 0.689655 0.269071
H23   H     H_    0.001130 0.910264 0.712734 0.239503
H24   H     H_    0.022900 0.950530 0.747378 0.228455
C133  C     C_3   0.318845 0.416439 0.407309 -0.801190
H25   H     H_    0.290001 0.390151 0.416652 0.255979
H26   H     H_    0.292908 0.434707 0.466571 0.223245
H27   H     H_    0.330054 0.438991 0.359454 0.227496
C134  C     C_3   0.690575 0.419447 0.578478 -0.800882
H28   H     H_    0.718803 0.392971 0.570262 0.256174
H29   H     H_    0.715924 0.435537 0.517597 0.219044
H30   H     H_    0.682151 0.443715 0.622575 0.229062
C135  C     C_3   0.818908 0.916418 0.407210 -0.801263
H31   H     H_    0.790061 0.890129 0.416563 0.255970
H32   H     H_    0.792966 0.934702 0.466456 0.223197
H33   H     H_    0.830141 0.938954 0.359323 0.227554
C136  C     C_3   0.190593 0.919453 0.578450 -0.800794
H34   H     H_    0.218821 0.892976 0.570233 0.256179
H35   H     H_    0.215940 0.935540 0.517568 0.219081
H36   H     H_    0.182175 0.943722 0.622541 0.229035
C137  C     C_3   0.410184 0.367160 0.302692 -0.796013
H37   H     H_    0.448874 0.350681 0.287551 0.228958
H38   H     H_    0.379224 0.341519 0.315785 0.215732
H39   H     H_    0.426492 0.385938 0.247931 0.231796
C138  C     C_3   0.597763 0.373679 0.691231 -0.800769
H40   H     H_    0.557244 0.357841 0.710818 0.226115
H41   H     H_    0.628066 0.347545 0.678742 0.227868
H42   H     H_    0.584327 0.394210 0.742886 0.233225
C139  C     C_3   0.910237 0.867117 0.302667 -0.795990
H43   H     H_    0.948912 0.850636 0.287565 0.228970
H44   H     H_    0.879274 0.841477 0.315763 0.215709
H45   H     H_    0.926567 0.885881 0.247881 0.231801
C140  C     C_3   0.097780 0.873690 0.691218 -0.800787
H46   H     H_    0.057258 0.857852 0.710812 0.226115
H47   H     H_    0.128082 0.847556 0.678729 0.227868
H48   H     H_    0.084348 0.894224 0.742867 0.233218
C141  C     C_3   0.537348 0.335128 0.905660 -0.857560
H49   H     H_    0.515321 0.365044 0.943528 0.241316
H50   H     H_    0.586520 0.339373 0.864610 0.238610
H51   H     H_    0.527254 0.332636 0.866608 0.237575
C142  C     C_3   0.445751 0.336585 0.091754 -0.853470
H52   H     H_    0.481343 0.358604 0.074883 0.232867
H53   H     H_    0.421862 0.352248 0.076553 0.246387
H54   H     H_    0.412621 0.332687 0.160013 0.234795
C143  C     C_3   0.037415 0.835134 0.905659 -0.857537
H55   H     H_    0.015408 0.865051 0.943527 0.241315
H56   H     H_    0.086590 0.839356 0.864615 0.238615
H57   H     H_    0.027324 0.832664 0.866602 0.237564
C144  C     C_3   0.945816 0.836590 0.091753 -0.853478
H58   H     H_    0.981424 0.858587 0.074885 0.232876
H59   H     H_    0.921941 0.852277 0.076549 0.246388
H60   H     H_    0.912680 0.832690 0.160012 0.234790
C145  C     C_3   0.118022 0.128320 0.640717 -0.736546
H61   H     H_    0.163179 0.121518 0.616529 0.232646
H62   H     H_    0.102783 0.160999 0.670351 0.207797
H63   H     H_    0.086436 0.104012 0.689521 0.276142
C146  C     C_3   0.742084 0.130223 0.642265 -0.737275
H64   H     H_    0.730999 0.163219 0.670075 0.203700
H65   H     H_    0.718128 0.124724 0.622120 0.234592
H66   H     H_    0.724952 0.106221 0.691461 0.278034
C147  C     C_3   0.617981 0.628346 0.640752 -0.735599
H67   H     H_    0.663131 0.621546 0.616588 0.232468
H68   H     H_    0.602740 0.661029 0.670371 0.208240
H69   H     H_    0.586386 0.604044 0.689563 0.276229
C148  C     C_3   0.242081 0.630212 0.642253 -0.737196
H70   H     H_    0.230989 0.663206 0.670071 0.203702
H71   H     H_    0.218132 0.624713 0.622098 0.234594
H72   H     H_    0.224949 0.606208 0.691445 0.278049
F13   F     F_    0.058707 0.063197 0.628496 -0.675812
F14   F     F_    0.812885 0.064473 0.630340 -0.650828
F15   F     F_    0.558667 0.563221 0.628534 -0.675697
F16   F     F_    0.312884 0.564464 0.630326 -0.650796
C149  C     C_3   0.208948 0.084697 0.308100 -0.733260
H73   H     H_    0.220274 0.072475 0.342822 0.250264
H74   H     H_    0.186180 0.058612 0.304182 0.245136
H75   H     H_    0.251210 0.092560 0.243734 0.257183
C150  C     C_3   0.007302 0.156910 0.430425 -0.754716
H76   H     H_    0.968059 0.167402 0.495202 0.261146
H77   H     H_    0.028205 0.128103 0.431968 0.221279
H78   H     H_    0.040919 0.183503 0.397613 0.272418
C151  C     C_3   0.708975 0.584657 0.308119 -0.733330
H79   H     H_    0.720283 0.572443 0.342866 0.250254
H80   H     H_    0.686204 0.558571 0.304208 0.245134
H81   H     H_    0.751247 0.592506 0.243752 0.257191
C152  C     C_3   0.507297 0.656912 0.430451 -0.754509
H82   H     H_    0.468051 0.667396 0.495232 0.261140
H83   H     H_    0.528205 0.628104 0.431984 0.221256
H84   H     H_    0.540908 0.683508 0.397651 0.272414
F17   F     F_    0.255339 0.155356 0.322970 -0.677802
F18   F     F_    0.941936 0.218212 0.429995 -0.636610
F19   F     F_    0.755373 0.655317 0.322975 -0.677802
F20   F     F_    0.441925 0.718216 0.430034 -0.636425
F21   F     F_    0.193705 0.202467 0.329450 -0.650833
F22   F     F_    0.974524 0.190095 0.308232 -0.637385
F23   F     F_    0.693779 0.702432 0.329375 -0.650817
F24   F     F_    0.474527 0.690112 0.308255 -0.638076
C153  C     C_3   0.125693 0.235434 0.911370 -0.660032
H85   H     H_    0.132140 0.230489 0.954096 0.281230
H86   H     H_    0.142850 0.206083 0.871346 0.220066
H87   H     H_    0.152791 0.264025 0.871914 0.237464
C154  C     C_3   0.873843 0.264312 0.088648 -0.664700
H88   H     H_    0.867392 0.269251 0.045925 0.279700
H89   H     H_    0.846716 0.235740 0.128147 0.227062
H90   H     H_    0.856720 0.293677 0.128631 0.228165
C155  C     C_3   0.626195 0.738690 0.911398 -0.658357
H91   H     H_    0.632809 0.734851 0.954134 0.281286
H92   H     H_    0.644518 0.709250 0.871369 0.220680
H93   H     H_    0.652153 0.767553 0.871948 0.237028
C156  C     C_3   0.373357 0.761065 0.088616 -0.665083
H94   H     H_    0.366740 0.764901 0.045883 0.279694
H95   H     H_    0.347369 0.732221 0.128107 0.226486
H96   H     H_    0.355068 0.790520 0.128606 0.228883

loop_
_geom_bond_atom_site_label_1
_geom_bond_atom_site_label_2
_ccdc_geom_bond_type
C51   C156  S    
C149  H74   S    
C24   C104  S    
C150  H76   S    
Cu2   O22   S    
C146  H66   S    
C65   C89   S    
Cu9   O6    S    
C39   F3    S    
Cu12  O7    S    
C150  H78   S    
C29   C33   S    
C144  H60   S    
C9    C13   A    
C64   C84   A    
C29   C149  S    
C11   C15   A    
C23   C103  S    
C12   C16   A    
C96   C140  S    
C70   C74   A    
C46   O22   A    
C109  H2    S    
C4    C12   S    
C95   C139  S    
C71   F7    S    
C137  H37   S    
Cu1   O21   S    
Cu2   Cu6   S    
C41   C49   A    
C129  H14   S    
C25   C29   S    
C115  C123  S    
C27   C31   S    
C105  O37   A    
C28   C32   S    
C62   C66   A    
C90   O34   A    
C156  H94   S    
C17   C21   A    
C89   O29   A    
C19   C23   A    
C133  H25   S    
C45   O21   A    
C78   C82   A    
C68   C72   A    
C141  H51   S    
C88   H8    S    
C93   C137  S    
C124  C127  T    
C5    C25   A    
Cu9   O45   S    
C143  H56   S    
C92   O32   A    
C8    C28   A    
C110  C114  A    
C139  H44   S    
C156  H96   S    
Cu12  O13   S    
C84   C88   S    
C104  O12   A    
Cu11  Cu12  S    
C56   C59   T    
Cu12  O48   S    
C147  H68   S    
C45   O25   A    
C66   C70   A    
C31   C151  S    
C68   C92   S    
C15   C147  S    
C3    C11   S    
C29   H9    S    
C149  H73   S    
C61   C65   A    
Cu6   O42   S    
C52   C155  S    
C38   F2    S    
C137  H39   S    
C140  H47   S    
C73   C77   A    
C49   C154  S    
C58   C106  S    
C75   C79   A    
Cu9   O16   S    
C42   C54   S    
C92   O36   A    
Cu2   O38   S    
C103  O15   A    
C37   C50   A    
C53   C58   T    
C99   O7    A    
C16   C148  S    
Cu11  O14   S    
Cu6   O34   S    
C111  C112  A    
C43   C51   A    
C132  H24   S    
C106  O42   A    
C17   F13   S    
C138  H40   S    
C19   F15   S    
C87   C131  S    
C73   F9    S    
C85   H5    S    
C133  H27   S    
C8    C36   S    
C141  H49   S    
Cu12  O10   S    
C136  H34   S    
C95   C135  S    
C154  H89   S    
C33   F17   S    
C72   F8    S    
C85   C93   S    
C40   F4    S    
C36   F20   S    
C5    C33   S    
C134  H28   S    
Cu4   O40   S    
C8    C12   A    
C76   F12   S    
C2    O2    A    
C145  H61   S    
Cu8   O36   S    
C155  H92   S    
Cu7   O35   S    
C132  H22   S    
C152  H83   S    
C14   C146  S    
C119  C143  S    
C30   C34   S    
C97   O45   A    
C64   C96   S    
C10   C14   A    
Cu9   O11   S    
C130  H16   S    
C59   C107  S    
C116  C120  A    
C87   C95   S    
C110  H1    S    
C62   C94   S    
C5    C9    A    
C131  H19   S    
C118  C142  S    
C31   H11   S    
C32   H12   S    
Cu8   O20   S    
Cu4   Cu8   S    
C153  H87   S    
C78   C97   S    
C148  H70   S    
Cu2   O2    S    
C142  H53   S    
C41   C53   S    
C42   C50   A    
C113  C117  A    
C100  O48   A    
C43   C55   S    
C26   C30   S    
C115  C119  A    
C80   C99   S    
C22   C26   A    
C106  O38   A    
C48   O28   A    
C91   O35   A    
C138  H42   S    
C4    O20   A    
C18   C22   A    
C89   O33   A    
C24   C28   A    
C139  H45   S    
C32   C36   S    
C47   C127  S    
C146  H65   S    
C40   C51   A    
C69   F5    S    
C13   C17   A    
C140  H48   S    
C122  C125  T    
C135  H32   S    
C61   C81   A    
C117  C118  A    
Cu1   O1    S    
C6    C26   A    
C132  H23   S    
C62   C82   A    
Cu4   O4    S    
C134  H30   S    
C96   C136  S    
C40   C44   A    
C113  C121  S    
Cu5   O41   S    
Cu6   O18   S    
C145  H63   S    
C107  O39   A    
C108  O40   A    
C55   C60   T    
C81   C85   S    
C48   O24   A    
C54   C57   T    
C83   C87   S    
C88   C96   S    
C91   O31   A    
C112  C116  A    
C80   C84   A    
C66   C90   S    
C38   C49   A    
C129  H13   S    
C130  H18   S    
C15   C19   A    
C75   F11   S    
C87   H7    S    
C112  H3    S    
Cu8   O44   S    
C131  H21   S    
C61   C93   S    
C30   H10   S    
C63   C95   S    
C148  H72   S    
C7    C27   A    
Cu4   O24   S    
C14   C18   A    
C21   C25   A    
Cu3   O31   S    
C98   O6    A    
C69   C73   A    
Cu7   O19   S    
C108  O44   A    
C60   C108  S    
C117  C141  S    
C156  H95   S    
C18   F14   S    
C143  H55   S    
C86   H6    S    
C150  H77   S    
C76   C80   A    
C79   C100  S    
Cu11  O9    S    
C1    C9    S    
C33   F21   S    
C34   F18   S    
C35   F23   S    
C82   C86   S    
C6    C34   S    
C63   C83   A    
C7    C11   A    
C147  H67   S    
C48   C128  S    
C44   C56   S    
C30   C150  S    
C77   C81   A    
C102  O10   A    
C67   C91   S    
Cu6   O26   S    
C101  O13   A    
C2    O18   A    
C4    O4    A    
Cu11  O8    S    
Cu3   O39   S    
C137  H38   S    
C20   F16   S    
C31   C35   S    
C70   F6    S    
C64   C68   A    
C129  H15   S    
C116  C124  S    
C6    C10   A    
C119  C120  A    
C94   C134  S    
C38   C42   A    
C153  H85   S    
C136  H36   S    
Cu3   O3    S    
C133  H26   S    
C36   F24   S    
C109  C110  A    
Cu4   O32   S    
C79   C83   A    
C155  H93   S    
Cu5   O25   S    
C139  H43   S    
C65   C69   A    
Cu3   O23   S    
C67   C71   A    
C154  H88   S    
Cu7   O43   S    
C151  H79   S    
C74   C78   A    
C143  H57   S    
C99   O47   A    
C37   F1    S    
C57   C105  S    
C155  H91   S    
C46   O26   A    
C72   C76   A    
C107  O43   A    
C13   C145  S    
C120  C144  S    
C152  H82   S    
C105  O41   A    
C74   F10   S    
C140  H46   S    
C147  H69   S    
Cu3   Cu7   S    
Cu11  O47   S    
C32   C152  S    
C47   O27   A    
C86   C94   S    
C144  H59   S    
C90   O30   A    
C45   C125  S    
C153  H86   S    
C23   C27   A    
C142  H52   S    
C16   C20   A    
C21   C101  S    
C39   C52   A    
C37   C41   A    
C3    O3    A    
C50   C153  S    
C63   C67   A    
C138  H41   S    
C98   O46   A    
C20   C24   A    
Cu2   O30   S    
C141  H50   S    
C39   C43   A    
C151  H80   S    
C146  H64   S    
Cu1   O37   S    
Cu10  O15   S    
C136  H35   S    
C86   C130  S    
C97   O5    A    
C154  H90   S    
C1    O1    A    
C85   C129  S    
C104  O16   A    
C100  O8    A    
C88   C132  S    
C151  H81   S    
C144  H58   S    
C77   C98   S    
C109  C113  A    
C134  H29   S    
C114  C118  A    
C111  H4    S    
Cu10  O46   S    
C145  H62   S    
C149  H75   S    
Cu1   Cu5   S    
C135  H33   S    
C2    C10   S    
C94   C138  S    
C34   F22   S    
Cu5   O17   S    
C35   F19   S    
C152  H84   S    
C93   C133  S    
Cu1   O29   S    
C7    C35   S    
C46   C126  S    
C44   C52   A    
C111  C115  A    
Cu5   O33   S    
C130  H17   S    
Cu9   Cu10  S    
Cu8   O28   S    
C103  O11   A    
C22   C102  S    
C101  O9    A    
Cu7   O27   S    
C121  C126  T    
C131  H20   S    
C71   C75   A    
Cu10  O5    S    
C3    O19   A    
C123  C128  T    
C1    O17   A    
C148  H71   S    
C142  H54   S    
C47   O23   A    
C114  C122  S    
C102  O14   A    
Cu10  O12   S    
C135  H31   S    
