data_mof_unit_40585.cif
_audit_creation_date              2013-03-05T16:08:07-0500
_audit_creation_method            fapswitch 2.2
_symmetry_space_group_name_H-M    P1
_symmetry_Int_Tables_number       1
_space_group_crystal_system       triclinic
_cell_length_a                    23.150803
_cell_length_b                    11.554301
_cell_length_c                    10.763459
_cell_angle_alpha                 89.968624
_cell_angle_beta                  89.976082
_cell_angle_gamma                 90.061441
_cell_volume                      2879.12979959

loop_
_atom_site_label
_atom_site_type_symbol
_atom_site_description
_atom_site_fract_x
_atom_site_fract_y
_atom_site_fract_z
_atom_type_partial_charge
O1    O     O_R   0.500000 0.334450 0.602530 -0.614827
O2    O     O_R   0.500000 0.665550 0.397470 -0.602044
O3    O     O_R   0.500000 0.665550 0.602530 -0.614678
O4    O     O_R   0.500000 0.334450 0.397470 -0.601953
C1    C     C_R   0.500019 0.281150 0.500031 0.896498
C2    C     C_R   0.499917 0.718850 0.499968 0.896141
O5    O     O_R   0.416150 0.500000 0.602560 -0.618493
O6    O     O_R   0.583850 0.500000 0.397440 -0.611098
O7    O     O_R   0.583850 0.500000 0.602560 -0.617864
O8    O     O_R   0.416150 0.500000 0.397440 -0.610050
C3    C     C_R   0.388510 0.494668 0.500179 0.892340
C4    C     C_R   0.611422 0.504853 0.500127 0.895184
Zn1   Zn    Zn3+2 0.500000 0.500000 0.636920 0.963641
Zn2   Zn    Zn3+2 0.500000 0.500000 0.363080 0.970492
C5    C     C_R   0.885335 0.621570 0.579625 0.494638
C6    C     C_R   0.114342 0.394538 0.594534 0.493977
C7    C     C_R   0.875514 0.421910 0.629385 0.547490
C8    C     C_R   0.124283 0.598343 0.617026 0.548103
N1    N     N_R   0.852514 0.524292 0.590006 -0.322560
N2    N     N_R   0.147288 0.492128 0.591968 -0.322498
C9    C     C_R   0.936200 0.409730 0.641294 -0.074201
C10   C     C_R   0.063577 0.611865 0.626848 -0.074656
C11   C     C_R   0.942532 0.621365 0.621702 -0.082379
C12   C     C_R   0.057218 0.399691 0.636697 -0.082072
C13   C     C_R   0.969636 0.513236 0.636075 -0.081207
C14   C     C_R   0.030130 0.508631 0.636248 -0.081133
C15   C     C_R   0.964630 0.300559 0.658456 0.159489
C16   C     C_R   0.035144 0.722165 0.628214 0.158165
C17   C     C_R   0.974062 0.724889 0.640187 0.170100
C18   C     C_R   0.025759 0.299227 0.669749 0.170154
O9    O     O_2   0.863456 0.715881 0.522451 -0.588582
O10   O     O_2   0.136026 0.294393 0.549874 -0.588120
O11   O     O_2   0.839259 0.333953 0.655167 -0.584357
O12   O     O_2   0.160509 0.688597 0.631035 -0.584186
C19   C     C_R   0.227460 0.534800 0.449742 0.110360
C20   C     C_R   0.772558 0.465107 0.454597 0.110572
C21   C     C_R   0.245223 0.422436 0.637819 0.099580
C22   C     C_R   0.754244 0.595873 0.628171 0.097010
C23   C     C_R   0.287399 0.537946 0.423997 0.062768
C24   C     C_R   0.712625 0.457116 0.430456 0.061973
C25   C     C_R   0.302761 0.407341 0.602039 0.108933
C26   C     C_R   0.696172 0.603352 0.593485 0.106602
C27   C     C_R   0.325505 0.477380 0.504878 -0.188492
C28   C     C_R   0.674153 0.523960 0.504271 -0.180254
C29   C     C_R   0.207298 0.483179 0.559788 0.221759
C30   C     C_R   0.792513 0.529020 0.557001 0.223181
C31   C     C_1   0.500085 0.161068 0.500112 -0.191406
C32   C     C_1   0.500069 0.838931 0.499958 -0.190717
C33   C     C_1   0.500145 0.059146 0.500117 0.003623
C34   C     C_1   0.500151 0.940852 0.500038 0.003458
N3    N     N_1   0.500000 0.500000 0.180630 -0.081938
N4    N     N_1   0.500000 0.500000 0.819370 -0.081006
C35   C     C_1   0.499996 0.500001 0.069721 0.028000
C36   C     C_1   0.499996 0.500000 0.930279 0.032769
C37   C     C_3   0.932254 0.185055 0.651430 -0.363162
C38   C     C_3   0.913941 0.157266 0.518303 -0.801834
H1    H     H_    0.887185 0.077444 0.517570 0.250395
H2    H     H_    0.888628 0.228507 0.476546 0.282324
H3    H     H_    0.952832 0.142433 0.459955 0.245015
H4    H     H_    0.958577 0.110655 0.681069 0.196945
H5    H     H_    0.895542 0.181984 0.717198 0.248406
C39   C     C_3   0.067360 0.835651 0.603059 -0.353695
C40   C     C_3   0.085661 0.845174 0.466988 -0.795795
H6    H     H_    0.111527 0.925167 0.453279 0.252826
H7    H     H_    0.111838 0.770063 0.437482 0.279678
H8    H     H_    0.046765 0.849818 0.406766 0.244990
H9    H     H_    0.040829 0.913102 0.620301 0.188433
H10   H     H_    0.104074 0.847798 0.667556 0.248040
C41   C     C_3   0.942738 0.833907 0.684745 -0.375294
C42   C     C_3   0.962504 0.870333 0.814807 -0.935409
H11   H     H_    0.954153 0.799230 0.882005 0.273354
H12   H     H_    0.009068 0.892281 0.817814 0.263710
H13   H     H_    0.937752 0.947695 0.844868 0.256800
H14   H     H_    0.947634 0.905443 0.616855 0.212376
H15   H     H_    0.895706 0.819906 0.694830 0.241163
C43   C     C_3   0.057212 0.196416 0.728695 -0.373592
C44   C     C_3   0.038395 0.177121 0.863572 -0.926567
H16   H     H_    0.049118 0.254638 0.920110 0.270552
H17   H     H_    0.991452 0.160183 0.871935 0.261522
H18   H     H_    0.061850 0.101585 0.902546 0.260335
H19   H     H_    0.051615 0.116972 0.672285 0.206426
H20   H     H_    0.104348 0.210665 0.734859 0.240237
N5    N     N_3   0.186042 0.587492 0.368339 -0.453336
H21   H     H_    0.187849 0.546293 0.282003 0.180252
H22   H     H_    0.196223 0.675085 0.357792 0.201857
N6    N     N_3   0.814245 0.405117 0.379909 -0.452532
H23   H     H_    0.811845 0.436260 0.288878 0.181467
H24   H     H_    0.804843 0.316640 0.381023 0.202546
N7    N     N_3   0.226652 0.380623 0.757106 -0.461784
H25   H     H_    0.207980 0.449147 0.806139 0.186465
H26   H     H_    0.195762 0.315860 0.745569 0.206458
N8    N     N_3   0.773147 0.651916 0.740194 -0.460563
H27   H     H_    0.793287 0.590636 0.797014 0.187933
H28   H     H_    0.802873 0.716696 0.718592 0.207814
C45   C     C_3   0.309798 0.609108 0.314716 -0.393372
C46   C     C_3   0.332800 0.726587 0.357265 -0.801442
H29   H     H_    0.368444 0.716541 0.425259 0.252226
H30   H     H_    0.349492 0.775330 0.275792 0.244674
H31   H     H_    0.297534 0.777627 0.400880 0.257810
H32   H     H_    0.343106 0.561079 0.262032 0.232104
H33   H     H_    0.275901 0.625131 0.244262 0.190592
C47   C     C_3   0.690464 0.373692 0.331545 -0.398820
C48   C     C_3   0.668570 0.261121 0.389454 -0.809925
H34   H     H_    0.703833 0.218359 0.442276 0.261872
H35   H     H_    0.631736 0.277354 0.452993 0.249655
H36   H     H_    0.653839 0.201542 0.314956 0.245931
H37   H     H_    0.656386 0.414301 0.274150 0.233041
H38   H     H_    0.724285 0.351139 0.262967 0.193817
C49   C     C_3   0.338246 0.313765 0.667096 -0.353323
C50   C     C_3   0.314192 0.192897 0.640659 -0.836140
H39   H     H_    0.270252 0.181905 0.679875 0.277793
H40   H     H_    0.312655 0.177309 0.538857 0.260588
H41   H     H_    0.342732 0.126796 0.683523 0.245811
H42   H     H_    0.383563 0.310827 0.635104 0.215134
H43   H     H_    0.339005 0.329742 0.768874 0.222953
C51   C     C_3   0.659295 0.698792 0.651298 -0.355051
C52   C     C_3   0.679283 0.818661 0.608832 -0.840207
H44   H     H_    0.723828 0.837493 0.640788 0.277843
H45   H     H_    0.677777 0.824518 0.505843 0.259410
H46   H     H_    0.650111 0.885643 0.647969 0.247031
H47   H     H_    0.613367 0.693459 0.624684 0.215000
H48   H     H_    0.661005 0.692991 0.754280 0.224011

loop_
_geom_bond_atom_site_label_1
_geom_bond_atom_site_label_2
_geom_bond_distance
_ccdc_geom_bond_type
C37   C38   1.528645 S    
C40   H7    1.105701 S    
C19   C23   1.415348 A    
C45   C46   1.528112 S    
O3    C2    1.263790 A    
N1    C30   1.435021 S    
C31   C33   1.177640 T    
C44   H16   1.111038 S    
C38   H1    1.110473 S    
C5    N1    1.360564 A    
C1    C31   1.387471 S    
C51   H48   1.111154 S    
C39   H9    1.101722 S    
O1    C1    1.263779 A    
C11   C17   1.414804 A    
C16   C17   1.420278 A    
C12   C14   1.406898 A    
C22   C26   1.398183 A    
C41   C42   1.532012 S    
C52   H45   1.111108 S    
C15   C37   1.531865 S    
C46   H31   1.111651 S    
C22   N8    1.437134 S    
C51   C52   1.529393 S    
O7    Zn1   1.975959 S    
C50   H39   1.108338 S    
Zn2   N3    1.963793 S    
C46   H30   1.110961 S    
C20   C30   1.405070 A    
C42   H11   1.111018 S    
N7    H26   1.042019 S    
N2    C29   1.435525 S    
O3    Zn1   1.948102 S    
C6    N2    1.360897 A    
C32   C34   1.177626 T    
C9    C15   1.435290 A    
C40   H8    1.111054 S    
C6    C12   1.399333 A    
C25   C49   1.528334 S    
C37   H4    1.101412 S    
C15   C18   1.420545 A    
C21   C25   1.397575 A    
C25   C27   1.422504 A    
O2    C2    1.263783 A    
C7    O11   1.346088 S    
N4    C36   1.193761 T    
C17   C41   1.531309 S    
C44   H17   1.107654 S    
C41   H14   1.108634 S    
C3    C27   1.472873 S    
C51   H47   1.102949 S    
N6    H24   1.045040 S    
C20   C24   1.414670 A    
C43   C44   1.531651 S    
O8    Zn2   1.975961 S    
C52   H46   1.110742 S    
C43   H20   1.105423 S    
C19   N5    1.434969 S    
C45   H32   1.106807 S    
C23   C27   1.423757 A    
C20   N6    1.435092 S    
C13   C14   1.401561 A    
C35   C36   1.500883 S    
C7    C9    1.417979 A    
N3    C35   1.193765 T    
O5    C3    1.275998 A    
C39   C40   1.528359 S    
Zn1   N4    1.963792 S    
C18   C43   1.531438 S    
N5    H21   1.045175 S    
C24   C28   1.422159 A    
O6    C4    1.277796 A    
C46   H29   1.109341 S    
C42   H13   1.110547 S    
N8    H28   1.042325 S    
C47   H37   1.106828 S    
C48   H35   1.109085 S    
C47   H38   1.107248 S    
C8    O12   1.346094 S    
C50   H41   1.110714 S    
C23   C45   1.525138 S    
C2    C32   1.387446 S    
C49   H42   1.104604 S    
C26   C51   1.527900 S    
N5    H22   1.045025 S    
C12   C18   1.414903 A    
O1    Zn1   1.948501 S    
C21   C29   1.403628 A    
C19   C29   1.405268 A    
C44   H18   1.110570 S    
C9    C13   1.424954 A    
O6    Zn2   1.976262 S    
N6    H23   1.045142 S    
O4    C1    1.263784 A    
C43   H19   1.108344 S    
C42   H12   1.107658 S    
C5    O9    1.350346 S    
C21   N7    1.437069 S    
C6    O10   1.350412 S    
C38   H3    1.111045 S    
C39   H10   1.106519 S    
C8    C10   1.418138 A    
C26   C28   1.422602 A    
C4    C28   1.469434 S    
C52   H44   1.108624 S    
C37   H5    1.106402 S    
C5    C11   1.399649 A    
N8    H27   1.045573 S    
C7    N1    1.365115 A    
C38   H2    1.106272 S    
C41   H15   1.105884 S    
C48   H36   1.110629 S    
C8    N2    1.365331 A    
C11   C13   1.407153 A    
O4    Zn2   1.948103 S    
C47   C48   1.527943 S    
O2    Zn2   1.948499 S    
O7    C4    1.274925 A    
C50   H40   1.111127 S    
C22   C30   1.403543 A    
O8    C3    1.278806 A    
C49   H43   1.111164 S    
C24   C47   1.525212 S    
C40   H6    1.110501 S    
O5    Zn1   1.976265 S    
C33   C34   1.366805 S    
C10   C14   1.424916 A    
C48   H34   1.111191 S    
C10   C16   1.435103 A    
N7    H25   1.045582 S    
C49   C50   1.529801 S    
C45   H33   1.107166 S    
C16   C39   1.531767 S    
