data_mof_unit_6110.cif
_audit_creation_date              2012-12-10T18:45:09-0500
_audit_creation_method            fapswitch 2.2
_symmetry_space_group_name_H-M    P1
_symmetry_Int_Tables_number       1
_space_group_crystal_system       triclinic
_cell_length_a                    10.626133
_cell_length_b                    9.908774
_cell_length_c                    10.696447
_cell_angle_alpha                 90.186707
_cell_angle_beta                  93.307844
_cell_angle_gamma                 91.02946
_cell_volume                      1124.18145765

loop_
_atom_site_label
_atom_site_type_symbol
_atom_type_description
_atom_site_fract_x
_atom_site_fract_y
_atom_site_fract_z
_atom_type_partial_charge
C1    C     C_R   0.260314 0.498740 0.499818 0.861890
C2    C     C_R   0.485848 0.500357 0.738658 0.869568
C3    C     C_R   0.581350 0.742918 0.108527 -0.268882
C4    C     C_R   0.429282 0.748274 0.888451 -0.283590
C5    C     C_R   0.561113 0.867444 0.047547 0.194254
C6    C     C_R   0.474488 0.871353 0.942034 0.179743
C7    C     C_R   0.470280 0.624493 0.938850 0.054567
C8    C     C_R   0.523103 0.623248 0.060315 0.058704
C9    C     C_R   0.517448 0.500521 0.126581 -0.107057
C10   C     C_R   0.467541 0.501665 0.871349 -0.109659
C11   C     C_R   0.493581 0.378438 0.062642 -0.213184
C12   C     C_R   0.739675 0.500552 0.498944 0.859608
C13   C     C_R   0.475160 0.378774 0.934706 -0.211800
C14   C     C_R   0.058409 0.417230 0.412897 -0.183455
C15   C     C_R   0.928902 0.419842 0.410964 -0.202244
C16   C     C_R   0.872140 0.500272 0.498148 -0.014749
C17   C     C_R   0.128057 0.495759 0.501480 0.017067
C18   C     C_3   0.646852 0.014487 0.223024 -0.790544
C19   C     C_3   0.326444 0.009555 0.811835 -0.801067
C20   C     C_R   0.715404 0.877523 0.618152 0.165169
C21   C     C_R   0.833273 0.924496 0.580451 -0.203532
C22   C     C_R   0.940168 0.921282 0.663096 -0.141685
C23   C     C_R   0.941953 0.574031 0.589346 -0.194107
C24   C     C_R   0.932721 0.865298 0.782005 -0.130959
C25   C     C_R   0.817659 0.813897 0.818837 -0.191316
C26   C     C_R   0.710160 0.821681 0.737676 -0.131929
C27   C     C_R   0.293038 0.860213 0.375568 0.162546
C28   C     C_R   0.177575 0.848630 0.431782 -0.142192
C29   C     C_R   0.070445 0.798018 0.363574 -0.126383
C30   C     C_R   0.078153 0.758844 0.238725 -0.126307
C31   C     C_R   0.192372 0.772925 0.181312 -0.156979
C32   C     C_R   0.298539 0.825520 0.249200 -0.108111
C33   C     C_R   0.071213 0.573041 0.590707 -0.200958
C34   C     C_R   0.596720 0.076182 0.556605 -0.109626
C35   C     C_R   0.402553 0.070889 0.443369 -0.118368
C36   C     C_R   0.599761 0.933396 0.555397 0.031121
C37   C     C_R   0.401511 0.927797 0.442879 0.012238
C38   C     C_R   0.509967 0.500248 0.260456 0.871471
H1    H     H_    0.490306 0.282580 0.110767 0.177076
H2    H     H_    0.325273 0.124804 0.397351 0.142242
H3    H     H_    0.626800 0.070512 0.033419 0.226387
H4    H     H_    0.749199 0.017463 0.250312 0.237957
H5    H     H_    0.600021 0.937908 0.280279 0.246046
H6    H     H_    0.606773 0.114047 0.244472 0.247278
H7    H     H_    0.520700 0.041831 0.841429 0.215127
H8    H     H_    0.307402 0.117844 0.794479 0.247117
H9    H     H_    0.248266 0.966317 0.864571 0.240694
H10   H     H_    0.330161 0.958295 0.719677 0.232043
H11   H     H_    0.839842 0.975304 0.491461 0.126246
H12   H     H_    0.468624 0.283110 0.885637 0.180004
H13   H     H_    0.027215 0.968167 0.637371 0.132008
H14   H     H_    0.015399 0.863388 0.845955 0.125951
H15   H     H_    0.810599 0.772752 0.911858 0.149838
H16   H     H_    0.621666 0.794726 0.771938 0.173634
H17   H     H_    0.172328 0.876760 0.528726 0.109061
H18   H     H_    0.981697 0.788092 0.407440 0.155206
H19   H     H_    0.995458 0.719028 0.186275 0.129248
H20   H     H_    0.198184 0.745537 0.083775 0.137568
H21   H     H_    0.383934 0.842937 0.203003 0.152045
H22   H     H_    0.645221 0.738467 0.190873 0.178211
H23   H     H_    0.369259 0.748689 0.803406 0.182860
H24   H     H_    0.104148 0.357092 0.344502 0.137247
H25   H     H_    0.873166 0.360810 0.341738 0.140140
H26   H     H_    0.895945 0.629125 0.659932 0.174462
H27   H     H_    0.126651 0.631569 0.660571 0.130784
H28   H     H_    0.672933 0.134885 0.602800 0.152256
N1    N     N_R   0.500000 0.857200 0.500000 -0.123283
N2    N     N_R   0.500000 0.142810 0.500000 -0.092277
N3    N     N_2   0.628957 0.986610 0.090034 -0.310467
N4    N     N_2   0.445591 0.997288 0.883393 -0.313280
O1    O     O_R   0.316770 0.614620 0.499990 -0.612227
O2    O     O_R   0.683230 0.614620 0.500010 -0.618817
O3    O     O_R   0.316800 0.385290 0.500000 -0.626654
O4    O     O_R   0.683200 0.385290 0.500000 -0.621120
O5    O     O_R   0.500010 0.614690 0.316770 -0.621153
O6    O     O_R   0.499990 0.614690 0.683230 -0.639747
O7    O     O_R   0.500040 0.385360 0.316770 -0.625120
O8    O     O_R   0.499960 0.385360 0.683230 -0.614130
Zn1   Zn    Zn3+2 0.500000 0.653120 0.500000 0.935941
Zn2   Zn    Zn3+2 0.500000 0.346880 0.500000 0.934333

loop_
_geom_bond_atom_site_label_1
_geom_bond_atom_site_label_2
_ccdc_geom_bond_type
C24   H14   S    
C7    C10   A    
N2    Zn2   S    
C12   O4    A    
O6    Zn1   S    
C34   H28   S    
C21   H11   S    
C19   H8    S    
C33   H27   S    
C7    C8    A    
C1    O1    A    
C31   H20   S    
C28   C29   A    
C35   C37   A    
C25   H15   S    
O2    Zn1   S    
C18   H4    S    
C30   C31   A    
O8    Zn2   S    
C15   C16   A    
C14   H24   S    
C30   H19   S    
C5    N3    S    
C12   C16   S    
C8    C9    A    
C23   C33   A    
C34   C36   A    
C3    H22   S    
C18   N3    S    
C12   O2    A    
O4    Zn2   S    
C21   C22   A    
C14   C17   A    
C17   C33   A    
C4    C7    A    
C26   H16   S    
O1    Zn1   S    
C28   H17   S    
C38   O5    A    
C36   N1    A    
H7    N4    S    
N1    Zn1   S    
C24   C25   A    
C4    C6    A    
C3    C8    A    
C34   N2    A    
C19   H10   S    
C25   C26   A    
C4    H23   S    
C29   C30   A    
C2    O8    A    
C18   H6    S    
C31   C32   A    
C11   H1    S    
C9    C11   A    
C23   H26   S    
C29   H18   S    
C16   C23   A    
C22   C24   A    
C2    C10   S    
C2    O6    A    
H3    N3    S    
O7    Zn2   S    
C6    N4    S    
C27   C32   A    
C3    C5    A    
C10   C13   A    
C38   O7    A    
C1    C17   S    
C1    O3    A    
C35   H2    S    
C18   H5    S    
C11   C13   A    
C5    C6    A    
C20   C26   A    
C35   N2    A    
C27   C37   S    
C37   N1    A    
C9    C38   S    
O3    Zn2   S    
C19   H9    S    
C13   H12   S    
C20   C36   S    
C20   C21   A    
C27   C28   A    
C15   H25   S    
C14   C15   A    
C19   N4    S    
C32   H21   S    
O5    Zn1   S    
C22   H13   S    
