data_mof_unit_36973.cif
_audit_creation_date              2012-12-10T17:53:24-0500
_audit_creation_method            fapswitch 2.2
_symmetry_space_group_name_H-M    P1
_symmetry_Int_Tables_number       1
_space_group_crystal_system       triclinic
_cell_length_a                    23.418806
_cell_length_b                    10.623204
_cell_length_c                    9.918106
_cell_angle_alpha                 89.9112
_cell_angle_beta                  90.004322
_cell_angle_gamma                 91.574213
_cell_volume                      2466.51949194

loop_
_atom_site_label
_atom_site_type_symbol
_atom_type_description
_atom_site_fract_x
_atom_site_fract_y
_atom_site_fract_z
_atom_type_partial_charge
C1    C     C_R   0.501360 0.260711 0.500124 0.855164
C2    C     C_R   0.122030 0.603089 0.523970 0.519564
C3    C     C_R   0.238091 0.487792 0.375991 -0.092545
C4    C     C_R   0.389389 0.498596 0.499977 0.857886
C5    C     C_R   0.297347 0.490451 0.376565 -0.210259
C6    C     C_R   0.327094 0.494286 0.499537 -0.049577
C7    C     C_R   0.296818 0.493314 0.621781 -0.211282
C8    C     C_R   0.237513 0.490654 0.620774 -0.081314
C9    C     C_R   0.208294 0.488734 0.497923 0.306861
C10   C     C_R   0.760510 0.440271 0.599896 -0.093597
C11   C     C_R   0.701381 0.443358 0.600658 -0.271580
C12   C     C_R   0.965992 0.275885 0.440365 -0.150508
C13   C     C_R   0.672594 0.510029 0.500444 -0.158829
C14   C     C_R   0.703960 0.578484 0.400898 0.422094
C15   C     C_R   0.763135 0.571472 0.399451 -0.091228
C16   C     C_R   0.501513 0.739392 0.499835 0.865796
C17   C     C_R   0.791299 0.503426 0.498781 0.213052
C18   C     C_R   0.598320 0.136791 0.618408 -0.171614
C19   C     C_R   0.644002 0.073791 0.674949 -0.113230
C20   C     C_R   0.644204 0.942781 0.674088 -0.099567
C21   C     C_R   0.598709 0.874366 0.616785 -0.195322
C22   C     C_R   0.551774 0.936924 0.560223 0.092233
C23   C     C_R   0.025322 0.274381 0.439182 -0.136976
C24   C     C_R   0.551618 0.068853 0.560858 0.103427
C25   C     C_R   0.505114 0.128584 0.500018 -0.091288
C26   C     C_R   0.461083 0.061966 0.435742 -0.200220
C27   C     C_R   0.461162 0.933353 0.435353 -0.173809
C28   C     C_R   0.610458 0.503703 0.499987 0.835499
C29   C     C_R   0.505312 0.871875 0.499222 -0.103374
C30   C     C_R   0.424234 0.336985 0.140033 -0.301991
C31   C     C_R   0.385976 0.257070 0.069826 0.466627
C32   C     C_R   0.386785 0.257294 0.930104 -0.182567
C33   C     C_R   0.424630 0.336516 0.860225 -0.268515
C34   C     C_R   0.057628 0.384869 0.465504 0.004383
C35   C     C_R   0.462800 0.419466 0.927827 0.175147
C36   C     C_R   0.462724 0.419576 0.072272 0.137569
C37   C     C_R   0.535658 0.576915 0.071367 -0.078980
C38   C     C_R   0.535625 0.576926 0.928275 -0.099400
C39   C     C_R   0.882344 0.610438 0.525324 0.542269
C40   C     C_R   0.878349 0.391287 0.470548 0.519770
C41   C     C_R   0.937936 0.387840 0.468159 -0.005145
C42   C     C_R   0.969975 0.499597 0.493872 -0.020925
C43   C     C_R   0.941989 0.611894 0.522488 -0.112004
C44   C     C_R   0.030024 0.498655 0.491941 -0.064635
C45   C     C_R   0.062237 0.610851 0.517328 -0.140840
C46   C     C_R   0.033283 0.724974 0.538803 0.455827
C47   C     C_R   0.973874 0.723196 0.545481 -0.153962
C48   C     C_R   0.117136 0.384285 0.466881 0.514768
H1    H     H_    0.942247 0.189027 0.420083 0.198941
H2    H     H_    0.564790 0.639811 0.124952 0.164987
H3    H     H_    0.045752 0.186254 0.418282 0.203454
H4    H     H_    0.422775 0.331735 0.246898 0.199162
H5    H     H_    0.357732 0.195386 0.874731 0.184175
H6    H     H_    0.422603 0.329917 0.753351 0.224472
H7    H     H_    0.564721 0.639869 0.874420 0.150739
H8    H     H_    0.952747 0.810906 0.564541 0.213287
H9    H     H_    0.215227 0.486506 0.281059 0.146083
H10   H     H_    0.319715 0.490272 0.280981 0.170860
H11   H     H_    0.318817 0.495386 0.717861 0.170450
H12   H     H_    0.678096 0.391975 0.678456 0.170477
H13   H     H_    0.214183 0.491240 0.715032 0.148130
H14   H     H_    0.782498 0.388559 0.677454 0.159623
H15   H     H_    0.642786 0.685865 0.343393 0.331316
H16   H     H_    0.350702 0.191053 0.233672 0.323501
H17   H     H_    0.088603 0.847572 0.475666 0.369629
H18   H     H_    0.787608 0.621902 0.322894 0.169052
H19   H     H_    0.426046 0.109845 0.388341 0.144083
H20   H     H_    0.600379 0.238458 0.618549 0.149173
H21   H     H_    0.679573 0.126826 0.718413 0.147495
H22   H     H_    0.679937 0.894000 0.716868 0.158521
H23   H     H_    0.601160 0.772877 0.615541 0.137354
H24   H     H_    0.426147 0.881367 0.387673 0.166049
N1    N     N_R   0.852064 0.501457 0.498751 -0.347179
N2    N     N_R   0.147624 0.491906 0.496589 -0.360946
N3    N     N_R   0.499460 0.498800 0.142780 -0.111716
N4    N     N_R   0.499440 0.498720 0.857170 -0.114543
O1    O     O_R   0.500000 0.316780 0.614690 -0.637125
O2    O     O_R   0.583850 0.500050 0.614640 -0.626419
O3    O     O_R   0.583840 0.500030 0.385310 -0.592632
O4    O     O_2   0.854653 0.716767 0.554777 -0.550731
O5    O     O_3   0.679053 0.655006 0.306316 -0.754958
O6    O     O_3   0.347403 0.177579 0.135053 -0.742833
O7    O     O_3   0.061088 0.840180 0.551337 -0.707810
O8    O     O_2   0.846810 0.285975 0.443909 -0.546158
O9    O     O_2   0.144542 0.276897 0.440529 -0.535919
O10   O     O_2   0.154681 0.704188 0.559710 -0.516853
O11   O     O_R   0.500000 0.316750 0.385360 -0.621801
O12   O     O_R   0.416160 0.499970 0.614690 -0.631969
O13   O     O_R   0.416150 0.499950 0.385360 -0.638512
O14   O     O_R   0.500000 0.683250 0.614640 -0.610040
O15   O     O_R   0.500000 0.683220 0.385310 -0.614992
Zn1   Zn    Zn3+2 0.500000 0.500020 0.653130 0.942491
Zn2   Zn    Zn3+2 0.500000 0.499980 0.346870 0.956779

loop_
_geom_bond_atom_site_label_1
_geom_bond_atom_site_label_2
_ccdc_geom_bond_type
C1    O11   A    
C1    C25   S    
O1    Zn1   S    
C16   O14   A    
C22   C29   A    
C27   C29   A    
C1    O1    A    
C41   C42   A    
C40   O8    S    
C35   C36   A    
C12   H1    S    
C7    C8    A    
C38   N4    A    
C45   C46   A    
C12   C23   A    
C26   C27   A    
C37   C38   A    
C31   O6    S    
C5    H10   S    
H15   O5    S    
C18   C24   A    
C26   H19   S    
O3    Zn2   S    
C5    C6    A    
H17   O7    S    
C10   C17   A    
C18   H20   S    
C40   N1    A    
C18   C19   A    
C28   O3    A    
O14   Zn1   S    
C38   H7    S    
O12   Zn1   S    
C8    C9    A    
C13   C28   S    
C28   O2    A    
C2    N2    A    
C8    H13   S    
C37   N3    A    
C13   C14   A    
C17   N1    S    
C20   H22   S    
C10   H14   S    
C42   C44   A    
C7    H11   S    
C2    C45   A    
C35   N4    A    
C48   N2    A    
C34   C44   A    
C24   C25   A    
C4    C6    S    
C39   C43   A    
O2    Zn1   S    
C16   C29   S    
C15   H18   S    
C12   C41   A    
C3    C9    A    
C36   N3    A    
O15   Zn2   S    
C23   H3    S    
C31   C32   A    
C23   C34   A    
H16   O6    S    
N4    Zn1   S    
C3    H9    S    
C40   C41   A    
C21   H23   S    
C22   C24   A    
C19   H21   S    
C34   C48   A    
C42   C43   A    
C11   H12   S    
C32   H5    S    
C44   C45   A    
N3    Zn2   S    
C4    O13   A    
C33   H6    S    
C15   C17   A    
C30   H4    S    
C46   C47   A    
C14   C15   A    
C3    C5    A    
C6    C7    A    
C4    O12   A    
C30   C36   A    
C32   C33   A    
C19   C20   A    
C25   C26   A    
C39   O4    S    
C37   H2    S    
C11   C13   A    
C30   C31   A    
O11   Zn2   S    
C33   C35   A    
C2    O10   S    
C39   N1    A    
O13   Zn2   S    
C10   C11   A    
C46   O7    S    
C20   C21   A    
C16   O15   A    
C9    N2    S    
C48   O9    S    
C14   O5    S    
C21   C22   A    
C43   C47   A    
C27   H24   S    
C47   H8    S    
