data_mof_unit_29780.cif
_audit_creation_date              2013-03-05T16:09:24-0500
_audit_creation_method            fapswitch 2.2
_symmetry_space_group_name_H-M    P1
_symmetry_Int_Tables_number       1
_space_group_crystal_system       triclinic
_cell_length_a                    10.632126
_cell_length_b                    9.921514
_cell_length_c                    10.741443
_cell_angle_alpha                 90.05382
_cell_angle_beta                  91.400363
_cell_angle_gamma                 89.531463
_cell_volume                      1132.703714

loop_
_atom_site_label
_atom_site_type_symbol
_atom_site_description
_atom_site_fract_x
_atom_site_fract_y
_atom_site_fract_z
_atom_type_partial_charge
O1    O     O_R   0.316770 0.614620 0.499990 -0.596179
O2    O     O_R   0.683230 0.614620 0.500010 -0.607531
O3    O     O_R   0.316800 0.385290 0.500000 -0.634369
O4    O     O_R   0.683200 0.385290 0.500000 -0.607796
C1    C     C_R   0.260694 0.500534 0.499818 0.967005
C2    C     C_R   0.739229 0.499235 0.499593 0.941520
O5    O     O_R   0.500000 0.614630 0.319080 -0.613488
O6    O     O_R   0.500000 0.614630 0.680920 -0.623080
O7    O     O_R   0.500030 0.385300 0.319080 -0.617009
O8    O     O_R   0.499970 0.385300 0.680920 -0.635523
C3    C     C_R   0.499174 0.499776 0.262742 1.012013
C4    C     C_R   0.504189 0.499894 0.737240 0.883326
Zn1   Zn    Zn3+2 0.500000 0.653120 0.500000 0.998722
Zn2   Zn    Zn3+2 0.500000 0.346880 0.500000 1.001982
C5    C     C_2   0.510346 0.385886 0.933314 -0.101447
C6    C     C_2   0.517836 0.387148 0.067515 -0.064279
C7    C     C_2   0.519845 0.500151 0.868892 -0.284620
C8    C     C_2   0.491526 0.499390 0.130735 -0.230410
H1    H     H_    0.496312 0.289177 0.887686 0.205096
H2    H     H_    0.542145 0.293136 0.114436 0.209353
H3    H     H_    0.542629 0.596153 0.911710 0.167778
H4    H     H_    0.460234 0.592504 0.086876 0.158534
C9    C     C_R   0.062625 0.463679 0.392168 0.201505
C10   C     C_R   0.932539 0.460472 0.393001 0.212057
C11   C     C_R   0.871626 0.496723 0.502518 -0.403059
C12   C     C_R   0.128239 0.502120 0.501269 -0.403966
C13   C     C_R   0.937373 0.534910 0.612359 0.435076
C14   C     C_R   0.066987 0.537944 0.611724 0.436520
C15   C     C_R   0.571310 0.069198 0.586088 0.441600
C16   C     C_R   0.428867 0.070163 0.413759 0.434122
C17   C     C_R   0.569457 0.926599 0.585977 -0.057393
C18   C     C_R   0.430626 0.927577 0.413987 -0.054769
H5    H     H_    0.625465 0.871246 0.654482 0.187792
H6    H     H_    0.374732 0.873034 0.345415 0.192086
N1    N     N_R   0.500000 0.857200 0.500000 -0.165638
N2    N     N_R   0.500000 0.142810 0.500000 -0.205302
N3    N     N_R   0.127947 0.428720 0.280860 0.239116
O9    O     O_R   0.102396 0.317086 0.222177 -0.277008
O10   O     O_R   0.205939 0.513270 0.232756 -0.389588
N4    N     N_R   0.862213 0.428915 0.280893 0.233564
O11   O     O_R   0.876000 0.501017 0.181119 -0.304967
O12   O     O_R   0.793398 0.321186 0.275068 -0.348157
O13   O     O_3   0.879452 0.568652 0.722417 -0.653228
H7    H     H_    0.789120 0.545965 0.717846 0.318144
O14   O     O_3   0.129195 0.573705 0.721599 -0.652659
H8    H     H_    0.220979 0.560747 0.714835 0.326018
O15   O     O_3   0.646976 0.129192 0.675270 -0.741673
H9    H     H_    0.657182 0.224096 0.652918 0.386310
O16   O     O_3   0.353662 0.131028 0.324049 -0.715599
H10   H     H_    0.344084 0.226405 0.345494 0.399492

loop_
_geom_bond_atom_site_label_1
_geom_bond_atom_site_label_2
_geom_bond_distance
_ccdc_geom_bond_type
C4    C7    1.419844 S    
C16   C18   1.414650 A    
O7    Zn2   1.980733 S    
C17   H5    1.082433 S    
C3    C8    1.418295 S    
N3    O9    1.301194 A    
C9    N3    1.438045 S    
O6    C4    1.289560 A    
C11   C13   1.409755 A    
C12   C14   1.411127 A    
O15   H9    0.979485 S    
C16   N2    1.386731 A    
O13   H7    0.988287 S    
N4    O12   1.300791 A    
N3    O10   1.300546 A    
C6    C8    1.335024 D    
O2    C2    1.286096 A    
O14   H8    0.987676 S    
O5    C3    1.289735 A    
O7    C3    1.287293 A    
C15   N2    1.386102 A    
O6    Zn1   1.980858 S    
O3    Zn2   1.981674 S    
O8    C4    1.287965 A    
C15   O15   1.374136 S    
O1    C1    1.283612 A    
O4    C2    1.282221 A    
C6    H2    1.086909 S    
C10   N4    1.437470 S    
C16   O16   1.374088 S    
Zn1   N1    2.024783 S    
O4    Zn2   1.987791 S    
C17   N1    1.358714 A    
C14   O14   1.386048 S    
C2    C11   1.407256 S    
O1    Zn1   1.988280 S    
C9    C10   1.383960 A    
C5    C6    1.441817 S    
C5    H1    1.086738 S    
C18   N1    1.358183 A    
C13   O13   1.385766 S    
O5    Zn1   1.980155 S    
C10   C11   1.401885 A    
C15   C17   1.415094 A    
O16   H10   0.978798 S    
O8    Zn2   1.980028 S    
C9    C12   1.403231 A    
C13   C14   1.378829 A    
C5    C7    1.334562 D    
O2    Zn1   1.982148 S    
N4    O11   1.301017 A    
Zn2   N2    2.024684 S    
C8    H4    1.083623 S    
C7    H3    1.083953 S    
C1    C12   1.408697 S    
O3    C1    1.285302 A    
C18   H6    1.082423 S    
