data_mof_unit_10996.cif
_audit_creation_date              2012-12-10T17:43:33-0500
_audit_creation_method            fapswitch 2.2
_symmetry_space_group_name_H-M    P1
_symmetry_Int_Tables_number       1
_space_group_crystal_system       triclinic
_cell_length_a                    14.994518
_cell_length_b                    10.701184
_cell_length_c                    9.860692
_cell_angle_alpha                 89.201315
_cell_angle_beta                  90.037121
_cell_angle_gamma                 91.907988
_cell_volume                      1581.20684207

loop_
_atom_site_label
_atom_site_type_symbol
_atom_type_description
_atom_site_fract_x
_atom_site_fract_y
_atom_site_fract_z
_atom_type_partial_charge
C1    C     C_R   0.510054 0.260963 0.501851 0.886834
C2    C     C_R   0.184963 0.501527 0.623427 -0.269315
C3    C     C_R   0.230518 0.492809 0.500360 -0.067467
C4    C     C_R   0.326547 0.498372 0.500032 0.869026
C5    C     C_R   0.184380 0.477463 0.378031 -0.268222
C6    C     C_R   0.526846 0.111592 0.762095 -0.145881
C7    C     C_R   0.494039 0.050203 0.878277 -0.144671
C8    C     C_R   0.445320 0.938234 0.866410 -0.154851
C9    C     C_R   0.437257 0.881970 0.740165 -0.141473
C10   C     C_R   0.478720 0.937567 0.623786 0.098632
C11   C     C_R   0.511213 0.060869 0.631605 0.049557
C12   C     C_R   0.906394 0.471842 0.377846 0.121837
C13   C     C_R   0.524981 0.128296 0.507949 -0.271753
C14   C     C_R   0.536737 0.064736 0.385483 0.446945
C15   C     C_R   0.520189 0.937836 0.383359 -0.287288
C16   C     C_R   0.493745 0.739955 0.499655 0.915285
C17   C     C_R   0.491353 0.873930 0.500712 -0.215380
C18   C     C_R   0.383066 0.335127 0.142594 -0.082528
C19   C     C_R   0.325423 0.254121 0.073123 -0.207183
C20   C     C_R   0.325468 0.254288 0.932824 -0.198272
C21   C     C_R   0.383311 0.335261 0.861403 -0.134633
C22   C     C_R   0.442766 0.418384 0.928638 0.132612
C23   C     C_R   0.953989 0.509017 0.747269 -0.225714
C24   C     C_R   0.442705 0.418402 0.073370 0.067739
C25   C     C_R   0.555360 0.579495 0.072278 0.509721
C26   C     C_R   0.554195 0.579177 0.926590 -0.279190
C27   C     C_R   0.673371 0.498555 0.500059 0.885552
C28   C     C_R   0.814238 0.474987 0.378493 -0.291798
C29   C     C_R   0.769055 0.492066 0.500550 -0.080330
C30   C     C_R   0.815179 0.501823 0.623475 -0.262367
C31   C     C_R   0.907234 0.497744 0.624876 0.119946
C32   C     C_R   0.953180 0.484006 0.501428 0.063113
C33   C     C_3   0.684073 0.710545 0.080649 0.055901
C34   C     C_R   0.046620 0.508841 0.747259 -0.220060
C35   C     C_3   0.745285 0.775156 0.182859 -0.804024
C36   C     C_3   0.651119 0.158821 0.266740 0.139408
C37   C     C_3   0.675615 0.229349 0.136298 -0.827776
C38   C     C_R   0.092711 0.497773 0.624815 0.119097
C39   C     C_R   0.045970 0.484358 0.501349 0.059126
C40   C     C_R   0.092039 0.473164 0.377601 0.119974
C41   C     C_R   0.045165 0.459368 0.255549 -0.220747
C42   C     C_R   0.952448 0.458566 0.255694 -0.226195
H1    H     H_    0.777941 0.465703 0.283774 0.171395
H2    H     H_    0.379564 0.329564 0.753971 0.210121
H3    H     H_    0.779712 0.514054 0.717976 0.156822
H4    H     H_    0.595983 0.643462 0.867550 0.154619
H5    H     H_    0.919004 0.519061 0.842473 0.139117
H6    H     H_    0.082182 0.518669 0.842466 0.143880
H7    H     H_    0.221100 0.512642 0.718074 0.164968
H8    H     H_    0.220108 0.469339 0.283113 0.162028
H9    H     H_    0.080174 0.450337 0.160218 0.144428
H10   H     H_    0.916847 0.449001 0.160484 0.140345
H11   H     H_    0.665731 0.781732 0.003164 0.148730
H12   H     H_    0.566181 0.196845 0.776507 0.166099
H13   H     H_    0.721382 0.634072 0.033228 0.123959
H14   H     H_    0.765901 0.707447 0.262090 0.261167
H15   H     H_    0.805737 0.814660 0.130794 0.204077
H16   H     H_    0.709979 0.851953 0.232072 0.245837
H17   H     H_    0.691723 0.073761 0.273455 0.121622
H18   H     H_    0.668419 0.220776 0.353399 0.129538
H19   H     H_    0.636394 0.315255 0.127261 0.258307
H20   H     H_    0.747755 0.256427 0.137049 0.197658
H21   H     H_    0.661514 0.169272 0.047397 0.241408
H22   H     H_    0.504251 0.091336 0.976980 0.190252
H23   H     H_    0.415873 0.893230 0.955429 0.146946
H24   H     H_    0.398078 0.795482 0.734904 0.157809
H25   H     H_    0.531349 0.889455 0.289313 0.212163
H26   H     H_    0.378269 0.330058 0.250089 0.200335
H27   H     H_    0.280296 0.191104 0.128661 0.148930
H28   H     H_    0.280629 0.191092 0.878812 0.155528
N1    N     N_R   0.499150 0.498800 0.142780 -0.157592
N2    N     N_R   0.499120 0.498720 0.857170 -0.135174
O1    O     O_R   0.500000 0.316780 0.614690 -0.656765
O2    O     O_3   0.559117 0.125748 0.264862 -0.601450
O3    O     O_R   0.499990 0.316750 0.385360 -0.591755
O4    O     O_R   0.367850 0.499980 0.614680 -0.649629
O5    O     O_R   0.367840 0.499960 0.385350 -0.652180
O6    O     O_R   0.500010 0.683250 0.614640 -0.625712
O7    O     O_R   0.500000 0.683220 0.385310 -0.568853
O8    O     O_R   0.632160 0.500040 0.614650 -0.631336
O9    O     O_R   0.632150 0.500020 0.385320 -0.586891
O10   O     O_3   0.606968 0.663413 0.148515 -0.575343
Zn1   Zn    Zn3+2 0.500010 0.500020 0.653130 0.916136
Zn2   Zn    Zn3+2 0.499990 0.499980 0.346870 0.985273

loop_
_geom_bond_atom_site_label_1
_geom_bond_atom_site_label_2
_ccdc_geom_bond_type
C33   H13   S    
C27   C29   S    
C26   N2    A    
C41   C42   A    
C30   H3    S    
C19   C20   A    
C36   H17   S    
C37   H20   S    
C7    C8    A    
C12   C28   A    
C35   H16   S    
C18   C24   A    
C14   O2    S    
C36   C37   S    
O7    Zn2   S    
O3    Zn2   S    
C10   C17   A    
C18   H26   S    
C18   C19   A    
C32   C39   A    
C9    H24   S    
C12   C42   A    
O6    Zn1   S    
C8    C9    A    
C25   N1    A    
C33   O10   S    
C8    H23   S    
C21   C22   A    
C12   C32   A    
C20   H28   S    
C6    H12   S    
O8    Zn1   S    
O4    Zn1   S    
C22   N2    A    
C37   H21   S    
C33   H11   S    
C23   H5    S    
C1    O3    A    
C27   O9    A    
C27   O8    A    
C39   C40   A    
C16   C17   S    
O5    Zn2   S    
C3    C5    A    
C25   C26   A    
C23   C31   A    
C29   C30   A    
C2    H7    S    
C21   H2    S    
C2    C38   A    
C31   C32   A    
C30   C31   A    
C23   C34   A    
C15   H25   S    
C36   O2    S    
C40   C41   A    
C25   O10   S    
C22   C24   A    
C5    H8    S    
C19   H27   S    
C1    C13   S    
C3    C4    S    
C6    C11   A    
O9    Zn2   S    
N1    Zn2   S    
C9    C10   A    
C15   C17   A    
C28   C29   A    
C35   H14   S    
C34   C38   A    
C36   H18   S    
C37   H19   S    
C6    C7    A    
C28   H1    S    
C35   H15   S    
C16   O7    A    
C1    O1    A    
C2    C3    A    
C4    O5    A    
C11   C13   A    
C38   C39   A    
C33   C35   S    
O1    Zn1   S    
C16   O6    A    
C7    H22   S    
C4    O4    A    
N2    Zn1   S    
C10   C11   A    
C26   H4    S    
C34   H6    S    
C20   C21   A    
C5    C40   A    
C14   C15   A    
C13   C14   A    
C41   H9    S    
C24   N1    A    
C42   H10   S    
