data_mof_unit_8773.cif
_audit_creation_date              2012-12-11T14:49:26-0500
_audit_creation_method            fapswitch 2.2
_symmetry_space_group_name_H-M    P1
_symmetry_Int_Tables_number       1
_space_group_crystal_system       triclinic
_cell_length_a                    16.930917
_cell_length_b                    16.734673
_cell_length_c                    19.511883
_cell_angle_alpha                 117.753288
_cell_angle_beta                  63.115231
_cell_angle_gamma                 100.386712
_cell_volume                      4360.39625576

loop_
_atom_site_label
_atom_site_type_symbol
_atom_type_description
_atom_site_fract_x
_atom_site_fract_y
_atom_site_fract_z
_atom_type_partial_charge
C1    C     C_R   0.034293 0.760862 0.017803 -0.079193
C2    C     C_R   0.772274 0.431244 0.234444 -0.219724
C3    C     C_R   0.724725 0.544206 0.011453 -0.064949
C4    C     C_R   0.981173 0.760135 0.257215 0.061430
C5    C     C_R   0.249712 0.569987 0.011480 -0.147922
C6    C     C_R   0.912747 0.268656 0.838705 0.013599
C7    C     C_R   0.170526 0.455686 0.751767 -0.036901
C8    C     C_R   0.049268 0.305688 0.052327 0.368622
C9    C     C_R   0.970461 0.238358 0.978662 0.413453
C10   C     C_R   0.251348 0.529703 0.826711 -0.010672
C11   C     C_R   0.178332 0.504978 0.097911 0.528712
C12   C     C_R   0.771952 0.409674 0.157935 0.433649
C13   C     C_R   0.983325 0.343881 0.761731 -0.116768
C14   C     C_R   0.255109 0.549973 0.070229 -0.043952
C15   C     C_R   0.928648 0.272601 0.764431 0.010326
C16   C     C_R   0.255860 0.472957 0.745613 0.162437
C17   C     C_R   0.024354 0.221437 0.006770 0.002616
C18   C     C_R   0.840326 0.142099 0.714392 -0.072946
C19   C     C_R   0.887174 0.217458 0.705787 0.063560
C20   C     C_R   0.905527 0.230468 0.634000 -0.141855
C21   C     C_R   0.894690 0.159787 0.563780 0.083202
C22   C     C_R   0.864945 0.076708 0.566778 0.034951
C23   C     C_R   0.806548 0.557984 0.956211 -0.190040
C24   C     C_R   0.831159 0.069824 0.644434 -0.084510
C25   C     C_R   0.922915 0.167214 0.487586 -0.216626
C26   C     C_R   0.932208 0.090315 0.411916 0.481906
C27   C     C_R   0.916915 0.004552 0.412032 0.019982
C28   C     C_R   0.879412 0.998528 0.490557 -0.078562
C29   C     C_R   0.866683 0.913757 0.492351 -0.205308
C30   C     C_R   0.816238 0.908899 0.571028 0.442951
C31   C     C_R   0.798195 0.987534 0.647601 0.361832
C32   C     C_R   0.943083 0.924608 0.336019 -0.186799
C33   C     C_R   0.945449 0.842223 0.337731 -0.067219
C34   C     C_R   0.959700 0.673610 0.248609 0.051543
C35   C     C_R   0.912503 0.838318 0.416726 0.483962
C36   C     C_R   0.411173 0.411138 0.650656 0.429816
C37   C     C_R   0.333547 0.447815 0.664905 -0.210251
C38   C     C_R   0.327578 0.459433 0.600551 0.433862
C39   C     C_R   0.394751 0.423409 0.518159 -0.168089
C40   C     C_R   0.477481 0.400079 0.507153 -0.079554
C41   C     C_R   0.486166 0.393460 0.573045 -0.037059
C42   C     C_R   0.384860 0.416341 0.447390 0.562845
C43   C     C_R   0.459532 0.405221 0.373156 -0.235561
C44   C     C_R   0.542993 0.398989 0.368207 0.034681
C45   C     C_R   0.737710 0.477992 0.030098 0.442714
C46   C     C_R   0.552740 0.390502 0.432336 0.068037
C47   C     C_R   0.638025 0.379608 0.424205 -0.045085
C48   C     C_R   0.645697 0.366136 0.487031 0.454810
C49   C     C_R   0.569943 0.371947 0.560221 -0.169962
C50   C     C_R   0.616648 0.406830 0.302188 -0.100304
C51   C     C_R   0.700997 0.406637 0.298298 0.118924
C52   C     C_R   0.712623 0.387745 0.355967 -0.097323
C53   C     C_R   0.640687 0.589504 0.041793 0.118497
C54   C     C_R   0.324366 0.581073 0.102531 0.075940
C55   C     C_R   0.407392 0.560798 0.168029 0.465072
C56   C     C_R   0.036798 0.753129 0.175669 -0.142579
C57   C     C_R   0.331045 0.548863 0.154745 -0.155136
C58   C     C_R   0.393226 0.631442 0.068960 -0.205447
C59   C     C_R   0.473841 0.632650 0.071684 0.112215
C60   C     C_R   0.481850 0.596097 0.120628 -0.011447
C61   C     C_R   0.566117 0.584043 0.111057 -0.115999
C62   C     C_R   0.632509 0.633483 0.999006 -0.143244
C63   C     C_R   0.549090 0.658477 0.016678 -0.131671
C64   C     C_R   0.824762 0.191447 0.181597 0.154806
C65   C     C_R   0.942916 0.865703 0.014129 -0.011731
C66   C     C_R   0.809784 0.946527 0.056886 -0.116939
C67   C     C_R   0.843957 0.484667 0.238467 0.389789
C68   C     C_R   0.857836 0.866064 0.018116 -0.197600
C69   C     C_R   0.981573 0.949763 0.046395 0.409281
C70   C     C_R   0.930387 0.031454 0.090930 -0.000637
C71   C     C_R   0.844043 0.029068 0.095505 0.092230
C72   C     C_R   0.792510 0.109345 0.139737 -0.104450
C73   C     C_R   0.908766 0.194541 0.178991 -0.164440
C74   C     C_R   0.961966 0.115615 0.133146 -0.012918
C75   C     C_R   0.959655 0.692087 0.938259 -0.110870
C76   C     C_R   0.983040 0.777036 0.986087 0.126193
H1    H     H_    0.858234 0.235262 0.869931 0.184266
H2    H     H_    0.150396 0.414917 0.700580 0.137259
H3    H     H_    0.305720 0.558352 0.844225 0.139135
H4    H     H_    0.998371 0.375415 0.720091 0.123195
H5    H     H_    0.821617 0.134051 0.771373 0.184439
H6    H     H_    0.936600 0.291034 0.628692 0.136660
H7    H     H_    0.942523 0.231798 0.485777 0.207593
H8    H     H_    0.452512 0.404776 0.320406 0.223253
H9    H     H_    0.819336 0.598910 0.923663 0.124279
H10   H     H_    0.578269 0.364156 0.608610 0.222830
H11   H     H_    0.689194 0.643785 0.948403 0.131962
H12   H     H_    0.543604 0.687749 0.979704 0.147524
H13   H     H_    0.389678 0.659620 0.030633 0.137891
H14   H     H_    0.726759 0.108592 0.143124 0.158573
H15   H     H_    0.932855 0.258620 0.212185 0.210790
H16   H     H_    0.743958 0.943819 0.059769 0.151285
H17   H     H_    0.826130 0.803472 0.994193 0.138352
H18   H     H_    0.069776 0.807763 0.160301 0.131291
H19   H     H_    0.929380 0.678692 0.896023 0.118412
H20   H     H_    0.287960 0.617502 0.987287 0.126205
N1    N     N_R   0.036080 0.671900 0.995420 -0.059128
N2    N     N_R   0.954660 0.334720 0.880230 -0.052681
N3    N     N_R   0.116260 0.502360 0.832930 -0.054738
N4    N     N_R   0.012950 0.371090 0.051890 -0.122661
N5    N     N_R   0.963920 0.328100 0.004580 -0.122134
N6    N     N_R   0.165290 0.545350 0.880240 -0.062158
N7    N     N_R   0.132570 0.490700 0.051900 -0.089256
N8    N     N_R   0.996640 0.382750 0.832930 -0.058467
N9    N     N_R   0.834710 0.454650 0.119760 -0.127373
N10   N     N_R   0.867430 0.509300 0.948100 -0.067944
N11   N     N_R   0.003360 0.617250 0.167070 -0.050603
N12   N     N_R   0.825450 0.461270 0.995400 -0.084156
N13   N     N_R   0.045340 0.665280 0.119770 -0.063822
N14   N     N_R   0.883740 0.497640 0.167070 -0.130291
N15   N     N_R   0.987050 0.628910 0.948110 -0.048830
N16   N     N_R   0.174550 0.538730 0.004600 -0.077369
Ni1   Ni    Ni4+2 0.104370 0.604370 0.000010 0.232399
Ni2   Ni    Ni4+2 0.895630 0.395630 0.999990 0.302137
Ni3   Ni    Ni4+2 0.991920 0.505780 0.891500 0.238465
Ni4   Ni    Ni4+2 0.008080 0.494220 0.108500 0.327279
H21   H     H_    0.068134 0.810102 0.053467 0.158675
Cl1   Cl    Cl    0.110469 0.319164 0.108605 -0.511318
Cl2   Cl    Cl    0.910295 0.153669 0.929606 -0.555985
Cl3   Cl    Cl    0.120667 0.525851 0.206183 -0.472862
Cl4   Cl    Cl    0.743931 0.300214 0.099847 -0.545049
Cl5   Cl    Cl    0.972184 0.103917 0.317501 -0.586427
H22   H     H_    0.968191 0.926821 0.275199 0.185987
Cl6   Cl    Cl    0.955793 0.754920 0.424213 -0.457697
Cl7   Cl    Cl    0.769089 0.806750 0.574805 -0.420882
Cl8   Cl    Cl    0.739595 0.980688 0.746220 -0.461253
Cl9   Cl    Cl    0.414512 0.390315 0.730459 -0.628807
Cl10  Cl    Cl    0.248930 0.539862 0.629113 -0.520740
Cl11  Cl    Cl    0.281550 0.412221 0.444315 -0.450233
H23   H     H_    0.607239 0.420358 0.257045 0.181983
H24   H     H_    0.778610 0.381898 0.348862 0.219620
Cl12  Cl    Cl    0.748929 0.345135 0.478507 -0.555831
H25   H     H_    0.573663 0.560947 0.151043 0.197056
Cl13  Cl    Cl    0.411318 0.515760 0.232265 -0.529234
H26   H     H_    0.280818 0.508280 0.180446 0.232631
H27   H     H_    0.912212 0.654269 0.297103 0.182517
H28   H     H_    0.026774 0.121167 0.132770 0.232392
Cl14  Cl    Cl    0.094970 0.953950 0.025760 -0.589640
Cl15  Cl    Cl    0.656410 0.403400 0.057573 -0.553324
Cl16  Cl    Cl    0.895970 0.498948 0.303349 -0.491651

loop_
_geom_bond_atom_site_label_1
_geom_bond_atom_site_label_2
_ccdc_geom_bond_type
C66   C68   A    
N9    N14   A    
C40   C41   A    
C43   H8    S    
C20   H6    S    
C63   H12   S    
C73   C74   A    
C3    C23   A    
C19   C20   A    
N4    Ni4   S    
C43   C44   A    
C2    C12   A    
C75   H19   S    
C40   C46   A    
C26   C27   A    
C62   C63   A    
C65   C76   S    
C7    N3    A    
C18   C24   A    
C34   N11   A    
C6    N2    A    
C28   C29   A    
C37   C38   A    
N3    Ni3   S    
C12   N9    A    
N1    N15   A    
C11   C14   A    
C65   C69   A    
N2    Ni2   S    
C45   Cl15  S    
C18   H5    S    
C18   C19   A    
C46   C47   A    
N12   Ni2   S    
C50   H23   S    
C33   C35   A    
C6    C15   A    
C15   C19   S    
C53   C61   A    
C12   Cl4   S    
C66   C71   A    
C70   C74   A    
C36   C37   A    
C64   C73   A    
C70   C71   A    
C45   N12   A    
N13   Ni1   S    
C16   C37   S    
C13   H4    S    
C59   C60   A    
C22   C28   A    
C55   C60   A    
C4    C56   A    
N5    Ni2   S    
N11   N13   A    
C32   H22   S    
C36   C41   A    
C11   Cl3   S    
C41   C49   A    
N16   Ni1   S    
C44   C46   A    
C39   C42   A    
C48   Cl12  S    
N15   Ni3   S    
C38   C39   A    
C74   H28   S    
C4    C34   A    
C8    Cl1   S    
C51   C52   A    
N9    Ni2   S    
C10   N6    A    
C73   H15   S    
C2    C67   A    
C61   H25   S    
C1    N1    A    
C39   C40   A    
C6    H1    S    
C66   H16   S    
C25   C26   A    
C23   N10   A    
C3    C45   A    
N7    N16   A    
C56   H18   S    
C75   C76   A    
C29   C30   A    
N8    Ni3   S    
C72   H14   S    
C53   C62   A    
C67   N14   A    
C47   C48   A    
C34   H27   S    
C65   C68   A    
C50   C51   A    
C1    H21   S    
C13   N8    A    
C67   Cl16  S    
C5    C14   A    
C7    H2    S    
C9    C17   A    
C48   C49   A    
C14   C54   S    
C13   C15   A    
C9    Cl2   S    
C22   C24   A    
C36   Cl9   S    
C42   C43   A    
N1    Ni1   S    
N14   Ni4   S    
C56   N13   A    
C5    H20   S    
C54   C58   A    
C44   C50   A    
C69   Cl14  S    
C21   C25   A    
C4    C33   S    
C35   Cl6   S    
C27   C32   A    
C52   H24   S    
C75   N15   A    
C49   H10   S    
C7    C16   A    
C68   H17   S    
C38   Cl10  S    
C10   H3    S    
C47   C52   A    
C5    N16   A    
C55   Cl13  S    
C62   H11   S    
C29   C35   A    
C59   C63   A    
C8    C17   A    
N10   Ni3   S    
C32   C33   A    
C55   C57   A    
N7    Ni4   S    
C58   C59   A    
C24   C31   A    
C57   H26   S    
C71   C72   A    
N6    Ni1   S    
C10   C16   A    
C3    C53   S    
C30   C31   A    
N10   N12   A    
N2    N8    A    
N4    N5    A    
C1    C76   A    
C42   Cl11  S    
C64   C72   A    
C8    N4    A    
C69   C70   A    
C58   H13   S    
N11   Ni4   S    
C30   Cl7   S    
C2    C51   S    
N3    N6    A    
C20   C21   A    
C9    N5    A    
C23   H9    S    
C27   C28   A    
C25   H7    S    
C60   C61   A    
C11   N7    A    
C26   Cl5   S    
C31   Cl8   S    
C21   C22   A    
C54   C57   A    
