data_mof_unit_32753.cif
_audit_creation_date              2012-12-11T18:04:49-0500
_audit_creation_method            fapswitch 2.2
_symmetry_space_group_name_H-M    P1
_symmetry_Int_Tables_number       1
_space_group_crystal_system       triclinic
_cell_length_a                    8.239217
_cell_length_b                    12.723731
_cell_length_c                    22.793792
_cell_angle_alpha                 95.607081
_cell_angle_beta                  89.079676
_cell_angle_gamma                 98.9874
_cell_volume                      2348.92396508

loop_
_atom_site_label
_atom_site_type_symbol
_atom_type_description
_atom_site_fract_x
_atom_site_fract_y
_atom_site_fract_z
_atom_type_partial_charge
Ba1   Ba    Ba6+2 0.856210 0.551220 0.472190 1.659615
Ba2   Ba    Ba6+2 0.333620 0.448870 0.527810 1.671087
C1    C     C_3   0.704915 0.949402 0.340000 -0.359069
C2    C     C_3   0.678240 0.832120 0.351526 0.355046
C3    C     C_3   0.497143 0.299165 0.348792 0.345544
C4    C     C_3   0.518417 0.279695 0.282262 0.289861
C5    C     C_3   0.926790 0.132196 0.680464 0.282803
C6    C     C_3   0.950909 0.120853 0.745344 -0.302007
C7    C     C_3   0.494516 0.184350 0.709390 0.328580
C8    C     C_3   0.390956 0.093800 0.738188 -0.332937
C9    C     C_R   0.345499 0.528610 0.331632 -0.255410
C10   C     C_R   0.123850 0.569927 0.936696 -0.025037
C11   C     C_R   0.071691 0.566587 0.877499 0.589614
C12   C     C_3   0.174503 0.868174 0.296177 1.012447
C13   C     C_R   0.962372 0.380339 0.877798 0.582675
C14   C     C_R   0.006458 0.382525 0.937722 -0.017521
C15   C     C_R   0.088869 0.477644 0.967120 -0.054642
C16   C     C_R   0.209807 0.663818 0.966345 -0.077391
C17   C     C_R   0.260486 0.665793 0.024706 -0.078368
C18   C     C_R   0.224340 0.574486 0.055815 -0.013196
C19   C     C_R   0.136980 0.480449 0.027158 -0.052760
C20   C     C_R   0.970883 0.291195 0.968867 -0.078312
C21   C     C_R   0.015235 0.294639 0.028152 -0.086082
C22   C     C_R   0.098815 0.389102 0.058153 -0.024845
C23   C     C_3   0.243078 0.987904 0.299575 -0.227690
C24   C     C_R   0.145032 0.394209 0.118279 0.569724
C25   C     C_R   0.273669 0.575977 0.114980 0.561958
C26   C     C_2   0.792528 0.417834 0.767702 -0.090634
C27   C     C_3   0.759482 0.390130 0.702508 -0.086950
C28   C     C_1   0.006748 0.517946 0.685029 0.034213
C29   C     C_2   0.056413 0.519140 0.740604 -0.077252
C30   C     C_2   0.942359 0.469090 0.786253 0.212473
C31   C     C_R   0.430632 0.542043 0.230145 -0.119794
C32   C     C_R   0.464849 0.562461 0.290760 -0.017331
C33   C     C_R   0.192951 0.472782 0.313338 0.048449
C34   C     C_3   0.226098 0.777032 0.594024 0.291307
C35   C     C_R   0.153878 0.458399 0.252594 -0.088606
C36   C     C_R   0.271727 0.494910 0.209837 0.210016
C37   C     C_2   0.865279 0.463885 0.664891 -0.248990
C38   C     C_R   0.756998 0.179197 0.523903 -0.270839
C39   C     C_R   0.436601 0.809235 0.470786 -0.279122
C40   C     C_R   0.408959 0.988630 0.453074 -0.119754
C41   C     C_R   0.350619 0.879589 0.445038 -0.013131
C42   C     C_R   0.578844 0.846792 0.504603 0.041598
C43   C     C_R   0.642270 0.957883 0.510823 -0.052958
C44   C     C_R   0.555118 0.029219 0.484547 -0.043051
C45   C     C_3   0.263490 0.897485 0.608185 -0.371651
C46   C     C_R   0.615457 0.139920 0.491104 0.058404
C47   C     C_R   0.849478 0.110269 0.546523 -0.060257
C48   C     C_R   0.790340 0.000339 0.541709 -0.103523
C49   C     C_3   0.968898 0.220320 0.407139 0.298894
C50   C     C_3   0.050069 0.121773 0.406579 -0.341784
C51   C     C_3   0.717395 0.689652 0.646797 0.302020
C52   C     C_3   0.729179 0.716221 0.713263 -0.356316
H1    H     H_    0.366517 0.917903 0.640115 0.109662
H2    H     H_    0.299045 0.936521 0.567643 0.097974
H3    H     H_    0.152949 0.928135 0.627145 0.134760
H4    H     H_    0.834649 0.195654 0.405693 -0.013492
H5    H     H_    0.003208 0.270357 0.448972 0.048676
H6    H     H_    0.992667 0.059269 0.373739 0.094476
H7    H     H_    0.040000 0.089494 0.449837 0.106218
H8    H     H_    0.179812 0.141870 0.393620 0.144513
H9    H     H_    0.838253 0.673512 0.629848 0.007133
H10   H     H_    0.623863 0.617470 0.637169 0.084442
H11   H     H_    0.591296 0.975150 0.325835 0.104804
H12   H     H_    0.825778 0.786464 0.724074 0.122665
H13   H     H_    0.760828 0.647255 0.734459 0.074536
H14   H     H_    0.609449 0.734672 0.731067 0.136437
H15   H     H_    0.548016 0.809566 0.363618 0.004774
H16   H     H_    0.803720 0.966342 0.306997 0.160850
H17   H     H_    0.372795 0.319067 0.359022 -0.003057
H18   H     H_    0.590470 0.368280 0.364493 0.003922
H19   H     H_    0.541471 0.358261 0.263747 -0.060688
H20   H     H_    0.627985 0.239066 0.273238 0.042836
H21   H     H_    0.735421 0.998524 0.382229 0.055455
H22   H     H_    0.323193 0.007048 0.261416 0.090065
H23   H     H_    0.865895 0.203079 0.676693 -0.033363
H24   H     H_    0.846678 0.058781 0.661397 -0.014868
H25   H     H_    0.038937 0.189759 0.765146 0.174754
H26   H     H_    0.831599 0.117961 0.768900 0.105234
H27   H     H_    0.999719 0.045693 0.750409 0.094893
H28   H     H_    0.609038 0.206554 0.735699 -0.025586
H29   H     H_    0.524023 0.155067 0.663400 -0.007643
H30   H     H_    0.353476 0.122668 0.783180 0.123303
H31   H     H_    0.463410 0.027953 0.741444 0.065415
H32   H     H_    0.280017 0.062226 0.711489 0.149510
H33   H     H_    0.984245 0.222690 0.050377 0.117878
H34   H     H_    0.907420 0.216592 0.947558 0.119885
H35   H     H_    0.327101 0.739769 0.045609 0.118463
H36   H     H_    0.526855 0.565638 0.199023 0.098313
H37   H     H_    0.181514 0.553710 0.752852 0.127211
H38   H     H_    0.703073 0.383990 0.798882 0.106385
H39   H     H_    0.032340 0.419336 0.238985 0.108698
H40   H     H_    0.374510 0.541500 0.378154 0.070607
H41   H     H_    0.835233 0.456730 0.618356 0.071528
H42   H     H_    0.334779 0.041273 0.436860 0.085639
H43   H     H_    0.862809 0.950138 0.561823 0.105081
H44   H     H_    0.801807 0.264197 0.528449 0.054823
H45   H     H_    0.387907 0.724821 0.466821 0.071785
H46   H     H_    0.142134 0.035016 0.296497 0.111991
H47   H     H_    0.315444 0.013748 0.339992 0.034293
H48   H     H_    0.339616 0.746914 0.578839 0.006728
H49   H     H_    0.132517 0.758914 0.558564 0.079091
N1    N     N_R   0.992491 0.472223 0.848113 -0.422972
N2    N     N_R   0.229831 0.487843 0.146881 -0.423957
O1    O     O_2   0.890290 0.440320 0.360790 -0.470775
O2    O     O_3   0.673231 0.776935 0.621456 -0.640546
O3    O     O_3   0.063307 0.848616 0.344042 -0.601669
O4    O     O_2   0.299410 0.559720 0.639240 -0.448003
O5    O     O_3   0.058870 0.558650 0.568170 -0.505145
O6    O     O_3   0.517310 0.362160 0.604450 -0.455893
O7    O     O_3   0.168628 0.730993 0.645124 -0.628309
O8    O     O_3   0.614910 0.369290 0.471050 -0.479360
O9    O     O_3   0.099190 0.306290 0.575790 -0.454177
O10   O     O_2   0.193199 0.118354 0.546323 -0.478499
O11   O     O_3   0.080487 0.144171 0.652367 -0.566415
O12   O     O_3   0.130840 0.441440 0.431840 -0.498210
O13   O     O_3   0.574800 0.630800 0.528960 -0.486701
O14   O     O_2   0.344900 0.234690 0.472540 -0.468259
O15   O     O_3   0.518345 0.206822 0.374909 -0.665924
O16   O     O_2   0.469678 0.478690 0.705369 -0.488745
O17   O     O_3   0.408246 0.271554 0.709737 -0.549215
O18   O     O_2   0.095029 0.648301 0.852488 -0.600477
O19   O     O_2   0.898562 0.295808 0.851936 -0.626346
O20   O     O_2   0.111532 0.314643 0.144733 -0.611844
O21   O     O_2   0.355389 0.656966 0.138099 -0.649395
O22   O     O_3   0.672400 0.637930 0.395560 -0.486994
O23   O     O_2   0.807334 0.573864 0.295342 -0.515618
O24   O     O_3   0.016337 0.269179 0.355834 -0.614078
O25   O     O_3   0.717040 0.765370 0.301960 -0.598983
O26   O     O_2   0.844800 0.765340 0.527490 -0.476886
O27   O     O_3   0.090520 0.693800 0.424220 -0.450099
O28   O     O_2   0.024245 0.880032 0.456491 -0.503653
P1    P     P_3+3 0.057140 0.408270 0.369700 1.004444
P2    P     P_3+3 0.667360 0.749400 0.544670 0.964001
P3    P     P_3+3 0.143208 0.828965 0.413405 0.956777
P4    P     P_3+3 0.132580 0.591820 0.630310 0.989498
P5    P     P_3+3 0.053171 0.167599 0.579159 0.978561
P6    P     P_3+3 0.665472 0.632403 0.319069 0.941626
P7    P     P_3+3 0.527081 0.236195 0.451568 0.927395
P8    P     P_3+3 0.538804 0.376826 0.681355 0.975110
H50   H     H_    0.758605 0.825236 0.389150 0.108158
O29   O     O_3   0.374918 0.217275 0.257435 -0.642462
C53   C     C_3   0.397751 0.196247 0.196240 0.203865
H51   H     H_    0.423333 0.271538 0.174317 0.059639
H52   H     H_    0.282921 0.149148 0.177060 0.111052
H53   H     H_    0.497874 0.147579 0.186807 0.004898
O30   O     O_3   0.079789 0.845382 0.243330 -0.677363
C54   C     C_3   0.028127 0.734599 0.228744 0.282606
H54   H     H_    0.089479 0.708448 0.187618 0.030575
H55   H     H_    0.895276 0.720532 0.218489 0.090189
H56   H     H_    0.053568 0.683584 0.263338 0.087563
H57   H     H_    0.239279 0.736157 0.944369 0.122053
O31   O     O_3   0.305092 0.806270 0.295328 -0.732363
C55   C     C_3   0.403654 0.816748 0.243561 0.099991
H58   H     H_    0.497406 0.888619 0.247515 0.038100
H59   H     H_    0.334799 0.820738 0.202809 0.120746
H60   H     H_    0.470646 0.748578 0.236251 0.136361

loop_
_geom_bond_atom_site_label_1
_geom_bond_atom_site_label_2
_ccdc_geom_bond_type
Ba2   O4    S    
C55   H59   S    
C51   H9    S    
C17   C18   A    
Ba1   O27   S    
Ba1   P2    S    
C49   O24   S    
C5    C6    S    
C8    H31   S    
C51   C52   S    
O22   P6    S    
C34   H49   S    
C40   H42   S    
O14   P7    D    
C34   H48   S    
C26   C27   S    
C33   C35   A    
O23   P6    D    
C22   C24   A    
O3    P3    S    
C3    H18   S    
O26   P2    D    
C50   H7    S    
C54   H55   S    
C2    H50   S    
C28   C29   D    
C11   O18   D    
C51   H10   S    
C52   H14   S    
O12   P1    S    
C38   C47   A    
C12   O30   S    
C32   P6    S    
C24   N2    Am   
C34   C45   S    
O4    P4    D    
C16   C17   A    
C40   C44   A    
O2    P2    S    
C50   H6    S    
Ba2   O5    S    
C14   C15   A    
C10   C15   A    
C34   O7    S    
O28   P3    D    
C21   C22   A    
C30   N1    S    
O15   P7    S    
C20   H34   S    
C13   N1    Am   
C1    H21   S    
C7    C8    S    
C7    H28   S    
C5    H23   S    
C42   P2    S    
C12   O3    S    
C28   P4    S    
C21   H33   S    
C47   P5    S    
C12   O31   S    
C55   H60   S    
C39   C41   A    
C1    H11   S    
Ba1   O8    S    
C53   H53   S    
O25   P6    S    
C33   P1    S    
C2    H15   S    
Ba2   O12   S    
C4    H20   S    
O11   P5    S    
C9    C32   A    
Ba2   O13   S    
C44   C46   A    
Ba2   O6    S    
C13   O19   D    
C46   P7    S    
C3    O15   S    
C6    H27   S    
O16   P8    D    
C26   C30   D    
C1    H16   S    
O30   C54   S    
C53   H52   S    
C54   H56   S    
C2    O25   S    
C52   H13   S    
C43   C44   A    
C15   C19   A    
C1    C2    S    
C49   C50   S    
C24   O20   D    
C5    O11   S    
C35   C36   A    
C17   H35   S    
Ba1   O5    S    
C6    H25   S    
C51   O2    S    
C23   H46   S    
C29   C30   S    
O10   P5    D    
O27   P3    S    
C27   P8    S    
C27   C37   S    
C39   H45   S    
C7    O17   S    
O8    P7    S    
C35   H39   S    
C26   H38   S    
C49   H4    S    
Ba1   O12   S    
C10   C11   A    
C11   N1    Am   
C37   H41   S    
O31   C55   S    
C16   H57   S    
C7    H29   S    
C5    H24   S    
C9    H40   S    
C29   H37   S    
C39   C42   A    
C49   H5    S    
C40   C41   A    
Ba1   P1    S    
C55   H58   S    
C42   C43   A    
C4    H19   S    
C45   H1    S    
C38   C46   A    
C8    H32   S    
C48   H43   S    
C14   C20   A    
Ba2   P4    S    
O7    P4    S    
O5    P4    S    
Ba1   O22   S    
C53   H51   S    
Ba1   O26   S    
C25   O21   D    
Ba2   O14   S    
C52   H12   S    
C18   C25   A    
Ba1   O1    S    
C31   C36   A    
C23   H22   S    
C36   N2    S    
C9    C33   A    
C3    H17   S    
C50   H8    S    
C31   H36   S    
C38   H44   S    
Ba2   O9    S    
C23   H47   S    
C3    C4    S    
C43   C48   A    
C13   C14   A    
Ba1   Ba2   S    
C8    H30   S    
Ba2   O8    S    
C31   C32   A    
C28   C37   D    
Ba1   O13   S    
O9    P5    S    
C12   C23   S    
C41   P3    S    
O6    P8    S    
O24   P1    S    
O1    P1    D    
C18   C19   A    
C47   C48   A    
C19   C22   A    
C10   C16   A    
C45   H3    S    
C6    H26   S    
C25   N2    Am   
C20   C21   A    
O17   P8    S    
C4    O29   S    
C54   H54   S    
O13   P2    S    
O29   C53   S    
C45   H2    S    
