data_mof_unit_21061.cif
_audit_creation_date              2013-03-05T15:47:36-0500
_audit_creation_method            fapswitch 2.2
_symmetry_space_group_name_H-M    P1
_symmetry_Int_Tables_number       1
_space_group_crystal_system       triclinic
_cell_length_a                    18.408725
_cell_length_b                    18.396425
_cell_length_c                    18.27248
_cell_angle_alpha                 120.620399
_cell_angle_beta                  90.491233
_cell_angle_gamma                 118.986754
_cell_volume                      4381.80523789

loop_
_atom_site_label
_atom_site_type_symbol
_atom_site_description
_atom_site_fract_x
_atom_site_fract_y
_atom_site_fract_z
_atom_type_partial_charge
Zn1   Zn    Zn3+2 0.457160 0.413230 0.543930 1.086412
Zn2   Zn    Zn3+2 0.456070 0.586770 0.542830 1.108778
Zn3   Zn    Zn3+2 0.456070 0.413260 0.369320 1.129352
Zn4   Zn    Zn3+2 0.630700 0.586740 0.543930 1.101951
O1    O     O_3   0.500000 0.500000 0.500000 -0.572374
O2    O     O_R   0.676930 0.731590 0.616180 -0.618707
O3    O     O_R   0.384570 0.268390 0.445310 -0.633914
O4    O     O_R   0.383800 0.560730 0.615410 -0.609974
O5    O     O_R   0.554710 0.439290 0.323100 -0.585915
O6    O     O_R   0.382720 0.560770 0.443450 -0.617531
O7    O     O_R   0.678010 0.560670 0.617270 -0.604684
O8    O     O_R   0.382720 0.439330 0.322010 -0.587474
O9    O     O_R   0.556550 0.439230 0.617270 -0.586022
O10   O     O_R   0.384570 0.439270 0.616180 -0.595750
O11   O     O_R   0.676930 0.560710 0.445310 -0.581432
O12   O     O_R   0.554710 0.731610 0.615410 -0.571898
O13   O     O_R   0.383800 0.268410 0.323100 -0.588541
C1    C     C_R   0.640023 0.780966 0.638250 0.891567
C2    C     C_R   0.363002 0.219880 0.358731 0.805807
C3    C     C_R   0.363777 0.505225 0.644577 0.848037
C4    C     C_R   0.638986 0.493442 0.358942 0.888174
C5    C     C_R   0.368617 0.508810 0.358443 0.898229
C6    C     C_R   0.641114 0.501313 0.642522 0.966993
C7    C     C_3   0.799958 0.569533 0.732987 -0.245389
C8    C     C_3   0.798101 0.473793 0.705382 0.368891
H1    H     H_    0.842402 0.626577 0.719988 0.275853
C9    C     C_3   0.800886 0.498957 0.800432 -0.384408
C10   C     C_3   0.800884 0.592857 0.827119 0.162739
C11   C     C_3   0.699644 0.528253 0.795518 0.290047
C12   C     C_3   0.698804 0.433136 0.767720 0.290169
C13   C     C_3   0.696674 0.408042 0.672942 0.310607
C14   C     C_3   0.698093 0.502793 0.700883 -0.311876
C15   C     C_R   0.383469 0.107436 0.415898 -0.221249
H2    H     H_    0.444675 0.179949 0.440952 0.215961
C16   C     C_R   0.374208 0.067653 0.465048 0.229830
C17   C     C_R   0.295797 0.975080 0.435447 0.260320
C18   C     C_R   0.229294 0.918564 0.352846 0.209315
C19   C     C_R   0.244117 0.953565 0.296619 -0.061593
C20   C     C_R   0.314911 0.056340 0.337158 -0.024611
C21   C     C_R   0.314113 0.107252 0.300069 -0.135276
C22   C     C_R   0.257577 0.049347 0.211112 0.274421
H3    H     H_    0.160737 0.900223 0.093398 0.222597
C23   C     C_R   0.200315 0.943690 0.163143 -0.190122
C24   C     C_R   0.192497 0.893911 0.203332 -0.076661
C25   C     C_R   0.826807 0.569692 0.428665 0.341615
C26   C     C_R   0.913877 0.657289 0.479482 0.207146
C27   C     C_R   0.961167 0.703254 0.438451 0.382801
C28   C     C_R   0.926114 0.654319 0.346023 -0.130959
H4    H     H_    0.963899 0.691213 0.316597 0.251588
C29   C     C_R   0.840379 0.564408 0.294631 -0.027875
C30   C     C_R   0.785969 0.536020 0.341482 -0.074180
C31   C     C_R   0.693475 0.479835 0.300944 -0.140774
C32   C     C_R   0.657415 0.424099 0.206146 0.389689
H5    H     H_    0.684365 0.385666 0.083416 0.235609
C33   C     C_R   0.713452 0.432958 0.156329 -0.162479
C34   C     C_R   0.805080 0.504008 0.199116 -0.101529
C35   C     C_R   0.835629 0.915089 0.661700 0.244179
C36   C     C_R   0.927647 0.965853 0.700593 0.100423
C37   C     C_R   0.971512 0.047542 0.793241 0.130685
C38   C     C_R   0.928255 0.090510 0.841748 0.345081
C39   C     C_R   0.842206 0.052117 0.796736 -0.125897
C40   C     C_R   0.790306 0.951928 0.716349 -0.122904
C41   C     C_R   0.696639 0.895736 0.695504 -0.142710
C42   C     C_R   0.660256 0.951423 0.743297 0.193467
C43   C     C_R   0.714110 0.058137 0.805135 0.215326
C44   C     C_R   0.805992 0.110017 0.827421 -0.152822
C45   C     C_R   0.349535 0.684068 0.422819 0.361951
C46   C     C_R   0.305456 0.727594 0.469370 0.119577
C47   C     C_R   0.212249 0.669449 0.432569 0.094620
C48   C     C_R   0.169191 0.584279 0.340014 0.264513
C49   C     C_R   0.219861 0.554048 0.290143 -0.164186
C50   C     C_R   0.300876 0.587610 0.338813 -0.154654
C51   C     C_R   0.329501 0.522744 0.300861 -0.166655
C52   C     C_R   0.304263 0.456988 0.206370 0.338938
C53   C     C_R   0.239358 0.444840 0.152740 0.337645
C54   C     C_R   0.195318 0.493113 0.194762 -0.153670
C55   C     C_R   0.288189 0.641915 0.714702 0.189318
C56   C     C_R   0.227257 0.668156 0.714211 0.061719
C57   C     C_R   0.139734 0.601817 0.704489 0.304438
C58   C     C_R   0.120597 0.525861 0.716179 0.323877
C59   C     C_R   0.189210 0.520930 0.741683 -0.108359
C60   C     C_R   0.264716 0.558517 0.718940 -0.129598
C61   C     C_R   0.314707 0.515880 0.709786 -0.102516
C62   C     C_R   0.306658 0.469931 0.755189 0.279836
H6    H     H_    0.246001 0.434837 0.842687 0.221968
C63   C     C_R   0.245985 0.460462 0.800827 -0.204165
C64   C     C_R   0.187959 0.487264 0.795471 -0.050647
Zn5   Zn    Zn3+2 0.042810 0.586720 0.956040 1.077427
Zn6   Zn    Zn3+2 0.043900 0.586680 0.130650 1.089915
Zn7   Zn    Zn3+2 0.043900 0.413170 0.957150 1.092685
Zn8   Zn    Zn3+2 0.869280 0.413210 0.956040 1.120586
O14   O     O_3   0.999970 0.499940 0.999970 -0.559850
O15   O     O_R   0.823040 0.439240 0.054670 -0.616326
O16   O     O_R   0.115410 0.560680 0.883790 -0.618887
O17   O     O_R   0.116170 0.731530 0.176870 -0.611445
O18   O     O_R   0.945270 0.268330 0.884560 -0.610304
O19   O     O_R   0.117250 0.560610 0.177960 -0.619527
O20   O     O_R   0.821970 0.439270 0.882700 -0.602717
O21   O     O_R   0.117250 0.439170 0.056520 -0.580119
O22   O     O_R   0.943420 0.560710 0.882700 -0.576139
O23   O     O_R   0.115410 0.731560 0.054670 -0.628749
O24   O     O_R   0.823040 0.268350 0.883790 -0.592790
O25   O     O_R   0.945270 0.560650 0.176870 -0.602499
O26   O     O_R   0.116170 0.439210 0.884560 -0.629946
C65   C     C_R   0.860612 0.503199 0.141269 0.857919
C66   C     C_R   0.137734 0.496610 0.857812 0.860090
C67   C     C_R   0.138610 0.780601 0.142112 0.837064
C68   C     C_R   0.861000 0.221067 0.868069 0.883992
C69   C     C_R   0.138870 0.496426 0.141330 0.910128
C70   C     C_R   0.858569 0.499016 0.857632 0.975629
Cl1   Cl    Cl    0.852071 0.429675 0.632492 -0.303598
Cl2   Cl    Cl    0.276336 0.939714 0.509960 -0.297370
N1    N     N_R   0.142296 0.843167 0.339575 0.260290
O27   O     O_R   0.076394 0.847374 0.321718 -0.356469
O28   O     O_R   0.128054 0.766914 0.340129 -0.313272
Cl3   Cl    Cl    0.543190 0.339413 0.144094 -0.353617
Cl4   Cl    Cl    0.776593 0.490629 0.465814 -0.451140
N2    N     N_R   0.951373 0.701352 0.572721 0.282556
O29   O     O_R   0.903805 0.706876 0.625055 -0.304145
O30   O     O_R   0.033648 0.738950 0.606758 -0.152397
Cl5   Cl    Cl    0.062892 0.823006 0.500143 -0.251764
N3    N     N_R   0.568228 0.902161 0.729255 0.263352
O31   O     O_R   0.542649 0.916617 0.798744 -0.222036
O32   O     O_R   0.518314 0.879644 0.660319 -0.203220
N4    N     N_R   0.792166 0.837070 0.565763 0.250414
O33   O     O_R   0.735121 0.834585 0.520328 -0.337241
O34   O     O_R   0.810507 0.769505 0.522970 -0.348673
N5    N     N_R   0.977118 0.937199 0.646055 0.265347
O35   O     O_R   0.033460 0.926145 0.674581 -0.207895
O36   O     O_R   0.977760 0.940861 0.576767 -0.264664
N6    N     N_R   0.062536 0.093912 0.835611 0.292971
O37   O     O_R   0.085623 0.092121 0.901863 -0.189443
O38   O     O_R   0.122879 0.140965 0.809949 -0.217027
Cl6   Cl    Cl    0.977046 0.181986 0.960719 -0.421971
N7    N     N_R   0.674544 0.112443 0.848777 0.257945
O39   O     O_R   0.695126 0.165765 0.936279 -0.308393
O40   O     O_R   0.615838 0.105914 0.801080 -0.204592
Cl7   Cl    Cl    0.358820 0.396933 0.153783 -0.314225
Cl8   Cl    Cl    0.466023 0.754081 0.462033 -0.430045
N8    N     N_R   0.354827 0.827558 0.553762 0.305414
O41   O     O_R   0.344356 0.839090 0.628266 -0.176625
O42   O     O_R   0.418430 0.905408 0.557874 -0.193172
N9    N     N_R   0.161490 0.691637 0.488967 0.271896
O43   O     O_R   0.187621 0.785722 0.549571 -0.158013
O44   O     O_R   0.095104 0.618174 0.487950 -0.274110
N10   N     N_R   0.074571 0.522456 0.300458 0.253100
O45   O     O_R   0.031613 0.565034 0.318842 -0.321112
O46   O     O_R   0.030928 0.422980 0.244729 -0.332993
N11   N     N_R   0.856310 0.695980 0.911117 0.277062
O47   O     O_R   0.851719 0.769036 0.922019 -0.265404
O48   O     O_R   0.908489 0.715199 0.976345 -0.349630
Cl9   Cl    Cl    0.215451 0.366175 0.033869 -0.341616
N12   N     N_R   0.365542 0.442537 0.763800 0.239046
O49   O     O_R   0.337313 0.363099 0.764670 -0.249164
O50   O     O_R   0.449983 0.506479 0.786604 -0.284495
N13   N     N_R   0.376475 0.709893 0.724959 0.278681
O51   O     O_R   0.390000 0.730888 0.666430 -0.258236
O52   O     O_R   0.442801 0.739897 0.784628 -0.316638
N14   N     N_R   0.257086 0.766155 0.732989 0.279454
O53   O     O_R   0.331646 0.848350 0.796750 -0.210970
O54   O     O_R   0.206136 0.776528 0.695254 -0.167091
Cl10  Cl    Cl    0.057185 0.621437 0.691412 -0.297783
Cl11  Cl    Cl    0.011095 0.430680 0.692285 -0.450911
Cl12  Cl    Cl    0.637069 0.567948 0.858373 -0.340917
Cl13  Cl    Cl    0.628833 0.341506 0.788040 -0.275787
Cl14  Cl    Cl    0.631251 0.285562 0.566541 -0.420004
N15   N     N_R   0.258463 0.095551 0.167063 0.230372
O55   O     O_R   0.185272 0.078690 0.132421 -0.277953
O56   O     O_R   0.325859 0.132602 0.142963 -0.243283
N16   N     N_R   0.438832 0.129610 0.552052 0.280844
O57   O     O_R   0.460404 0.222112 0.612112 -0.245850
O58   O     O_R   0.473374 0.092712 0.573041 -0.190008

loop_
_geom_bond_atom_site_label_1
_geom_bond_atom_site_label_2
_geom_bond_distance
_ccdc_geom_bond_type
C8    C13   1.536997 S    
C33   C34   1.401562 A    
O22   C70   1.295253 A    
O20   C70   1.293155 A    
C51   C52   1.405038 A    
C16   C17   1.393580 A    
C53   C54   1.431544 A    
N5    O35   1.300735 A    
O26   C66   1.278406 A    
Zn5   O23   1.936312 S    
C35   C40   1.423198 A    
N15   O56   1.301263 A    
C55   C56   1.421392 A    
O6    C5    1.278216 A    
C36   N5    1.430404 S    
C52   Cl7   1.778507 S    
C26   N2    1.437654 S    
C11   C12   1.545420 S    
C61   C62   1.421231 A    
Zn1   O1    1.977463 S    
C10   C11   1.534589 S    
C10   N11   1.458318 S    
C62   C63   1.395941 A    
N10   O45   1.299464 A    
C11   C14   1.539973 S    
N11   O48   1.300054 A    
C55   N13   1.423558 S    
C35   N4    1.439804 S    
C12   C13   1.542977 S    
C15   C16   1.386546 A    
C1    C41   1.495637 S    
C27   Cl5   1.751079 S    
C18   N1    1.430115 S    
N16   O57   1.301157 A    
C25   C30   1.417578 A    
N9    O43   1.298017 A    
O21   C69   1.260838 A    
O8    C5    1.265748 A    
O9    C6    1.291635 A    
N7    O40   1.301289 A    
C45   C50   1.403028 A    
N2    O29   1.301237 A    
Zn3   O8    1.957179 S    
O15   C65   1.289398 A    
H5    C33   1.083574 S    
C39   C44   1.406999 A    
C15   C20   1.409889 A    
O16   C66   1.298570 A    
N14   O53   1.301592 A    
C9    C70   1.482796 S    
C46   C47   1.417395 A    
C17   Cl2   1.757924 S    
N14   O54   1.299222 A    
O24   C68   1.290527 A    
C48   C49   1.418040 A    
C48   N10   1.439064 S    
N12   O50   1.300389 A    
Zn2   O12   1.955849 S    
C32   Cl3   1.766027 S    
C50   C51   1.398306 A    
C28   C29   1.403843 A    
O18   C68   1.292718 A    
C37   C38   1.397473 A    
N15   O55   1.300989 A    
Zn6   O25   1.958257 S    
C9    C12   1.546898 S    
C22   C23   1.385722 A    
C11   Cl12  1.778438 S    
C47   C48   1.420334 A    
C59   C60   1.397839 A    
N10   O46   1.301526 A    
C32   C33   1.386924 A    
C19   C20   1.410823 A    
O2    C1    1.295761 A    
Zn5   O16   1.940376 S    
C52   C53   1.391348 A    
C45   C46   1.403881 A    
C37   N6    1.433335 S    
O10   C3    1.303894 A    
N7    O39   1.301485 A    
C7    C8    1.547253 S    
Zn4   O2    1.940871 S    
Zn8   O14   1.979869 S    
C56   C57   1.409025 A    
C54   C69   1.463342 S    
N6    O38   1.301364 A    
C36   C37   1.408955 A    
H6    C63   1.083848 S    
C29   C34   1.417100 A    
C30   C31   1.417352 A    
Zn6   O19   1.957182 S    
C38   C39   1.409276 A    
Zn4   O7    1.955488 S    
N13   O51   1.298878 A    
Zn6   O17   1.958605 S    
C23   C24   1.399195 A    
C7    C14   1.544004 S    
C58   Cl11  1.762147 S    
C19   C24   1.438326 A    
C18   C19   1.432856 A    
Zn3   O5    1.958408 S    
Zn8   O15   1.934966 S    
O19   C69   1.286661 A    
C62   N12   1.435638 S    
Zn7   O14   1.950361 S    
C27   C28   1.395944 A    
C13   Cl14  1.781697 S    
C53   Cl9   1.780466 S    
C28   H4    1.074329 S    
Zn5   O14   1.977615 S    
C40   C41   1.430704 A    
C29   C30   1.404287 A    
O25   C65   1.286384 A    
O4    C3    1.286657 A    
N8    O41   1.298222 A    
Zn6   O14   1.933058 S    
Zn7   O26   1.954129 S    
C43   N7    1.438106 S    
O17   C67   1.271248 A    
O23   C67   1.302166 A    
C21   C22   1.411594 A    
C43   C44   1.401884 A    
O3    C2    1.290120 A    
N4    O33   1.301521 A    
C57   C58   1.396591 A    
C46   N8    1.432841 S    
Zn2   O1    1.950359 S    
C47   N9    1.435063 S    
H3    C23   1.084283 S    
C57   Cl10  1.763489 S    
N3    O32   1.297017 A    
N6    O37   1.301000 A    
Zn5   O22   1.956692 S    
C38   Cl6   1.771818 S    
Zn7   O21   1.948386 S    
C20   C21   1.412977 A    
C45   Cl8   1.768424 S    
C31   C32   1.415548 A    
C63   C64   1.396991 A    
N1    O27   1.301607 A    
C24   C67   1.477153 S    
C25   Cl4   1.773191 S    
N9    O44   1.301363 A    
C26   C27   1.406600 A    
C17   C18   1.412051 A    
Zn1   O3    1.936267 S    
C13   C14   1.532574 S    
Zn2   O4    1.953981 S    
C7    C10   1.543850 S    
C12   Cl13  1.783207 S    
C44   C68   1.478848 S    
C58   C59   1.401697 A    
Zn3   O1    1.933061 S    
N5    O36   1.301528 A    
Zn7   O18   1.955796 S    
N8    O42   1.300497 A    
C8    C9    1.545910 S    
C42   C43   1.395823 A    
Zn4   O11   1.934713 S    
N13   O52   1.301964 A    
N12   O49   1.301401 A    
C49   C50   1.386293 A    
N11   O47   1.300286 A    
C6    C14   1.470275 S    
C59   C64   1.398823 A    
C7    H1    1.109297 S    
O5    C4    1.283828 A    
C35   C36   1.420094 A    
C49   C54   1.415500 A    
C64   C66   1.467868 S    
N16   O58   1.300608 A    
C55   C60   1.423247 A    
C42   N3    1.422953 S    
Zn4   O1    1.980022 S    
C22   N15   1.433294 S    
O7    C6    1.290896 A    
O13   C2    1.277748 A    
C15   H2    1.082072 S    
Zn3   O13   1.958604 S    
Zn8   O20   1.955335 S    
C39   C40   1.406683 A    
N2    O30   1.299786 A    
C34   C65   1.476406 S    
C2    C21   1.471606 S    
C8    Cl1   1.767127 S    
C41   C42   1.422812 A    
C25   C26   1.405313 A    
C56   N14   1.441043 S    
O11   C4    1.289849 A    
Zn1   O9    1.956797 S    
O12   C1    1.298361 A    
C60   C61   1.434821 A    
C3    C61   1.492061 S    
C9    C10   1.537439 S    
N4    O34   1.300612 A    
C16   N16   1.431514 S    
Zn1   O10   1.940226 S    
Zn8   O24   1.940975 S    
C5    C51   1.460113 S    
N3    O31   1.300902 A    
C4    C31   1.477607 S    
N1    O28   1.301813 A    
Zn2   O6    1.948534 S    
