data_mof_unit_8434.cif
_audit_creation_date              2012-12-11T15:11:44-0500
_audit_creation_method            fapswitch 2.2
_symmetry_space_group_name_H-M    P1
_symmetry_Int_Tables_number       1
_space_group_crystal_system       triclinic
_cell_length_a                    20.158634
_cell_length_b                    7.176192
_cell_length_c                    13.885199
_cell_angle_alpha                 89.820011
_cell_angle_beta                  102.907563
_cell_angle_gamma                 89.470748
_cell_volume                      1957.79689501

loop_
_atom_site_label
_atom_site_type_symbol
_atom_type_description
_atom_site_fract_x
_atom_site_fract_y
_atom_site_fract_z
_atom_type_partial_charge
O1    O     O_R   0.449830 0.506740 0.599960 -0.528380
O2    O     O_R   0.550170 0.006740 0.400040 -0.531070
O3    O     O_R   0.588980 0.179860 0.596720 -0.528279
O4    O     O_R   0.411020 0.679860 0.403280 -0.537161
C1    C     C_R   0.616523 0.342917 0.616595 0.794602
C2    C     C_R   0.384784 0.844513 0.379752 0.805728
O5    O     O_R   0.452740 0.177340 0.612040 -0.555532
O6    O     O_R   0.547260 0.677340 0.387960 -0.538708
O7    O     O_R   0.412960 0.002070 0.415460 -0.529045
O8    O     O_R   0.587040 0.502070 0.584540 -0.537676
C3    C     C_R   0.437751 0.346109 0.638463 0.810889
C4    C     C_R   0.563294 0.845479 0.362464 0.815920
O9    O     O_3   0.487110 0.337570 0.435490 -0.387369
O10   O     O_3   0.512890 0.837570 0.564510 -0.391693
V1    V     V_3+5 0.502390 0.064650 0.511970 1.552031
V2    V     V_3+5 0.497610 0.564650 0.488030 1.570312
C5    C     C_R   0.610691 0.748511 0.122683 0.123450
C6    C     C_R   0.395508 0.336473 0.887471 0.132287
H1    H     H_    0.697916 0.695513 0.005895 0.198830
H2    H     H_    0.313827 0.349388 0.011510 0.197721
C7    C     C_R   0.601812 0.848642 0.284990 -0.204448
C8    C     C_R   0.398897 0.353745 0.715057 -0.162354
C9    C     C_R   0.930228 0.901288 0.315400 0.161474
C10   C     C_R   0.072822 0.303797 0.688913 0.168557
C11   C     C_R   0.893685 0.904678 0.389632 -0.159800
C12   C     C_R   0.110652 0.264724 0.618876 -0.162047
C13   C     C_R   0.823397 0.884241 0.366977 -0.178132
C14   C     C_R   0.180819 0.276773 0.642764 -0.179127
C15   C     C_R   0.786382 0.865479 0.268436 0.064748
C16   C     C_R   0.216115 0.334296 0.737127 0.070330
C17   C     C_R   0.824630 0.836624 0.194738 0.017812
C18   C     C_R   0.178678 0.351982 0.812774 -0.014308
C19   C     C_R   0.713193 0.855653 0.242208 0.019188
C20   C     C_R   0.288582 0.353248 0.760502 -0.015023
C21   C     C_R   0.681277 0.786815 0.146859 -0.085247
C22   C     C_R   0.323740 0.347951 0.861148 -0.032989
C23   C     C_R   0.720481 0.750287 0.078157 -0.103541
C24   C     C_R   0.286976 0.352132 0.934644 -0.017450
C25   C     C_R   0.790304 0.772668 0.101712 0.163109
C26   C     C_R   0.215864 0.356914 0.912236 0.199969
C27   C     C_R   0.669772 0.907802 0.306407 0.081889
C28   C     C_R   0.328038 0.376812 0.688088 0.040874
C29   C     C_R   0.572701 0.770577 0.193775 0.584105
C30   C     C_R   0.432381 0.332456 0.813732 0.503896
C31   C     C_R   0.896825 0.863940 0.217484 -0.057247
C32   C     C_R   0.105584 0.349701 0.786416 -0.067087
H3    H     H_    0.799765 0.874162 0.428827 0.176458
H4    H     H_    0.206817 0.228800 0.587630 0.133564
H5    H     H_    0.920135 0.922900 0.465950 0.139815
H6    H     H_    0.085325 0.220214 0.545459 0.121263
C33   C     C_3   0.229370 0.683180 0.171199 0.689618
C34   C     C_3   0.758444 0.251650 0.858278 0.697240
C35   C     C_3   0.306308 0.703819 0.222433 -0.087553
C36   C     C_3   0.684490 0.274239 0.792420 -0.073789
H7    H     H_    0.331929 0.766422 0.166747 0.197358
H8    H     H_    0.658848 0.386795 0.826417 0.196654
H9    H     H_    0.153851 0.716841 0.316267 0.176496
H10   H     H_    0.838165 0.117639 0.728489 0.250633
C37   C     C_3   0.183951 0.841288 0.305776 -0.185053
C38   C     C_3   0.814413 0.257418 0.710448 -0.178520
C39   C     C_3   0.230179 0.028646 0.180674 1.008522
C40   C     C_3   0.779319 0.559915 0.779584 1.009196
C41   C     C_3   0.187154 0.854555 0.193538 -0.271758
C42   C     C_3   0.811202 0.359756 0.809865 -0.303291
C43   C     C_3   0.314005 0.847537 0.311115 -0.332324
C44   C     C_3   0.686872 0.345890 0.685843 -0.373374
C45   C     C_3   0.258114 0.818634 0.372231 0.425351
C46   C     C_3   0.740764 0.231568 0.644225 0.472903
C47   C     C_3   0.297970 0.039696 0.260304 0.286975
C48   C     C_3   0.713508 0.549429 0.697202 0.326465
H11   H     H_    0.339912 0.081212 0.224608 0.123148
H12   H     H_    0.674167 0.642200 0.717462 0.131277
H13   H     H_    0.265814 0.921800 0.433303 0.142045
H14   H     H_    0.738982 0.279143 0.567359 0.143380
O11   O     O_R   0.912980 0.203550 0.915410 -0.532350
O12   O     O_R   0.087020 0.703550 0.084590 -0.547875
O13   O     O_R   0.047270 0.535570 0.887960 -0.528410
O14   O     O_R   0.952730 0.035570 0.112040 -0.539784
C49   C     C_R   0.063018 0.366854 0.860859 0.775869
C50   C     C_R   0.937410 0.868674 0.139764 0.768502
O15   O     O_R   0.911030 0.532970 0.903270 -0.514994
O16   O     O_R   0.088970 0.032970 0.096730 -0.501178
O17   O     O_R   0.949820 0.708150 0.099970 -0.541223
O18   O     O_R   0.050180 0.208150 0.900030 -0.552360
C51   C     C_R   0.883115 0.365838 0.882167 0.793637
C52   C     C_R   0.115419 0.863606 0.121100 0.853835
O19   O     O_3   0.012900 0.375230 0.064480 -0.384282
O20   O     O_3   0.987100 0.875230 0.935520 -0.378767
V3    V     V_3+5 0.997610 0.648190 0.988040 1.576697
V4    V     V_3+5 0.002390 0.148190 0.011960 1.577764
F1    F     F_    0.506342 0.718573 0.173163 -0.686822
F2    F     F_    0.501270 0.316350 0.838805 -0.720953
F3    F     F_    0.224494 0.675818 0.070162 -0.640439
F4    F     F_    0.757226 0.325516 0.949535 -0.691836
N1    N     N_3   0.338509 0.519654 0.245484 -0.561647
H15   H     H_    0.333719 0.474043 0.314788 0.348808
H16   H     H_    0.390119 0.525550 0.244064 0.268338
N2    N     N_3   0.643697 0.105970 0.795378 -0.619882
H17   H     H_    0.653211 0.004779 0.746378 0.302918
H18   H     H_    0.591950 0.140330 0.776233 0.287188
F5    F     F_    0.266178 0.646743 0.418197 -0.711359
F6    F     F_    0.724910 0.044267 0.636608 -0.667312
F7    F     F_    0.191611 0.181541 0.187045 -0.672020
F8    F     F_    0.825402 0.678017 0.750598 -0.646264
F9    F     F_    0.246102 0.025370 0.088672 -0.729696
F10   F     F_    0.759093 0.640088 0.857769 -0.764200
F11   F     F_    0.293462 0.174314 0.329859 -0.697624
F12   F     F_    0.724107 0.617667 0.608248 -0.654364
N3    N     N_3   0.147855 0.000878 0.337030 -0.608440
H19   H     H_    0.178743 0.118081 0.348900 0.313677
H20   H     H_    0.138497 0.968694 0.406287 0.220516
N4    N     N_3   0.857892 0.354461 0.654765 -0.651901
H21   H     H_    0.831538 0.461773 0.611114 0.309074
H22   H     H_    0.898175 0.417240 0.703753 0.281348
N5    N     N_3   0.576778 0.678355 0.027943 -0.593061
H23   H     H_    0.598820 0.550492 0.015993 0.263350
H24   H     H_    0.582661 0.773450 0.973329 0.249946
N6    N     N_3   0.430942 0.324275 0.989188 -0.620388
H25   H     H_    0.459780 0.200989 0.999217 0.276426
H26   H     H_    0.464373 0.436279 0.004325 0.309917
N7    N     N_3   0.689496 0.037511 0.386063 -0.644527
H27   H     H_    0.728059 0.125729 0.374907 0.244266
H28   H     H_    0.702911 0.964841 0.452946 0.296261
N8    N     N_3   0.299961 0.451576 0.591362 -0.583257
H29   H     H_    0.255516 0.528835 0.589556 0.281621
H30   H     H_    0.292461 0.344342 0.539403 0.269424
N9    N     N_3   0.002158 0.929161 0.340278 -0.669579
H31   H     H_    0.011129 0.059491 0.373907 0.237566
H32   H     H_    0.023859 0.827649 0.392312 0.226459
N10   N     N_3   0.000710 0.284204 0.661905 -0.688901
H33   H     H_    0.982315 0.370713 0.600814 0.245227
H34   H     H_    0.989926 0.146588 0.639634 0.247660
N11   N     N_3   0.827878 0.700470 0.035708 -0.630927
H35   H     H_    0.829414 0.790391 0.977703 0.309766
H36   H     H_    0.818273 0.561133 0.020590 0.335995
N12   N     N_3   0.182197 0.345407 0.992102 -0.552897
H37   H     H_    0.218185 0.352479 0.058091 0.347667
H38   H     H_    0.163383 0.210726 0.990953 0.279653
N13   N     N_3   0.203167 0.509804 0.203487 -0.536664
H39   H     H_    0.150483 0.501206 0.187512 0.258852
H40   H     H_    0.219061 0.484708 0.278905 0.310258
N14   N     N_3   0.778559 0.055867 0.875987 -0.613598
H41   H     H_    0.768851 0.980585 0.810495 0.306677
H42   H     H_    0.748196 0.998283 0.920189 0.287911

loop_
_geom_bond_atom_site_label_1
_geom_bond_atom_site_label_2
_ccdc_geom_bond_type
C44   C46   S    
C45   F5    S    
C9    C31   A    
C13   C15   A    
C35   H7    S    
N1    H15   S    
O1    C3    A    
O2    C4    A    
C2    O7    A    
N4    H22   S    
C47   F11   S    
C28   N8    S    
C44   C48   S    
C12   C14   A    
O14   V4    S    
O5    C3    A    
C26   N12   S    
O13   V3    S    
C36   C44   S    
N8    H30   S    
C21   C23   A    
C10   C12   A    
C12   H6    S    
C49   O18   A    
O14   C50   A    
H9    C37   S    
C35   N1    S    
C46   H14   S    
N5    H23   S    
C15   C19   A    
C40   C48   S    
C39   C41   S    
C27   N7    S    
C47   H11   S    
N6    H25   S    
C40   C42   S    
H1    C23   S    
O11   V4    S    
C37   C45   S    
C7    C29   A    
O11   C51   A    
C2    C43   S    
C8    C30   A    
C32   C49   S    
C14   C16   A    
N5    H24   S    
C11   H5    S    
C20   C28   A    
C34   F4    S    
C45   H13   S    
C39   F9    S    
C6    N6    S    
C30   F2    S    
O12   V3    S    
O15   V3    S    
O5    V1    S    
O6    V2    S    
C24   C26   A    
O18   V4    S    
C50   O17   A    
N4    H21   S    
C34   C36   S    
H10   C38   S    
C40   F8    S    
O13   C49   A    
O17   V3    S    
C36   H8    S    
C16   C20   A    
C33   C41   S    
N12   H38   S    
C34   C42   S    
N12   H37   S    
C43   C45   S    
O16   C52   A    
C4    C7    S    
C29   F1    S    
C37   N3    S    
C33   C35   S    
O4    V2    S    
N10   H34   S    
N9    H32   S    
C38   N4    S    
C6    C30   A    
H2    C24   S    
O6    C4    A    
O1    V2    S    
O2    V1    S    
N7    H27   S    
C33   F3    S    
C7    C27   A    
N6    H26   S    
O4    C2    A    
O20   V4    S    
N2    H18   S    
O19   V3    S    
C41   C52   S    
N11   H35   S    
N14   H42   S    
O19   V4    S    
N9    H31   S    
O12   C52   A    
C42   C51   S    
C35   C43   S    
C5    N5    S    
C9    N9    S    
C25   N11   S    
C13   H3    S    
C14   H4    S    
C39   F7    S    
N14   H41   S    
C18   C32   A    
C46   F6    S    
C1    C44   S    
O3    C1    A    
N13   H39   S    
N1    H16   S    
C40   F10   S    
C11   C13   A    
C3    C8    S    
C37   C41   S    
O16   V4    S    
C38   C42   S    
C19   C27   A    
N3    H20   S    
N10   H33   S    
O7    V1    S    
C10   C32   A    
C1    O8    A    
C23   C25   A    
O8    V2    S    
N3    H19   S    
C16   C18   A    
N13   H40   S    
C8    C28   A    
C43   C47   S    
C22   C24   A    
C19   C21   A    
C17   C25   A    
C31   C50   S    
C20   C22   A    
C39   C47   S    
C18   C26   A    
C34   N14   S    
N7    H28   S    
C10   N10   S    
C9    C11   A    
O20   V3    S    
C38   C46   S    
C15   C17   A    
N2    H17   S    
C17   C31   A    
O9    V2    S    
C5    C29   A    
N11   H36   S    
O10   V1    S    
C36   N2    S    
O3    V1    S    
C48   H12   S    
C5    C21   A    
C6    C22   A    
C48   F12   S    
O15   C51   A    
N8    H29   S    
C33   N13   S    
