data_mof_unit_56408.cif
_audit_creation_date              2012-12-10T19:44:58-0500
_audit_creation_method            fapswitch 2.2
_symmetry_space_group_name_H-M    P1
_symmetry_Int_Tables_number       1
_space_group_crystal_system       triclinic
_cell_length_a                    15.107524
_cell_length_b                    10.833177
_cell_length_c                    13.838676
_cell_angle_alpha                 89.071225
_cell_angle_beta                  90.503359
_cell_angle_gamma                 86.88298
_cell_volume                      2261.11820304

loop_
_atom_site_label
_atom_site_type_symbol
_atom_type_description
_atom_site_fract_x
_atom_site_fract_y
_atom_site_fract_z
_atom_type_partial_charge
C1    C     C_R   0.497216 0.262657 0.500212 0.789880
C2    C     C_R   0.502784 0.737343 0.499788 0.789880
C3    C     C_R   0.044029 0.540741 0.326353 0.602720
C4    C     C_R   0.955971 0.459262 0.673647 0.602721
C5    C     C_R   0.305180 0.268329 0.262181 -0.278854
C6    C     C_R   0.694820 0.731664 0.737815 -0.278850
C7    C     C_R   0.343294 0.206266 0.342980 -0.216510
C8    C     C_R   0.656706 0.793730 0.657017 -0.216503
C9    C     C_R   0.420458 0.129119 0.333214 0.046559
C10   C     C_R   0.579544 0.870880 0.666785 0.046559
C11   C     C_R   0.457383 0.112588 0.241145 -0.297498
C12   C     C_R   0.542621 0.887412 0.758855 -0.297507
C13   C     C_R   0.418840 0.174434 0.160467 0.552498
C14   C     C_R   0.581163 0.825564 0.839532 0.552500
C15   C     C_R   0.343158 0.253054 0.171108 0.585000
C16   C     C_R   0.656843 0.746939 0.828889 0.584997
C17   C     C_R   0.469702 0.937239 0.419947 -0.231950
C18   C     C_R   0.530299 0.062760 0.580052 -0.231951
C19   C     C_R   0.505375 0.871226 0.500056 -0.073872
C20   C     C_R   0.494625 0.128774 0.499943 -0.073873
C21   C     C_R   0.537142 0.934492 0.581033 0.075847
C22   C     C_R   0.462859 0.065508 0.418966 0.075846
C23   C     C_R   0.328718 0.499085 0.499963 0.833784
C24   C     C_R   0.671281 0.500918 0.500037 0.833788
C25   C     C_R   0.558703 0.420949 0.796300 0.223529
C26   C     C_R   0.441297 0.579051 0.203700 0.223530
C27   C     C_R   0.441996 0.578026 0.790643 0.729317
C28   C     C_R   0.558004 0.421974 0.209357 0.729312
C29   C     C_R   0.439680 0.580581 0.893744 -0.105511
C30   C     C_R   0.560320 0.419421 0.106256 -0.105509
C31   C     C_R   0.499739 0.500428 0.948218 0.033844
C32   C     C_R   0.500261 0.499573 0.051781 0.033844
C33   C     C_R   0.559538 0.420866 0.899288 0.003016
C34   C     C_R   0.440462 0.579135 0.100712 0.003012
C35   C     C_R   0.379717 0.660387 0.944451 0.202067
C36   C     C_R   0.620285 0.339617 0.055549 0.202066
C37   C     C_R   0.380880 0.658085 0.045659 -0.061517
C38   C     C_R   0.619121 0.341918 0.954341 -0.061509
C39   C     C_R   0.815809 0.481548 0.585959 -0.296136
C40   C     C_R   0.184190 0.518449 0.414040 -0.296134
C41   C     C_R   0.768182 0.502446 0.499437 -0.211376
C42   C     C_R   0.231817 0.497562 0.500564 -0.211376
C43   C     C_R   0.813513 0.523606 0.412633 0.621446
C44   C     C_R   0.186485 0.476416 0.587370 0.621451
C45   C     C_R   0.905983 0.522390 0.412484 -0.083377
C46   C     C_R   0.094016 0.477627 0.587518 -0.083382
C47   C     C_R   0.953493 0.500743 0.499895 -0.058654
C48   C     C_R   0.046506 0.499269 0.500106 -0.058655
C49   C     C_R   0.908132 0.480575 0.587065 0.008997
C50   C     C_R   0.091868 0.519429 0.412935 0.008998
C51   C     C_R   0.951790 0.542260 0.326309 -0.193369
C52   C     C_R   0.048209 0.457753 0.673692 -0.193368
Cu1   Cu    Cu3+1 0.500010 0.499980 0.597420 1.031892
Cu2   Cu    Cu3+1 0.499990 0.500020 0.402580 1.031893
H1    H     H_    0.780898 0.464994 0.652486 0.222510
H2    H     H_    0.219102 0.534992 0.347511 0.222511
H3    H     H_    0.443971 0.888749 0.358849 0.161720
H4    H     H_    0.556029 0.111251 0.641150 0.161720
H5    H     H_    0.333546 0.720337 0.080597 0.145903
H6    H     H_    0.666455 0.279665 0.919404 0.145903
H7    H     H_    0.916417 0.558887 0.258509 0.234204
H8    H     H_    0.083583 0.441126 0.741492 0.234205
H9    H     H_    0.246133 0.328211 0.270167 0.207212
H10   H     H_    0.753865 0.671778 0.729828 0.207211
H11   H     H_    0.313359 0.219221 0.413186 0.158976
H12   H     H_    0.686639 0.780772 0.586810 0.158975
H13   H     H_    0.516599 0.053059 0.232208 0.196924
H14   H     H_    0.483407 0.946945 0.767793 0.196922
N1    N     N_R   0.499960 0.499900 0.743810 -0.231956
N2    N     N_R   0.500040 0.500100 0.256190 -0.231954
O1    O     O_R   0.500000 0.319630 0.582270 -0.601166
O2    O     O_R   0.500000 0.680370 0.417730 -0.601163
O3    O     O_R   0.499990 0.319660 0.417730 -0.529566
O4    O     O_R   0.500010 0.680340 0.582270 -0.529568
O5    O     O_R   0.370260 0.499960 0.582280 -0.457244
O6    O     O_R   0.629740 0.500040 0.417720 -0.457245
O7    O     O_R   0.370250 0.499990 0.417740 -0.624087
O8    O     O_R   0.629750 0.500010 0.582260 -0.624088
C53   C     C_3   0.624110 0.330674 0.748236 -0.743836
H15   H     H_    0.623295 0.327222 0.670224 0.265496
H16   H     H_    0.692710 0.352620 0.768426 0.220156
H17   H     H_    0.611697 0.235072 0.772679 0.197040
C54   C     C_3   0.375890 0.669325 0.251764 -0.743836
H18   H     H_    0.376704 0.672778 0.329776 0.265496
H19   H     H_    0.388303 0.764928 0.227322 0.197039
H20   H     H_    0.307290 0.647380 0.231574 0.220156
F1    F     F_    0.386970 0.653293 0.735512 -0.646954
F2    F     F_    0.613029 0.346706 0.264488 -0.646963
C55   C     C_3   0.313530 0.749891 0.894060 -0.639648
H21   H     H_    0.348851 0.816877 0.849053 0.261904
H22   H     H_    0.267383 0.698528 0.848865 0.271513
H23   H     H_    0.272372 0.804691 0.945820 0.206195
C56   C     C_3   0.686476 0.250118 0.105940 -0.639654
H24   H     H_    0.732618 0.301486 0.151138 0.271511
H25   H     H_    0.651157 0.183126 0.150945 0.261906
H26   H     H_    0.727638 0.195325 0.054180 0.206196
F3    F     F_    0.768187 0.546354 0.328270 -0.633822
F4    F     F_    0.231811 0.453684 0.671735 -0.633816
F5    F     F_    0.086359 0.560160 0.241704 -0.647236
F6    F     F_    0.913641 0.439834 0.758294 -0.647235
F7    F     F_    0.306385 0.314287 0.093144 -0.608613
F8    F     F_    0.693615 0.685701 0.906851 -0.608615
F9    F     F_    0.455217 0.158476 0.072004 -0.617399
F10   F     F_    0.544788 0.841523 0.927995 -0.617398

loop_
_geom_bond_atom_site_label_1
_geom_bond_atom_site_label_2
_ccdc_geom_bond_type
C8    H12   S    
C26   C54   S    
C27   C29   A    
C18   C21   A    
Cu1   O4    S    
C51   H7    S    
Cu1   N1    S    
C39   C41   A    
Cu1   Cu2   S    
C12   H14   S    
C56   H24   S    
C23   C42   S    
C4    C52   A    
C35   C37   A    
C9    C22   S    
C45   C51   A    
C34   C37   A    
C46   C52   A    
C5    H9    S    
C6    H10   S    
C44   F4    S    
C36   C56   S    
C26   C34   A    
C39   H1    S    
C47   C48   A    
C44   C46   A    
C40   H2    S    
C28   F2    S    
C31   C33   A    
C13   F9    S    
C18   C20   A    
C27   N1    A    
Cu2   O7    S    
C40   C42   A    
C56   H25   S    
C24   C41   S    
C41   C43   A    
Cu1   O5    S    
C42   C44   A    
C2    O2    A    
C3    C50   A    
C11   H13   S    
C45   C47   A    
C10   C21   S    
C46   C48   A    
C47   C49   A    
C23   O5    A    
C5    C7    A    
C3    C51   A    
C24   O6    A    
C6    C8    A    
C15   F7    S    
C32   C34   A    
C7    H11   S    
Cu2   O3    S    
C9    C11   A    
C14   F10   S    
C54   H18   S    
Cu2   N2    S    
C1    O1    A    
C23   O7    A    
C55   H23   S    
C27   F1    S    
C48   C50   A    
C43   C45   A    
C37   H5    S    
C10   C12   A    
C38   H6    S    
C35   C55   S    
C16   F8    S    
C39   C49   A    
C20   C22   A    
C56   H26   S    
C13   C15   A    
C26   N2    A    
Cu2   O6    S    
C25   N1    A    
Cu1   O1    S    
C53   H16   S    
C24   O8    A    
C7    C9    A    
C1    C20   S    
C54   H19   S    
C2    C19   S    
C25   C53   S    
C31   C32   A    
C28   N2    A    
C43   F3    S    
C12   C14   A    
C2    O4    A    
C53   H17   S    
C29   C35   A    
C17   C22   A    
C4    F6    S    
C30   C36   A    
C4    C49   A    
C1    O3    A    
C36   C38   A    
Cu1   O8    S    
C29   C31   A    
C52   H8    S    
C30   C32   A    
C11   C13   A    
C40   C50   A    
C28   C30   A    
C17   C19   A    
C18   H4    S    
C14   C16   A    
C5    C15   A    
C6    C16   A    
C53   H15   S    
C3    F5    S    
C54   H20   S    
Cu2   O2    S    
C8    C10   A    
C55   H22   S    
C17   H3    S    
C33   C38   A    
C55   H21   S    
C25   C33   A    
C19   C21   A    
