data_mof_unit_12013.cif
_audit_creation_date              2012-12-10T18:58:13-0500
_audit_creation_method            fapswitch 2.2
_symmetry_space_group_name_H-M    P1
_symmetry_Int_Tables_number       1
_space_group_crystal_system       triclinic
_cell_length_a                    11.066999
_cell_length_b                    10.855165
_cell_length_c                    9.554622
_cell_angle_alpha                 90.757204
_cell_angle_beta                  103.111522
_cell_angle_gamma                 90.030773
_cell_volume                      1117.80727043

loop_
_atom_site_label
_atom_site_type_symbol
_atom_type_description
_atom_site_fract_x
_atom_site_fract_y
_atom_site_fract_z
_atom_type_partial_charge
C1    C     C_R   0.497793 0.262592 0.498645 0.806670
C2    C     C_R   0.487272 0.129840 0.495048 -0.090025
C3    C     C_R   0.469125 0.062848 0.365023 -0.220317
C4    C     C_R   0.470383 0.934106 0.366321 -0.229967
C5    C     C_R   0.489550 0.871100 0.497623 -0.054904
C6    C     C_R   0.491964 0.939278 0.623049 0.083474
C7    C     C_3   0.575547 0.935805 0.770085 0.148143
C8    C     C_3   0.573972 0.077039 0.769394 -0.238318
C9    C     C_R   0.606488 0.523417 0.102244 0.252022
C10   C     C_R   0.398252 0.463781 0.047060 -0.084658
C11   C     C_R   0.398272 0.463681 0.898500 -0.078734
C12   C     C_R   0.262686 0.498925 0.441218 0.860908
C13   C     C_R   0.606761 0.522766 0.954913 0.242577
C14   C     C_3   0.682169 0.637760 0.972121 -0.492534
C15   C     C_3   0.682035 0.638198 0.130575 -0.507618
C16   C     C_R   0.499166 0.737768 0.500301 0.839758
C17   C     C_R   0.737620 0.501216 0.558937 0.766154
C18   C     C_2   0.127443 0.494651 0.407503 -0.398201
C19   C     C_2   0.068227 0.495437 0.514687 -0.102476
C20   C     C_2   0.874070 0.505884 0.593309 0.250086
C21   C     C_2   0.933351 0.489475 0.486678 -0.185456
C22   C     C_R   0.491630 0.065905 0.621628 0.002312
Cu1   Cu    Cu3+1 0.499990 0.499980 0.640670 0.959258
Cu2   Cu    Cu3+1 0.500010 0.500020 0.359330 0.938247
H1    H     H_    0.882375 0.471417 0.376967 0.127561
H2    H     H_    0.315221 0.435824 0.079867 0.145067
H3    H     H_    0.315233 0.435244 0.821701 0.142103
H4    H     H_    0.775789 0.623417 0.951526 0.195775
H5    H     H_    0.628791 0.714326 0.913821 0.235618
H6    H     H_    0.775385 0.622188 0.200450 0.195366
H7    H     H_    0.630425 0.717049 0.163960 0.214487
H8    H     H_    0.120230 0.501132 0.625642 0.220231
H9    H     H_    0.076470 0.490168 0.295977 0.151396
H10   H     H_    0.459331 0.109259 0.263432 0.161865
H11   H     H_    0.461166 0.884609 0.265262 0.162434
H12   H     H_    0.529650 0.895201 0.851005 0.086118
H13   H     H_    0.521420 0.114895 0.846673 0.112512
N1    N     N_R   0.500780 0.500930 0.148120 -0.184612
N2    N     N_R   0.500790 0.500890 0.852210 -0.185589
O1    O     O_R   0.500000 0.319640 0.618810 -0.576018
O2    O     O_R   0.500010 0.319680 0.381230 -0.589676
O3    O     O_R   0.320680 0.500000 0.575130 -0.594417
O4    O     O_R   0.320690 0.500040 0.337550 -0.586783
O5    O     O_R   0.499990 0.680320 0.618770 -0.561723
O6    O     O_R   0.500000 0.680360 0.381190 -0.592127
O7    O     O_R   0.679310 0.499960 0.662450 -0.571558
O8    O     O_R   0.679320 0.500000 0.424870 -0.599442
C23   C     C_R   0.698491 0.140595 0.779997 0.205179
C24   C     C_R   0.771937 0.118310 0.679487 -0.087760
C25   C     C_R   0.887838 0.175018 0.696264 -0.188329
C26   C     C_R   0.931799 0.254259 0.813014 -0.079471
C27   C     C_R   0.858893 0.278994 0.911682 -0.141019
C28   C     C_R   0.742856 0.222615 0.895338 -0.150109
H14   H     H_    0.740372 0.056082 0.589123 0.165934
H15   H     H_    0.943951 0.156961 0.619119 0.139138
H16   H     H_    0.022036 0.297262 0.826377 0.150468
H17   H     H_    0.892486 0.341556 0.001254 0.122855
H18   H     H_    0.688181 0.242085 0.973706 0.107878
O9    O     O_3   0.942026 0.530060 0.731506 -0.757741
H19   H     H_    0.884584 0.540587 0.796160 0.330740
O10   O     O_3   0.690980 0.883658 0.767213 -0.721927
H20   H     H_    0.742459 0.893160 0.866311 0.329174

loop_
_geom_bond_atom_site_label_1
_geom_bond_atom_site_label_2
_ccdc_geom_bond_type
C16   O6    A    
C2    C22   A    
C27   H17   S    
C8    C22   S    
C28   H18   S    
C8    C23   S    
C15   H7    S    
C6    C7    S    
C7    H12   S    
C16   O5    A    
Cu1   O1    S    
Cu2   N1    S    
C25   H15   S    
C1    O1    A    
C11   H3    S    
C10   N1    A    
C10   H2    S    
C24   C25   A    
C2    C3    A    
C9    C15   S    
C4    H11   S    
C7    C8    S    
Cu1   O7    S    
C13   C14   S    
C17   O7    A    
C20   O9    S    
C11   N2    A    
Cu2   O2    S    
O10   H20   S    
Cu1   O3    S    
Cu1   N2    S    
Cu2   O6    S    
C1    O2    A    
C23   C24   A    
C19   C21   S    
C25   C26   A    
C12   O4    A    
C23   C28   A    
C18   H9    S    
C13   N2    A    
C10   C11   A    
C19   H8    S    
Cu1   Cu2   S    
C12   O3    A    
C24   H14   S    
C6    C22   A    
C9    N1    A    
O9    H19   S    
C17   C20   S    
C26   C27   A    
C20   C21   D    
C15   H6    S    
C1    C2    S    
C8    H13   S    
C12   C18   S    
C5    C6    A    
Cu2   O4    S    
C21   H1    S    
C14   C15   S    
C18   C19   D    
C5    C16   S    
C9    C13   A    
C14   H5    S    
C3    H10   S    
C14   H4    S    
Cu2   O8    S    
C7    O10   S    
C3    C4    A    
C17   O8    A    
C27   C28   A    
C4    C5    A    
Cu1   O5    S    
C26   H16   S    
