data_mof_unit_51492.cif
_audit_creation_date              2012-12-11T14:04:23-0500
_audit_creation_method            fapswitch 2.2
_symmetry_space_group_name_H-M    P1
_symmetry_Int_Tables_number       1
_space_group_crystal_system       triclinic
_cell_length_a                    19.288532
_cell_length_b                    10.999771
_cell_length_c                    19.011404
_cell_angle_alpha                 90.475046
_cell_angle_beta                  89.783006
_cell_angle_gamma                 89.734849
_cell_volume                      4033.42749392

loop_
_atom_site_label
_atom_site_type_symbol
_atom_type_description
_atom_site_fract_x
_atom_site_fract_y
_atom_site_fract_z
_atom_type_partial_charge
C1    C     C_R   0.240039 0.467667 0.646827 0.529021
C2    C     C_R   0.039150 0.657313 0.562436 -0.034489
C3    C     C_3   0.540615 0.413303 0.182063 -0.251924
C4    C     C_3   0.577582 0.519733 0.215692 -0.416960
C5    C     C_3   0.449224 0.359762 0.896474 0.029264
C6    C     C_3   0.499714 0.466535 0.889203 -0.178163
C7    C     C_3   0.493491 0.527969 0.817701 -0.412951
C8    C     C_R   0.459253 0.152549 0.438296 -0.035962
C9    C     C_R   0.539150 0.157313 0.562436 -0.034488
C10   C     C_R   0.931738 0.866931 0.458425 -0.089142
C11   C     C_R   0.032974 0.884189 0.559188 -0.095917
C12   C     C_R   0.431737 0.366931 0.458425 -0.089142
C13   C     C_R   0.532974 0.384189 0.559188 -0.095917
C14   C     C_R   0.943493 0.978186 0.491103 -0.124004
C15   C     C_R   0.996343 0.987804 0.539808 -0.127827
C16   C     C_R   0.443492 0.478186 0.491103 -0.124004
C17   C     C_R   0.760315 0.468198 0.353327 0.540370
C18   C     C_R   0.496343 0.487804 0.539809 -0.127827
C19   C     C_R   0.015207 0.767877 0.532611 0.016213
C20   C     C_R   0.969947 0.762893 0.474789 0.006215
C21   C     C_R   0.515206 0.267877 0.532611 0.016214
C22   C     C_R   0.469947 0.262893 0.474789 0.006216
C23   C     C_R   0.027226 0.546268 0.525992 0.018533
C24   C     C_R   0.979820 0.542556 0.470604 0.030574
C25   C     C_R   0.527226 0.046268 0.525992 0.018533
C26   C     C_R   0.479820 0.042556 0.470604 0.030574
C27   C     C_R   0.060726 0.436953 0.544442 -0.075847
C28   C     C_R   0.740039 0.967667 0.646827 0.529011
C29   C     C_R   0.955171 0.427549 0.448264 -0.070615
C30   C     C_R   0.560726 0.936953 0.544442 -0.075846
C31   C     C_R   0.455171 0.927549 0.448264 -0.070614
C32   C     C_R   0.041294 0.325432 0.516011 -0.112328
C33   C     C_R   0.986458 0.320310 0.469635 -0.117593
C34   C     C_R   0.541294 0.825432 0.516011 -0.112327
C35   C     C_R   0.486458 0.820310 0.469635 -0.117593
C36   C     C_2   0.253521 0.938201 0.909630 0.270587
C37   C     C_2   0.750874 0.919267 0.084498 0.342063
C38   C     C_2   0.753504 0.438165 0.909643 0.271024
C39   C     C_R   0.260315 0.968198 0.353327 0.540360
C40   C     C_2   0.250871 0.419279 0.084501 0.341949
C41   C     C_2   0.264237 0.966436 0.070571 -0.045618
C42   C     C_2   0.753253 0.906270 0.914830 -0.100786
C43   C     C_2   0.764214 0.466352 0.070583 -0.045596
C44   C     C_2   0.253229 0.406321 0.914848 -0.100928
C45   C     C_R   0.226174 0.871623 0.646875 0.546333
C46   C     C_R   0.773247 0.872999 0.352691 0.540622
C47   C     C_R   0.726174 0.371623 0.646875 0.546338
C48   C     C_R   0.273247 0.372999 0.352691 0.540622
C49   C     C_2   0.214490 0.001947 0.025303 0.224024
C50   C     C_2   0.276999 0.823496 0.532791 -0.154028
C51   C     C_2   0.787686 0.960896 0.967410 0.207044
C52   C     C_2   0.714468 0.501856 0.025313 0.224204
C53   C     C_2   0.287688 0.460928 0.967416 0.207121
C54   C     C_2   0.208227 0.933199 0.962568 -0.062059
C55   C     C_2   0.794703 0.897239 0.031603 -0.096548
C56   C     C_2   0.708212 0.433105 0.962580 -0.061937
C57   C     C_2   0.294703 0.397265 0.031608 -0.096731
C58   C     C_2   0.001543 0.670490 0.922292 0.314925
C59   C     C_2   0.012763 0.667789 0.088940 0.332255
C60   C     C_2   0.501528 0.170476 0.922285 0.315294
C61   C     C_2   0.727039 0.819482 0.467184 -0.154368
C62   C     C_2   0.512754 0.167796 0.088935 0.332183
C63   C     C_2   0.998998 0.581452 0.040052 0.009032
C64   C     C_2   0.017246 0.581389 0.966486 -0.022670
C65   C     C_2   0.498996 0.081452 0.040049 0.009119
C66   C     C_2   0.517249 0.081392 0.966485 -0.022597
C67   C     C_R   0.060336 0.650686 0.637415 0.538955
C68   C     C_R   0.939033 0.650340 0.362603 0.535709
C69   C     C_R   0.560336 0.150686 0.637415 0.538955
C70   C     C_R   0.439033 0.150340 0.362603 0.535713
C71   C     C_R   0.238496 0.468400 0.850536 0.575976
C72   C     C_2   0.776999 0.323496 0.532791 -0.154030
C73   C     C_R   0.772965 0.510986 0.141342 0.566452
C74   C     C_R   0.738503 0.968376 0.850527 0.575995
C75   C     C_R   0.272973 0.011017 0.141344 0.566431
C76   C     C_R   0.229916 0.881880 0.846468 0.599408
C77   C     C_R   0.771929 0.875727 0.150462 0.584460
C78   C     C_R   0.729914 0.381876 0.846470 0.599409
C79   C     C_R   0.271928 0.375730 0.150464 0.584455
C80   C     C_R   0.029736 0.654319 0.850934 0.561067
C81   C     C_R   0.973781 0.653206 0.153017 0.553666
C82   C     C_R   0.529734 0.154317 0.850931 0.561035
C83   C     C_2   0.227039 0.319482 0.467184 -0.154367
C84   C     C_R   0.473777 0.153207 0.153014 0.553712
C85   C     C_2   0.245950 0.906268 0.575632 -0.100103
C86   C     C_2   0.753331 0.906204 0.424563 -0.111312
C87   C     C_2   0.745950 0.406268 0.575632 -0.100105
C88   C     C_2   0.253331 0.406204 0.424563 -0.111312
C89   C     C_2   0.243178 0.914050 0.421066 -0.110799
C90   C     C_2   0.758335 0.913905 0.578821 -0.107677
C91   C     C_2   0.743178 0.414050 0.421066 -0.110796
C92   C     C_2   0.258335 0.413905 0.578821 -0.107679
C93   C     C_2   0.286146 0.842212 0.456713 -0.176185
C94   C     C_R   0.959253 0.652549 0.438296 -0.035963
C95   C     C_2   0.718668 0.836144 0.543682 -0.181060
C96   C     C_2   0.786146 0.342212 0.456713 -0.176185
C97   C     C_2   0.218668 0.336144 0.543682 -0.181060
C98   C     C_3   0.084268 0.824211 0.134904 0.071475
C99   C     C_3   0.040645 0.913240 0.182089 -0.252004
C100  C     C_3   0.077608 0.019659 0.215730 -0.416960
C101  C     C_3   0.949262 0.859811 0.896505 0.029033
C102  C     C_3   0.999737 0.966594 0.889201 -0.178068
C103  C     C_3   0.993477 0.028004 0.817697 -0.412978
C104  C     C_3   0.584240 0.324250 0.134893 0.071437
Cr1   Cr    Cr6+3 0.113970 0.508630 0.747920 1.055032
Cr2   Cr    Cr6+3 0.887700 0.820070 0.250200 0.997710
Cr3   Cr    Cr6+3 0.612300 0.320070 0.749800 0.984615
Cr4   Cr    Cr6+3 0.387700 0.320070 0.250200 0.997736
Cr5   Cr    Cr6+3 0.886030 0.508630 0.252080 1.038499
Cr6   Cr    Cr6+3 0.613970 0.008630 0.747920 1.055072
Cr7   Cr    Cr6+3 0.386030 0.008630 0.252080 1.038474
Cr8   Cr    Cr6+3 0.269200 0.666740 0.749850 1.091267
Cr9   Cr    Cr6+3 0.730800 0.666740 0.250150 1.047322
Cr10  Cr    Cr6+3 0.769200 0.166740 0.749850 1.091252
Cr11  Cr    Cr6+3 0.230800 0.166740 0.250150 1.047311
Cr12  Cr    Cr6+3 0.112300 0.820070 0.749800 0.984620
H1    H     H_    0.328034 0.794798 0.429950 0.127104
H2    H     H_    0.732406 0.815882 0.921420 0.149828
H3    H     H_    0.800038 0.394757 0.054277 0.161653
H4    H     H_    0.232339 0.315969 0.921458 0.149552
H5    H     H_    0.972135 0.498522 0.054444 0.152515
H6    H     H_    0.035993 0.494773 0.946289 0.179419
H7    H     H_    0.472138 0.998516 0.054441 0.152483
H8    H     H_    0.536018 0.994789 0.946292 0.179388
H9    H     H_    0.296000 0.737945 0.553624 0.152116
H10   H     H_    0.711560 0.731868 0.445790 0.157101
H11   H     H_    0.796000 0.237945 0.553624 0.152116
H12   H     H_    0.679313 0.784811 0.571126 0.127568
H13   H     H_    0.211560 0.231868 0.445790 0.157103
H14   H     H_    0.195862 0.946946 0.446120 0.113620
H15   H     H_    0.803773 0.951549 0.553213 0.119168
H16   H     H_    0.695862 0.446946 0.446120 0.113620
H17   H     H_    0.303773 0.451550 0.553213 0.119167
H18   H     H_    0.227090 0.992552 0.555863 0.095429
H19   H     H_    0.768968 0.994418 0.444787 0.093597
H20   H     H_    0.727090 0.492552 0.555864 0.095429
H21   H     H_    0.268968 0.494418 0.444787 0.093596
H22   H     H_    0.911345 0.055913 0.478794 0.099364
H23   H     H_    0.828034 0.294798 0.429950 0.127104
H24   H     H_    0.007471 0.074230 0.564503 0.109029
H25   H     H_    0.411345 0.555913 0.478794 0.099364
H26   H     H_    0.507471 0.574230 0.564503 0.109029
H27   H     H_    0.888776 0.857960 0.425183 0.156901
H28   H     H_    0.075091 0.897381 0.594424 0.170625
H29   H     H_    0.388776 0.357960 0.425183 0.156900
H30   H     H_    0.575091 0.397381 0.594424 0.170624
H31   H     H_    0.912665 0.419868 0.412613 0.153073
H32   H     H_    0.102200 0.437809 0.580994 0.155975
H33   H     H_    0.412665 0.919867 0.412613 0.153074
H34   H     H_    0.179313 0.284811 0.571126 0.127567
H35   H     H_    0.602200 0.937809 0.580994 0.155974
H36   H     H_    0.067937 0.243146 0.530973 0.094868
H37   H     H_    0.969343 0.234103 0.448575 0.103808
H38   H     H_    0.567937 0.743146 0.530973 0.094868
H39   H     H_    0.469343 0.734102 0.448575 0.103809
H40   H     H_    0.335085 0.194773 0.932823 0.341876
H41   H     H_    0.649038 0.155529 0.022547 0.374744
H42   H     H_    0.835436 0.694894 0.932710 0.342084
H43   H     H_    0.149054 0.655499 0.022496 0.374769
H44   H     H_    0.130127 0.872923 0.114911 0.215214
H45   H     H_    0.158896 0.886419 0.956647 0.147646
H46   H     H_    0.105943 0.749872 0.167838 0.144107
H47   H     H_    0.023780 0.863322 0.229477 0.177566
H48   H     H_    0.995438 0.949034 0.152454 0.230927
H49   H     H_    0.121898 0.985747 0.246758 0.196933
H50   H     H_    0.041670 0.066987 0.252813 0.114047
H51   H     H_    0.092581 0.086706 0.176061 0.250614
H52   H     H_    0.899712 0.897706 0.914254 0.154681
H53   H     H_    0.936046 0.815589 0.845421 0.131059
H54   H     H_    0.053781 0.935366 0.896541 0.227182
H55   H     H_    0.989370 0.034320 0.931487 0.224936
H56   H     H_    0.843032 0.847714 0.039507 0.133263
H57   H     H_    0.939269 0.057431 0.808012 0.183738
H58   H     H_    0.009620 0.964501 0.774949 0.160511
H59   H     H_    0.027641 0.108925 0.816268 0.166051
H60   H     H_    0.630102 0.372951 0.114899 0.215147
H61   H     H_    0.605911 0.249925 0.167840 0.144072
H62   H     H_    0.523745 0.363412 0.229458 0.177548
H63   H     H_    0.495411 0.449084 0.152419 0.231000
H64   H     H_    0.621861 0.485832 0.246739 0.196898
H65   H     H_    0.541638 0.567094 0.252754 0.114057
H66   H     H_    0.592572 0.586750 0.176013 0.250635
H67   H     H_    0.658888 0.386303 0.956653 0.147493
H68   H     H_    0.399664 0.397658 0.914190 0.154784
H69   H     H_    0.436035 0.315543 0.845383 0.131162
H70   H     H_    0.553753 0.435294 0.896564 0.227133
H71   H     H_    0.489337 0.534247 0.931493 0.225051
H72   H     H_    0.439288 0.557398 0.807989 0.183717
H73   H     H_    0.509656 0.464481 0.774956 0.160533
H74   H     H_    0.527656 0.608891 0.816300 0.166102
H75   H     H_    0.035806 0.106292 0.047758 0.370209
H76   H     H_    0.879828 0.213131 0.044813 0.368244
H77   H     H_    0.535813 0.606381 0.047723 0.370311
H78   H     H_    0.343033 0.347744 0.039510 0.133358
H79   H     H_    0.379711 0.713503 0.044792 0.368329
H80   H     H_    0.300073 0.894872 0.054252 0.161385
O1    O     O_R   0.043230 0.549300 0.667990 -0.497316
O2    O     O_R   0.832470 0.905110 0.169660 -0.525926
O3    O     O_R   0.667530 0.405110 0.830340 -0.565524
O4    O     O_R   0.332470 0.405110 0.169660 -0.525860
O5    O     O_R   0.054010 0.748440 0.822860 -0.526125
O6    O     O_R   0.945990 0.748440 0.177140 -0.523322
O7    O     O_R   0.554010 0.248440 0.822860 -0.526220
O8    O     O_R   0.445990 0.248440 0.177140 -0.523302
O9    O     O_3   0.165160 0.665150 0.749190 -0.289082
O10   O     O_3   0.834840 0.665150 0.250810 -0.301524
O11   O     O_3   0.665160 0.165150 0.749190 -0.289067
O12   O     O_R   0.956770 0.549300 0.332010 -0.508471
O13   O     O_3   0.334840 0.165150 0.250810 -0.301545
O14   O     O_R   0.178620 0.457600 0.674100 -0.535682
O15   O     O_R   0.821380 0.457600 0.325900 -0.521200
O16   O     O_R   0.678620 0.957600 0.674100 -0.535689
O17   O     O_R   0.321380 0.957600 0.325900 -0.521195
O18   O     O_R   0.284680 0.542100 0.669460 -0.529010
O19   O     O_R   0.715320 0.542100 0.330540 -0.542103
O20   O     O_R   0.784680 0.042100 0.669460 -0.529018
O21   O     O_R   0.215320 0.042100 0.330540 -0.542116
O22   O     O_R   0.262860 0.790390 0.676650 -0.494427
O23   O     O_R   0.543230 0.049300 0.667990 -0.497310
O24   O     O_R   0.737140 0.790390 0.323350 -0.488353
O25   O     O_R   0.762860 0.290390 0.676650 -0.494429
O26   O     O_R   0.237140 0.290390 0.323350 -0.488348
O27   O     O_R   0.167460 0.907030 0.670940 -0.554259
O28   O     O_R   0.832540 0.907030 0.329060 -0.540784
O29   O     O_R   0.667460 0.407030 0.670940 -0.554258
O30   O     O_R   0.332540 0.407030 0.329060 -0.540789
O31   O     O_R   0.053950 0.750220 0.675100 -0.513601
O32   O     O_R   0.946050 0.750220 0.324900 -0.515153
O33   O     O_R   0.553950 0.250220 0.675100 -0.513603
O34   O     O_R   0.456770 0.049300 0.332010 -0.508468
O35   O     O_R   0.446050 0.250220 0.324900 -0.515147
O36   O     O_R   0.043300 0.547370 0.827390 -0.488333
O37   O     O_R   0.956700 0.547370 0.172610 -0.516450
O38   O     O_R   0.543300 0.047370 0.827390 -0.488302
O39   O     O_R   0.456700 0.047370 0.172610 -0.516465
O40   O     O_R   0.178690 0.455820 0.821860 -0.485597
O41   O     O_R   0.821310 0.455820 0.178140 -0.492357
O42   O     O_R   0.678690 0.955820 0.821860 -0.485565
O43   O     O_R   0.321310 0.955820 0.178140 -0.492396
O44   O     O_R   0.284750 0.540170 0.828860 -0.461630
O45   O     O_R   0.262920 0.788600 0.824420 -0.409994
O46   O     O_R   0.715250 0.540170 0.171140 -0.513173
O47   O     O_R   0.784750 0.040170 0.828860 -0.461623
O48   O     O_R   0.215250 0.040170 0.171140 -0.513147
O49   O     O_2   0.386651 0.908565 0.942810 -0.258585
O50   O     O_2   0.361287 0.034060 0.840686 -0.313761
O51   O     O_3   0.338494 0.125669 0.965522 -0.570626
O52   O     O_2   0.633004 0.929480 0.014758 -0.302529
O53   O     O_2   0.626230 0.966669 0.141791 -0.276001
O54   O     O_3   0.677584 0.136888 0.064253 -0.506326
O55   O     O_2   0.886622 0.408738 0.942928 -0.258799
O56   O     O_R   0.737080 0.788600 0.175580 -0.448531
O57   O     O_2   0.861272 0.534012 0.840705 -0.313899
O58   O     O_3   0.838344 0.625822 0.965477 -0.570796
O59   O     O_2   0.132981 0.429462 0.014792 -0.302486
O60   O     O_2   0.126247 0.466753 0.141816 -0.276013
O61   O     O_3   0.177588 0.636896 0.064214 -0.506398
O62   O     O_3   0.047266 0.777347 0.074772 -0.524968
O63   O     O_3   0.972457 0.778479 0.948866 -0.542021
O64   O     O_3   0.547243 0.277366 0.074762 -0.525089
O65   O     O_3   0.472385 0.278426 0.948847 -0.541845
O66   O     O_2   0.155599 0.202096 0.089655 -0.235514
O67   O     O_R   0.762920 0.288600 0.824420 -0.410016
O68   O     O_2   0.142595 0.177447 0.963323 -0.283504
O69   O     O_3   0.070649 0.040291 0.042787 -0.548934
O70   O     O_2   0.873346 0.135903 0.918076 -0.288264
O71   O     O_2   0.755791 0.192149 0.953036 -0.289566
O72   O     O_3   0.844854 0.148597 0.051577 -0.509216
O73   O     O_2   0.655632 0.702084 0.089623 -0.235532
O74   O     O_2   0.642641 0.677399 0.963292 -0.283360
O75   O     O_3   0.570637 0.540343 0.042762 -0.548988
O76   O     O_2   0.373377 0.635858 0.918029 -0.288107
O77   O     O_2   0.255874 0.692239 0.953097 -0.289623
O78   O     O_R   0.237080 0.288600 0.175580 -0.448551
O79   O     O_3   0.345007 0.648514 0.051550 -0.509223
O80   O     O_R   0.167530 0.905110 0.830340 -0.565549
S1    S     S_3+6 0.337558 0.001461 0.913551 -0.014932
S2    S     S_3+6 0.668611 0.987008 0.076462 0.035956
S3    S     S_3+6 0.837513 0.501519 0.913577 -0.014899
S4    S     S_3+6 0.168610 0.487030 0.076469 0.035885
S5    S     S_3+6 0.146651 0.111430 0.032001 -0.005673
S6    S     S_3+6 0.816420 0.113592 0.970299 0.044111
S7    S     S_3+6 0.646662 0.611405 0.031980 -0.005503
S8    S     S_3+6 0.316485 0.613590 0.970294 0.044185

loop_
_geom_bond_atom_site_label_1
_geom_bond_atom_site_label_2
_ccdc_geom_bond_type
C3    C104  S    
C102  H54   S    
C58   O63   S    
C25   C30   A    
C43   C73   S    
C101  C102  S    
O68   S5    D    
C29   C33   A    
O59   S4    D    
O50   S1    D    
C8    C26   A    
C78   O67   A    
C80   O36   A    
Cr11  O26   S    
C75   O43   A    
C19   C20   A    
C17   C91   S    
C81   O37   A    
C5    H69   S    
C54   H45   S    
C37   C55   D    
H41   O54   S    
C96   H23   S    
C70   O34   A    
Cr4   O13   S    
O70   S6    D    
C9    C25   A    
C90   C95   D    
C104  H60   S    
Cr10  O11   S    
C73   O41   A    
C11   C19   A    
Cr9   O56   S    
C48   O26   A    
C13   C18   A    
C64   H6    S    
C100  H51   S    
C101  O63   S    
O54   S2    S    
C3    H62   S    
C9    C69   S    
Cr8   O9    S    
C83   H13   S    
C41   H80   S    
C69   O33   A    
H76   O72   S    
C82   O7    A    
C31   H33   S    
C33   H37   S    
C43   C52   D    
O66   S5    D    
Cr2   O6    S    
C44   H4    S    
C49   C54   S    
C98   C99   S    
C12   C22   A    
Cr6   O38   S    
C103  H57   S    
C46   O28   A    
O53   S2    D    
C76   O80   A    
C44   C71   S    
C100  H50   S    
C34   C35   A    
C104  O64   S    
Cr12  O80   S    
C3    H63   S    
C70   O35   A    
C20   C94   A    
C75   O48   A    
C36   C76   S    
C50   C85   D    
C63   H5    S    
C91   C96   D    
C24   C29   A    
C60   C82   S    
C44   C53   D    
O75   S7    S    
Cr2   O28   S    
C73   O46   A    
C14   H22   S    
C10   C20   A    
C27   H32   S    
Cr8   O44   S    
C32   H36   S    
C68   O12   A    
C8    C22   A    
C97   H34   S    
C48   C88   S    
C59   O62   S    
C101  H53   S    
Cr6   O11   S    
C40   C57   D    
C23   C27   A    
C4    H65   S    
O57   S3    D    
C11   H28   S    
Cr9   O24   S    
Cr3   O11   S    
Cr12  O9    S    
C58   C80   S    
C37   S2    S    
Cr2   O2    S    
C98   O62   S    
C92   H17   S    
Cr1   O1    S    
Cr10  O47   S    
C47   O25   A    
C60   C66   D    
C26   C31   A    
H43   O61   S    
C21   C22   A    
C5    O65   S    
C45   O22   A    
H75   O69   S    
Cr2   O10   S    
C102  C103  S    
C93   H1    S    
C13   H30   S    
C4    H64   S    
C95   H12   S    
C41   C49   D    
C98   H46   S    
O60   S4    D    
C92   C97   D    
Cr12  O5    S    
C34   H38   S    
C58   C64   D    
C42   C51   D    
C36   S1    S    
O51   S1    S    
C42   C74   S    
C46   O24   A    
C30   C34   A    
Cr12  O31   S    
O69   S5    S    
C45   O27   A    
Cr1   O36   S    
C12   C16   A    
C7    H72   S    
C18   H26   S    
C84   O39   A    
C27   C32   A    
Cr4   O4    S    
C2    C67   S    
C10   C14   A    
C28   O20   A    
C77   O56   A    
C31   C35   A    
Cr11  O13   S    
C42   H2    S    
C91   H16   S    
C38   C78   S    
O71   S6    D    
C67   O1    A    
C25   C26   A    
C2    C19   A    
C37   C77   S    
C6    H71   S    
O76   S8    D    
C103  H58   S    
C68   C94   S    
Cr1   O14   S    
C99   H48   S    
O72   S6    S    
C100  H49   S    
C47   C87   S    
C12   H29   S    
C74   O42   A    
C101  H52   S    
C45   C85   S    
Cr10  O67   S    
H42   O58   S    
Cr3   O7    S    
C61   C95   S    
Cr6   O23   S    
Cr9   O10   S    
C24   C94   A    
C41   C75   S    
C7    H74   S    
C48   O30   A    
O58   S3    S    
C38   S3    S    
Cr7   O39   S    
C104  H61   S    
C47   O29   A    
C67   O31   A    
C23   C24   A    
C103  H59   S    
C40   C79   S    
C13   C21   A    
Cr8   O18   S    
C51   S6    S    
C50   H9    S    
C71   O40   A    
O79   S8    S    
C6    C7    S    
C99   H47   S    
C90   H15   S    
Cr8   O45   S    
Cr11  O21   S    
Cr10  O20   S    
C98   H44   S    
C65   C66   S    
C79   O78   A    
C11   C15   A    
Cr3   O33   S    
H79   O79   S    
O74   S7    D    
Cr1   O40   S    
C66   H8    S    
C59   C63   D    
C78   O3    A    
C74   O47   A    
Cr7   O13   S    
C62   O64   S    
C55   H56   S    
C2    C23   A    
C72   C87   D    
C53   S8    S    
C15   H24   S    
C77   O2    A    
C102  H55   S    
C80   O5    A    
C62   C84   S    
C85   H18   S    
C53   C57   S    
C79   O4    A    
C5    H68   S    
C62   C65   D    
Cr7   O43   S    
C1    O14   A    
C69   O23   A    
O77   S8    D    
O52   S2    D    
C87   H20   S    
C39   O21   A    
Cr6   O16   S    
C72   H11   S    
C59   C81   S    
C35   H39   S    
C63   C64   S    
C17   O15   A    
H40   O51   S    
Cr7   O17   S    
C29   H31   S    
C28   C90   S    
C68   O32   A    
C50   C93   S    
Cr1   O9    S    
C81   O6    A    
C56   H67   S    
Cr5   O41   S    
C28   O16   A    
C6    H70   S    
Cr6   O42   S    
C8    C70   S    
C99   C100  S    
C57   H78   S    
C60   O65   S    
C39   O17   A    
C32   C33   A    
Cr12  O27   S    
C82   O38   A    
C76   O45   A    
Cr4   O8    S    
Cr5   O15   S    
C71   O44   A    
C52   S7    S    
Cr3   O3    S    
Cr11  O78   S    
C9    C21   A    
C30   H35   S    
C5    C6    S    
Cr4   O30   S    
H77   O75   S    
Cr3   O29   S    
Cr2   O32   S    
C49   S5    S    
C16   H25   S    
C51   C55   S    
C10   H27   S    
C65   H7    S    
Cr10  O25   S    
C89   C93   D    
Cr5   O10   S    
Cr5   O12   S    
O55   S3    D    
C88   H21   S    
C1    C92   S    
C36   C54   D    
C61   C86   D    
C89   H14   S    
Cr11  O48   S    
C72   C96   S    
C52   C56   S    
C86   H19   S    
C7    H73   S    
C61   H10   S    
C38   C56   D    
C40   S4    S    
O61   S4    S    
C16   C18   A    
Cr9   O46   S    
C83   C97   S    
C1    O18   A    
Cr7   O34   S    
Cr8   O22   S    
C14   C15   A    
O73   S7    D    
O49   S1    D    
C4    H66   S    
C84   O8    A    
C17   O19   A    
C83   C88   D    
Cr9   O19   S    
C39   C89   S    
C3    C4    S    
C43   H3    S    
C46   C86   S    
Cr4   O35   S    
Cr5   O37   S    
