data_mof_unit_46814.cif
_audit_creation_date              2012-12-10T18:05:16-0500
_audit_creation_method            fapswitch 2.2
_symmetry_space_group_name_H-M    P1
_symmetry_Int_Tables_number       1
_space_group_crystal_system       triclinic
_cell_length_a                    9.634289
_cell_length_b                    10.933451
_cell_length_c                    17.138918
_cell_angle_alpha                 84.231063
_cell_angle_beta                  95.656578
_cell_angle_gamma                 89.307188
_cell_volume                      1787.01428995

loop_
_atom_site_label
_atom_site_type_symbol
_atom_type_description
_atom_site_fract_x
_atom_site_fract_y
_atom_site_fract_z
_atom_type_partial_charge
C1    C     C_R   0.499738 0.263812 0.492097 0.814956
C2    C     C_R   0.064187 0.582525 0.449523 0.207216
C3    C     C_R   0.519396 0.503061 0.651622 0.807353
C4    C     C_R   0.480852 0.497295 0.348578 0.804671
C5    C     C_R   0.530938 0.506194 0.740135 -0.120797
C6    C     C_R   0.472529 0.490040 0.260856 -0.115334
C7    C     C_R   0.408700 0.531262 0.777187 0.051131
C8    C     C_R   0.591806 0.445469 0.228886 0.048113
C9    C     C_R   0.402534 0.491722 0.857989 -0.059973
C10   C     C_R   0.613054 0.480663 0.149505 -0.046051
C11   C     C_R   0.526933 0.456492 0.905528 0.232369
C12   C     C_R   0.500497 0.736792 0.506731 0.809769
C13   C     C_R   0.499826 0.531718 0.097525 0.224905
C14   C     C_R   0.653055 0.447794 0.872054 -0.106854
C15   C     C_R   0.373100 0.560961 0.126122 -0.121248
C16   C     C_R   0.656625 0.472495 0.789452 -0.146696
C17   C     C_R   0.358409 0.539726 0.207825 -0.134182
C18   C     C_R   0.372880 0.066899 0.486677 -0.059060
C19   C     C_R   0.628556 0.934439 0.507224 -0.048704
C20   C     C_3   0.687188 0.349810 0.277130 -0.693662
C21   C     C_3   0.291150 0.611320 0.733582 -0.694453
C22   C     C_2   0.755147 0.476796 0.121753 0.907276
C23   C     C_R   0.375933 0.940687 0.512634 0.068917
C24   C     C_2   0.267097 0.478621 0.893659 0.920742
C25   C     C_2   0.781479 0.413198 0.925415 0.970871
C26   C     C_2   0.255704 0.612874 0.068816 0.954227
C27   C     C_2   0.794068 0.467439 0.757790 0.921139
C28   C     C_2   0.221178 0.563877 0.235063 0.899690
C29   C     C_2   0.238114 0.129527 0.453166 0.893012
C30   C     C_2   0.764163 0.871869 0.538122 0.891308
C31   C     C_3   0.251055 0.888541 0.550650 -0.721993
C32   C     C_3   0.755997 0.114438 0.450313 -0.734910
C33   C     C_3   0.168091 0.329041 0.612872 -0.726803
C34   C     C_R   0.626357 0.061348 0.483481 0.065295
C35   C     C_3   0.830799 0.663918 0.383328 -0.712360
C36   C     C_3   0.873098 0.317161 0.602807 -0.720203
C37   C     C_3   0.125959 0.681473 0.396135 -0.707510
C38   C     C_R   0.501708 0.871664 0.513147 -0.135914
C39   C     C_R   0.499866 0.129957 0.482877 -0.133572
C40   C     C_R   0.084360 0.418079 0.551281 0.243029
C41   C     C_R   0.915410 0.580881 0.448088 0.247613
C42   C     C_R   0.935615 0.417265 0.550404 0.204579
Cu1   Cu    Cu3+1 0.640660 0.500020 0.500000 0.957195
Cu2   Cu    Cu3+1 0.359340 0.499980 0.500000 0.958476
H1    H     H_    0.633320 0.305217 0.326044 0.211534
H2    H     H_    0.052751 0.606486 0.028242 0.395819
H3    H     H_    0.935270 0.554191 0.694026 0.318084
H4    H     H_    0.054934 0.492064 0.285112 0.321841
H5    H     H_    0.137529 0.242996 0.364963 0.358606
H6    H     H_    0.876645 0.776580 0.629863 0.353449
H7    H     H_    0.268403 0.795261 0.580226 0.227685
H8    H     H_    0.226968 0.945873 0.597766 0.239416
H9    H     H_    0.158241 0.889783 0.507482 0.266089
H10   H     H_    0.750477 0.212177 0.428761 0.239365
H11   H     H_    0.847883 0.099687 0.494244 0.263595
H12   H     H_    0.709207 0.273505 0.241779 0.265179
H13   H     H_    0.776822 0.065826 0.398655 0.245548
H14   H     H_    0.154290 0.355081 0.672590 0.201590
H15   H     H_    0.132401 0.233757 0.608737 0.233949
H16   H     H_    0.279746 0.322523 0.610335 0.268235
H17   H     H_    0.870028 0.758829 0.379219 0.235530
H18   H     H_    0.837739 0.626560 0.325896 0.194509
H19   H     H_    0.721059 0.677735 0.389677 0.267395
H20   H     H_    0.764021 0.329723 0.611630 0.270095
H21   H     H_    0.886153 0.228119 0.579550 0.215758
H22   H     H_    0.927916 0.307581 0.662412 0.237017
H23   H     H_    0.785745 0.391300 0.299954 0.238651
H24   H     H_    0.235970 0.670873 0.388892 0.271790
H25   H     H_    0.072372 0.685834 0.336281 0.229668
H26   H     H_    0.108976 0.771970 0.416899 0.217248
H27   H     H_    0.325408 0.663969 0.681051 0.214890
H28   H     H_    0.199730 0.555353 0.717060 0.230918
H29   H     H_    0.260981 0.683611 0.770112 0.260287
H30   H     H_    0.946249 0.395740 0.129606 0.370009
H31   H     H_    0.156189 0.380433 0.971275 0.366053
H32   H     H_    0.879631 0.289060 0.008100 0.345096
N1    N     N_2   0.528717 0.443252 0.988852 -0.167557
N2    N     N_2   0.506385 0.543639 0.014720 -0.176617
N3    N     N_R   0.852070 0.500030 0.499980 -0.186150
N4    N     N_R   0.147930 0.499970 0.500020 -0.184608
O1    O     O_R   0.618740 0.319660 0.500000 -0.596683
O2    O     O_R   0.853383 0.384838 0.152235 -0.762370
O3    O     O_2   0.168458 0.549293 0.872055 -0.538785
O4    O     O_R   0.252531 0.382155 0.952226 -0.724692
O5    O     O_2   0.883062 0.479084 0.924622 -0.536832
O6    O     O_R   0.785393 0.305012 0.976577 -0.718984
O7    O     O_2   0.275797 0.698763 0.020052 -0.532287
O8    O     O_R   0.123030 0.562945 0.070072 -0.739438
O9    O     O_2   0.873682 0.379968 0.779209 -0.608157
O10   O     O_R   0.837713 0.567169 0.709506 -0.698317
O11   O     O_2   0.162324 0.663611 0.215887 -0.592962
O12   O     O_R   0.381260 0.680340 0.500000 -0.594716
O13   O     O_R   0.153783 0.468818 0.276069 -0.716278
O14   O     O_2   0.132436 0.116272 0.486807 -0.634620
O15   O     O_R   0.233608 0.204953 0.381989 -0.713837
O16   O     O_2   0.862343 0.873564 0.498052 -0.635115
O17   O     O_R   0.778622 0.811099 0.614228 -0.705787
O18   O     O_R   0.381170 0.319630 0.500010 -0.572168
O19   O     O_R   0.618830 0.680370 0.499990 -0.571568
O20   O     O_R   0.631780 0.498870 0.613920 -0.552461
O21   O     O_R   0.368220 0.501130 0.386080 -0.548076
O22   O     O_R   0.394210 0.498840 0.613930 -0.592080
O23   O     O_R   0.605790 0.501160 0.386070 -0.592653
O24   O     O_2   0.787640 0.558011 0.072944 -0.544674

loop_
_geom_bond_atom_site_label_1
_geom_bond_atom_site_label_2
_ccdc_geom_bond_type
C4    O23   A    
C33   H14   S    
C37   H25   S    
C20   H23   S    
C36   C42   S    
C31   H8    S    
C20   H12   S    
N1    N2    D    
C10   C22   S    
C30   O17   S    
C8    C20   S    
C21   H27   S    
C22   O2    S    
C24   O3    D    
Cu1   O19   S    
C29   O14   D    
C11   C14   A    
C36   H22   S    
H31   O4    S    
C2    C41   A    
Cu1   N3    S    
C37   H24   S    
C21   H29   S    
C22   O24   D    
C27   O10   S    
C7    C9    A    
C12   O19   A    
C30   O16   D    
C11   N1    S    
Cu2   O18   S    
C3    O20   A    
C26   O7    D    
C5    C16   A    
C40   N4    A    
C28   O11   D    
C32   H11   S    
C20   H1    S    
Cu2   O12   S    
C16   C27   S    
C40   C42   A    
C42   N3    A    
C33   H15   S    
C37   H26   S    
C32   H13   S    
H30   O2    S    
C32   H10   S    
H2    O8    S    
C33   C40   S    
H4    O13   S    
C21   H28   S    
C34   C39   A    
Cu2   N4    S    
Cu1   O20   S    
C4    C6    S    
C5    C7    A    
Cu2   O22   S    
C36   H21   S    
C15   C26   S    
C6    C8    A    
C7    C21   S    
C10   C13   A    
H5    O15   S    
C18   C23   A    
C28   O13   S    
C32   C34   S    
C18   C39   A    
C19   C38   A    
C4    O21   A    
C25   O5    D    
C35   H17   S    
C18   C29   S    
C31   H9    S    
C9    C11   A    
C3    O22   A    
C26   O8    S    
C33   H16   S    
C13   C15   A    
Cu1   Cu2   S    
Cu1   O1    S    
H3    O10   S    
C14   C16   A    
H32   O6    S    
C29   O15   S    
C15   C17   A    
C6    C17   A    
C13   N2    S    
H6    O17   S    
C17   C28   S    
C12   O12   A    
C31   H7    S    
C3    C5    S    
C19   C34   A    
C1    O18   A    
C41   N3    A    
Cu2   O21   S    
C9    C24   S    
C23   C38   A    
C24   O4    S    
C2    C37   S    
C25   O6    S    
C27   O9    D    
C35   H18   S    
C14   C25   S    
C12   C38   S    
C35   C41   S    
Cu1   O23   S    
C2    N4    A    
C1    C39   S    
C8    C10   A    
C35   H19   S    
C36   H20   S    
C19   C30   S    
C1    O1    A    
C23   C31   S    
