data_mof_unit_13356.cif
_audit_creation_date              2012-12-10T16:57:03-0500
_audit_creation_method            fapswitch 2.2
_symmetry_space_group_name_H-M    P1
_symmetry_Int_Tables_number       1
_space_group_crystal_system       triclinic
_cell_length_a                    7.853559
_cell_length_b                    8.550225
_cell_length_c                    17.094474
_cell_angle_alpha                 93.277913
_cell_angle_beta                  79.861721
_cell_angle_gamma                 93.980051
_cell_volume                      1126.05809119

loop_
_atom_site_label
_atom_site_type_symbol
_atom_type_description
_atom_site_fract_x
_atom_site_fract_y
_atom_site_fract_z
_atom_type_partial_charge
C1    C     C_R   0.545963 0.794466 0.498046 0.959070
C2    C     C_R   0.399804 0.545319 0.230919 -0.276615
C3    C     C_R   0.611128 0.477498 0.848023 -0.234151
C4    C     C_R   0.388919 0.522704 0.151981 -0.234148
C5    C     C_R   0.489454 0.563976 0.898772 0.156166
C6    C     C_R   0.510585 0.436241 0.101220 0.156172
C7    C     C_R   0.355577 0.633146 0.870186 0.177529
C8    C     C_R   0.644456 0.367036 0.129794 0.177540
C9    C     C_R   0.344826 0.609639 0.788841 0.177029
C10   C     C_R   0.655199 0.390478 0.211142 0.177031
C11   C     C_2   0.498557 0.567641 0.982520 -0.222770
C12   C     C_R   0.454037 0.205533 0.501954 0.959082
C13   C     C_2   0.501457 0.432588 0.017475 -0.222778
C14   C     C_3   0.951026 0.412551 0.237084 -0.734875
C15   C     C_3   0.048973 0.587577 0.762930 -0.734896
C16   C     C_3   0.220657 0.725098 0.924881 -0.941142
C17   C     C_3   0.779370 0.275104 0.075085 -0.941171
C18   C     C_3   0.010971 0.304865 0.450557 -0.525494
C19   C     C_3   0.989028 0.695134 0.549444 -0.525492
C20   C     C_2   0.569951 0.958277 0.496943 -0.384457
C21   C     C_2   0.430049 0.041723 0.503058 -0.384464
C22   C     C_R   0.477132 0.505627 0.653248 0.887669
C23   C     C_R   0.522870 0.494385 0.346752 0.887673
C24   C     C_R   0.468991 0.520354 0.738726 -0.109994
C25   C     C_R   0.531025 0.479726 0.261272 -0.109997
C26   C     C_R   0.600228 0.454810 0.769089 -0.276622
H1    H     H_    0.696344 0.386206 0.731452 0.182400
H2    H     H_    0.049602 0.356711 0.191429 0.223806
H3    H     H_    0.996345 0.415854 0.294986 0.252079
H4    H     H_    0.940201 0.535540 0.221345 0.233879
H5    H     H_    0.201646 0.796678 0.770214 0.219340
H6    H     H_    0.950397 0.643556 0.808537 0.223816
H7    H     H_    0.059745 0.464637 0.778767 0.233860
H8    H     H_    0.003682 0.584113 0.705013 0.252099
H9    H     H_    0.238760 0.733038 0.987754 0.236394
H10   H     H_    0.224773 0.846888 0.905116 0.233926
H11   H     H_    0.089877 0.667929 0.923867 0.256690
H12   H     H_    0.303687 0.613903 0.268567 0.182404
H13   H     H_    0.761291 0.267237 0.012207 0.236396
H14   H     H_    0.910159 0.332232 0.076122 0.256686
H15   H     H_    0.775208 0.153287 0.094821 0.233916
H16   H     H_    0.918413 0.247112 0.414384 0.184614
H17   H     H_    0.137558 0.313736 0.410587 0.211788
H18   H     H_    0.011496 0.230492 0.501647 0.188332
H19   H     H_    0.081586 0.752887 0.585617 0.184623
H20   H     H_    0.988503 0.769509 0.498354 0.188330
H21   H     H_    0.862441 0.686262 0.589414 0.211793
H22   H     H_    0.499291 0.320458 0.984170 0.160850
H23   H     H_    0.500723 0.679772 0.015824 0.160836
H24   H     H_    0.285728 0.574965 0.129889 0.158385
H25   H     H_    0.714326 0.425265 0.870123 0.158385
H26   H     H_    0.702007 0.009574 0.491144 0.169956
H27   H     H_    0.297993 0.990426 0.508856 0.169956
H28   H     H_    0.798433 0.203433 0.229710 0.219357
N1    N     N_2   0.953500 0.457650 0.478520 -0.001918
N2    N     N_2   0.046500 0.542350 0.521480 -0.001924
N3    N     N_2   0.786780 0.321722 0.243094 -0.295215
N4    N     N_2   0.213248 0.678368 0.756875 -0.295194
O1    O     O_R   0.388470 0.738640 0.505270 -0.613278
O2    O     O_R   0.611530 0.261360 0.494730 -0.613275
O3    O     O_R   0.679650 0.711510 0.491500 -0.644240
O4    O     O_R   0.320350 0.288490 0.508500 -0.644238
O5    O     O_R   0.337210 0.515200 0.623500 -0.583999
O6    O     O_R   0.662790 0.484800 0.376500 -0.583993
O7    O     O_R   0.628380 0.488060 0.609730 -0.640949
O8    O     O_R   0.371620 0.511940 0.390270 -0.640950
Zn1   Zn    Zn3+2 0.305580 0.518120 0.509190 0.939188
Zn2   Zn    Zn3+2 0.694420 0.481880 0.490810 0.939190

loop_
_geom_bond_atom_site_label_1
_geom_bond_atom_site_label_2
_ccdc_geom_bond_type
C19   N2    S    
H5    N4    S    
C13   H22   S    
C2    C4    A    
N1    N2    D    
C19   H19   S    
C9    C24   A    
C11   H23   S    
C18   H18   S    
N2    Zn1   S    
C12   O4    A    
C2    H12   S    
C15   H8    S    
C8    C17   S    
C16   H11   S    
O7    Zn2   S    
O1    Zn1   S    
C1    O1    A    
N1    Zn2   S    
C19   H20   S    
C15   H6    S    
C20   H26   S    
C18   H17   S    
C16   H10   S    
C6    C13   S    
C21   H27   S    
C11   C13   D    
O3    Zn2   S    
C26   H1    S    
C18   N1    S    
C14   H4    S    
O6    Zn2   S    
C10   C25   A    
C8    C10   A    
C7    C16   S    
C24   C26   A    
C5    C11   S    
C2    C25   A    
O5    Zn1   S    
C23   C25   S    
C16   H9    S    
C15   N4    S    
C22   C24   S    
C17   H15   S    
O4    Zn1   S    
C14   H3    S    
C23   O8    A    
C12   O2    A    
C7    C9    A    
C10   N3    S    
O8    Zn1   S    
C20   C21   D    
O2    Zn2   S    
C4    C6    A    
C9    N4    S    
C17   H13   S    
C19   H21   S    
C4    H24   S    
C5    C7    A    
C14   N3    S    
C3    H25   S    
C23   O6    A    
C1    C20   S    
C6    C8    A    
C18   H16   S    
C14   H2    S    
C22   O5    A    
C17   H14   S    
C12   C21   S    
C22   O7    A    
C3    C26   A    
C15   H7    S    
C3    C5    A    
H28   N3    S    
C1    O3    A    
