data_mof_unit_64253.cif
_audit_creation_date              2012-12-10T17:57:09-0500
_audit_creation_method            fapswitch 2.2
_symmetry_space_group_name_H-M    P1
_symmetry_Int_Tables_number       1
_space_group_crystal_system       triclinic
_cell_length_a                    18.802903
_cell_length_b                    18.659038
_cell_length_c                    18.915321
_cell_angle_alpha                 109.920281
_cell_angle_beta                  109.736362
_cell_angle_gamma                 109.52558
_cell_volume                      5059.56723207

loop_
_atom_site_label
_atom_site_type_symbol
_atom_type_description
_atom_site_fract_x
_atom_site_fract_y
_atom_site_fract_z
_atom_type_partial_charge
Br1   Br    Br    0.750852 0.441403 0.572205 -0.374297
Br2   Br    Br    0.977021 0.905008 0.211799 -0.275157
Br3   Br    Br    0.576101 0.523235 0.776411 -0.221821
Br4   Br    Br    0.669223 0.369825 0.824333 -0.231664
Br5   Br    Br    0.753534 0.691283 0.796388 -0.194347
Br6   Br    Br    0.921823 0.701125 0.929182 -0.290717
Br7   Br    Br    0.142410 0.304961 0.598965 -0.334070
Br8   Br    Br    0.214055 0.045509 0.420367 -0.323578
Br9   Br    Br    0.441445 0.686331 0.390308 -0.355069
Br10  Br    Br    0.194553 0.320567 0.265150 -0.329495
Br11  Br    Br    0.741990 0.813248 0.679217 -0.332213
Br12  Br    Br    0.774071 0.317993 0.715562 -0.341635
C1    C     C_R   0.372319 0.378479 0.491510 0.975743
C2    C     C_R   0.293693 0.308136 0.476713 -0.384310
C3    C     C_R   0.331586 0.577092 0.307890 0.253071
C4    C     C_R   0.617484 0.496796 0.620637 0.952041
C5    C     C_R   0.268589 0.575661 0.241773 -0.146189
C6    C     C_R   0.185664 0.499531 0.183743 -0.110288
C7    C     C_R   0.165741 0.424201 0.190999 -0.163523
C8    C     C_R   0.228784 0.423893 0.255165 0.253308
C9    C     C_R   0.312433 0.500006 0.313013 -0.179119
C10   C     C_R   0.740088 0.773754 0.569977 0.283755
C11   C     C_R   0.803989 0.835193 0.568462 -0.259725
C12   C     C_3   0.805545 0.501822 0.814993 -0.359798
C13   C     C_R   0.813751 0.811461 0.496138 -0.239987
C14   C     C_R   0.758975 0.726330 0.421988 0.258566
C15   C     C_R   0.684780 0.667751 0.416617 0.315719
C16   C     C_R   0.617857 0.621124 0.497907 0.974439
C17   C     C_R   0.680196 0.688800 0.494249 -0.282780
C18   C     C_R   0.000523 0.379219 0.880672 0.930593
C19   C     C_R   0.876338 0.504373 0.881982 1.024868
C20   C     C_R   0.001598 0.620498 0.120842 1.000474
C21   C     C_R   0.118566 0.499704 0.117787 0.975035
C22   C     C_R   0.003284 0.882618 0.380401 1.012495
C23   C     C_3   0.842492 0.590612 0.814616 0.047131
C24   C     C_R   0.120245 0.121510 0.501763 0.991622
C25   C     C_R   0.999391 0.119707 0.619389 0.874749
C26   C     C_R   0.880085 0.878892 0.498414 0.983368
C27   C     C_R   0.083567 0.322310 0.823779 0.436117
C28   C     C_R   0.378643 0.499529 0.379144 0.979639
C29   C     C_R   0.080781 0.258193 0.756892 -0.171212
C30   C     C_R   0.000290 0.185719 0.686145 -0.084305
C31   C     C_R   0.921625 0.173863 0.681891 -0.142907
C32   C     C_R   0.923374 0.236076 0.748870 -0.155964
C33   C     C_R   0.003343 0.311785 0.817940 -0.180786
C34   C     C_3   0.721392 0.482579 0.827047 0.531543
C35   C     C_R   0.992847 0.752411 0.174502 -0.149776
C36   C     C_R   0.992094 0.817498 0.236379 0.300026
C37   C     C_R   0.006065 0.818466 0.314559 -0.163254
C38   C     C_R   0.024222 0.757285 0.331320 -0.168717
C39   C     C_R   0.022364 0.690316 0.268475 0.419186
C40   C     C_3   0.704846 0.420123 0.647475 0.450436
C41   C     C_R   0.005465 0.688084 0.189198 -0.204575
C42   C     C_3   0.780379 0.428469 0.724068 -0.054843
C43   C     C_3   0.768397 0.589640 0.745922 0.088721
C44   C     C_3   0.647936 0.474280 0.748549 0.021046
C45   C     C_R   0.245355 0.331264 0.514537 0.376456
C46   C     C_3   0.682854 0.495114 0.689172 -0.386182
C47   C     C_R   0.194635 0.271523 0.530442 0.175492
C48   C     C_R   0.185795 0.187637 0.500920 -0.286956
C49   C     C_R   0.224396 0.160654 0.453873 0.161792
C50   C     C_R   0.271259 0.217822 0.433294 0.376807
H1    H     H_    0.283367 0.634879 0.237571 0.210286
H2    H     H_    0.790333 0.602656 0.701598 0.134117
H3    H     H_    0.890240 0.592970 0.791842 0.145712
H4    H     H_    0.594303 0.404651 0.706447 0.182593
H5    H     H_    0.683320 0.567203 0.009769 0.410896
H6    H     H_    0.139560 0.465093 0.523096 0.403602
H7    H     H_    0.317627 0.199998 0.254000 0.386766
H8    H     H_    0.585350 0.181937 0.481190 0.404262
H9    H     H_    0.908355 0.703504 0.437011 0.371598
H10   H     H_    0.453297 0.508478 0.247674 0.389948
H11   H     H_    0.321608 0.438072 0.966136 0.411521
H12   H     H_    0.101098 0.365593 0.146913 0.202198
H13   H     H_    0.160562 0.599015 0.322855 0.395246
H14   H     H_    0.848199 0.901499 0.625123 0.191265
H15   H     H_    0.141059 0.264510 0.759196 0.217543
H16   H     H_    0.859486 0.115899 0.627866 0.175747
H17   H     H_    0.862117 0.225646 0.745969 0.220437
H18   H     H_    0.982308 0.751185 0.114107 0.234709
H19   H     H_    0.039073 0.761372 0.393513 0.231809
H20   H     H_    0.839740 0.451927 0.718357 0.166712
O1    O     O_R   0.408680 0.356690 0.448540 -0.545030
O2    O     O_R   0.052580 0.908350 0.460820 -0.609595
O3    O     O_R   0.039640 0.091520 0.447910 -0.586091
O4    O     O_R   0.408060 0.460070 0.551440 -0.566226
O5    O     O_R   0.143620 0.091540 0.551930 -0.593622
O6    O     O_R   0.947420 0.091470 0.539000 -0.602258
O7    O     O_R   0.051410 0.091490 0.643030 -0.623564
O8    O     O_R   0.856380 0.908290 0.447890 -0.592014
O9    O     O_R   0.960370 0.908300 0.551910 -0.610258
O10   O     O_R   0.592410 0.448290 0.540650 -0.566045
O11   O     O_R   0.591790 0.551670 0.643550 -0.557483
O12   O     O_R   0.049540 0.460010 0.906120 -0.562718
O13   O     O_R   0.591940 0.539930 0.448560 -0.570240
O14   O     O_R   0.591320 0.643310 0.551460 -0.579411
O15   O     O_R   0.408210 0.448330 0.356450 -0.589274
O16   O     O_R   0.407590 0.551710 0.459350 -0.575371
O17   O     O_R   0.946090 0.356640 0.906180 -0.621334
O18   O     O_2   0.828175 0.581955 0.005060 -0.333218
O19   O     O_2   0.758424 0.649209 0.938673 -0.171272
O20   O     O_3   0.663922 0.522021 0.950258 -0.442034
O21   O     O_2   0.301645 0.499869 0.625670 -0.218572
O22   O     O_2   0.259682 0.459723 0.474002 -0.283469
O23   O     O_R   0.853500 0.448290 0.905220 -0.556397
O24   O     O_3   0.136176 0.407178 0.507022 -0.460184
O25   O     O_2   0.366095 0.159621 0.378003 -0.207441
O26   O     O_2   0.208456 0.079515 0.275915 -0.198482
O27   O     O_3   0.300877 0.228579 0.295002 -0.485162
O28   O     O_2   0.587577 0.266295 0.629014 -0.230549
O29   O     O_2   0.528373 0.297914 0.516443 -0.242048
O30   O     O_3   0.636475 0.242741 0.515108 -0.434931
O31   O     O_2   0.748569 0.593364 0.290395 -0.168571
O32   O     O_2   0.775063 0.729612 0.286955 -0.211416
O33   O     O_3   0.901233 0.732078 0.401564 -0.594196
O34   O     O_R   0.956960 0.551660 0.905160 -0.621089
O35   O     O_2   0.593370 0.596954 0.241363 -0.194566
O36   O     O_2   0.601981 0.495443 0.294584 -0.214909
O37   O     O_3   0.499185 0.556375 0.308551 -0.559252
O38   O     O_2   0.207283 0.493257 0.910539 -0.229791
O39   O     O_2   0.188131 0.424829 0.997906 -0.331618
O40   O     O_3   0.266225 0.386256 0.913497 -0.515873
O41   O     O_2   0.064890 0.637002 0.384481 -0.261277
O42   O     O_2   0.973965 0.522321 0.229693 -0.226058
O43   O     O_3   0.138957 0.626578 0.290875 -0.595086
O44   O     O_R   0.945110 0.539900 0.088450 -0.541457
O45   O     O_R   0.048570 0.643270 0.088390 -0.625611
O46   O     O_R   0.037700 0.448250 0.089410 -0.614871
O47   O     O_R   0.141150 0.551620 0.089350 -0.597110
O48   O     O_R   0.948590 0.908340 0.356800 -0.567385
S1    S     S_3+6 0.746726 0.563520 0.933110 0.127019
S2    S     S_3+6 0.238346 0.428299 0.531450 0.124042
S3    S     S_3+6 0.287482 0.169659 0.344499 0.144414
S4    S     S_3+6 0.610056 0.305535 0.576882 0.122856
S5    S     S_3+6 0.793015 0.692192 0.345454 0.101937
S6    S     S_3+6 0.594456 0.576664 0.312006 0.125073
S7    S     S_3+6 0.187850 0.410295 0.914648 0.066078
S8    S     S_3+6 0.048129 0.615985 0.294285 0.066968
Zn1   Zn    Zn3+2 0.500420 0.430970 0.431290 1.204011
Zn2   Zn    Zn3+2 0.499580 0.569030 0.568710 1.218560
Zn3   Zn    Zn3+2 0.928250 0.430930 0.997320 1.173717
Zn4   Zn    Zn3+2 0.066410 0.568980 0.997240 1.140474
Zn5   Zn    Zn3+2 0.930570 0.999900 0.430450 1.147506
Zn6   Zn    Zn3+2 0.069430 0.999920 0.569370 1.089830

loop_
_geom_bond_atom_site_label_1
_geom_bond_atom_site_label_2
_ccdc_geom_bond_type
C45   S2    S    
C27   S7    S    
C10   C17   A    
C15   C17   A    
C40   S4    S    
C29   C30   A    
C20   C41   S    
C25   O6    A    
C7    C8    A    
C11   H14   S    
O3    Zn5   S    
O1    Zn1   S    
O18   S1    D    
C27   C29   A    
Br4   C34   S    
C31   H16   S    
O24   S2    S    
O41   S8    D    
C4    O11   A    
H6    O24   S    
C16   O13   A    
C15   S6    S    
C50   S3    S    
O42   S8    D    
C16   C17   S    
C28   O16   A    
C45   C47   A    
O2    Zn6   S    
C12   C42   S    
C2    C50   A    
Br6   C23   S    
C6    C7    A    
C20   O44   A    
C25   C30   S    
C37   C38   A    
C14   S5    S    
C18   C33   S    
H7    O27   S    
Br10  C8    S    
C1    O4    A    
O32   S5    D    
O5    Zn6   S    
O21   S2    D    
O6    Zn5   S    
O8    Zn5   S    
O4    Zn2   S    
Br8   C49   S    
C27   C33   A    
C47   C48   A    
C1    C2    S    
C19   O23   A    
C22   O2    A    
C35   H18   S    
Br7   C47   S    
C6    C21   S    
C40   C42   S    
C5    C6    A    
C32   H17   S    
C24   O5    A    
C12   C23   S    
O27   S3    S    
O12   Zn4   S    
O20   S1    S    
C34   S1    S    
O47   Zn4   S    
Br2   C36   S    
C13   C14   A    
O39   S7    D    
C18   O17   A    
C21   O46   A    
O16   Zn2   S    
C48   C49   A    
H13   O43   S    
O45   Zn4   S    
C31   C32   A    
C13   C26   S    
Br3   C44   S    
C35   C36   A    
C43   H2    S    
C38   C39   A    
C14   C15   A    
H9    O33   S    
C4    C46   S    
O48   Zn5   S    
C23   C43   S    
C40   C46   S    
O34   Zn4   S    
O19   S1    D    
C36   C37   A    
C4    O10   A    
O31   S5    D    
C24   O3    A    
O28   S4    D    
C30   C31   A    
C19   O34   A    
C42   H20   S    
O36   S6    D    
C32   C33   A    
C20   O45   A    
O9    Zn6   S    
O46   Zn3   S    
C21   O47   A    
C3    C5    A    
C2    C45   A    
C26   O8    A    
C22   C37   S    
O44   Zn3   S    
Br5   C43   S    
C7    H12   S    
O40   S7    S    
O30   S4    S    
C24   C48   S    
O14   Zn2   S    
O29   S4    D    
O17   Zn3   S    
O43   S8    S    
O7    Zn6   S    
C1    O1    A    
Br11  C10   S    
O13   Zn1   S    
O37   S6    S    
C25   O7    A    
C16   O14   A    
C12   C34   S    
O23   Zn3   S    
Br9   C3    S    
C12   C19   S    
O26   S3    D    
O25   S3    D    
O11   Zn2   S    
C5    H1    S    
C29   H15   S    
O10   Zn1   S    
C9    C28   S    
O33   S5    S    
C44   H4    S    
C35   C41   A    
C26   O9    A    
H10   O37   S    
C44   C46   S    
C11   C13   A    
C38   H19   S    
C49   C50   A    
H8    O30   S    
Br1   C40   S    
C39   S8    S    
C3    C9    A    
C28   O15   A    
C8    C9    A    
C22   O48   A    
C18   O12   A    
H11   O40   S    
O22   S2    D    
C43   C46   S    
C34   C44   S    
C23   H3    S    
C10   C11   A    
O38   S7    D    
C39   C41   A    
O35   S6    D    
O15   Zn1   S    
Br12  C42   S    
H5    O20   S    
