data_mof_unit_59592.cif
_audit_creation_date              2012-10-26T19:02:38-0400
_audit_creation_method            fapswitch 2.2
_symmetry_space_group_name_H-M    P1
_symmetry_Int_Tables_number       1
_space_group_crystal_system       triclinic
_cell_length_a                    17.262301
_cell_length_b                    8.682079
_cell_length_c                    7.512976
_cell_angle_alpha                 102.777131
_cell_angle_beta                  91.241447
_cell_angle_gamma                 93.734533
_cell_volume                      1095.02287039

loop_
_atom_site_label
_atom_site_type_symbol
_atom_type_description
_atom_site_fract_x
_atom_site_fract_y
_atom_site_fract_z
_atom_type_partial_charge
C1    C     C_R   0.497728 0.200030 0.453798 0.525672
C2    C     C_R   0.774329 0.652770 0.472955 0.096750
C3    C     C_R   0.147885 0.310727 0.447925 0.171108
C4    C     C_R   0.855527 0.663002 0.496627 0.155704
C5    C     C_R   0.106377 0.447597 0.500320 -0.031926
C6    C     C_R   0.892637 0.528775 0.520643 -0.032066
C7    C     C_R   0.146608 0.594592 0.575224 -0.138444
C8    C     C_R   0.849847 0.383547 0.506918 -0.131813
C9    C     C_R   0.227140 0.607487 0.598252 0.221432
C10   C     C_R   0.769818 0.371636 0.476114 0.219936
C11   C     C_2   0.021798 0.438647 0.464616 -0.142613
C12   C     C_R   0.502314 0.799974 0.546196 0.548866
C13   C     C_2   0.975902 0.539626 0.564234 -0.138924
C14   C     C_3   0.258510 0.062298 0.514804 -0.246566
C15   C     C_3   0.731535 0.903269 0.637929 -0.259935
C16   C     C_3   0.712291 0.148036 0.295442 -0.135533
C17   C     C_3   0.256459 0.802244 0.851954 -0.126789
C18   C     C_3   0.924924 0.823676 0.320389 -0.313066
C19   C     C_3   0.107248 0.108446 0.179107 -0.309724
C20   C     C_3   0.370158 0.297419 0.989310 -0.036358
C21   C     C_3   0.628947 0.704432 0.005023 -0.038487
C22   C     C_2   0.496427 0.032019 0.428046 -0.156926
C23   C     C_2   0.503335 0.967967 0.571968 -0.149851
C24   C     C_R   0.351814 0.495587 0.523679 0.571898
C25   C     C_R   0.648255 0.502224 0.476285 0.598774
C26   C     C_R   0.268349 0.474407 0.533713 0.010446
C27   C     C_R   0.731958 0.507576 0.465843 0.017271
C28   C     C_R   0.229442 0.323697 0.466852 0.103751
Cu1   Cu    Cu3+1 0.508700 0.517250 0.683000 1.065466
Cu2   Cu    Cu3+1 0.491300 0.482750 0.317000 1.049757
H1    H     H_    0.998857 0.631850 0.678519 0.110794
H2    H     H_    0.217261 0.095398 0.626305 0.155529
H3    H     H_    0.752161 0.842498 0.361574 0.253499
H4    H     H_    0.676760 0.963782 0.640851 0.167474
H5    H     H_    0.781370 0.993567 0.653950 0.185207
H6    H     H_    0.733558 0.844682 0.755028 0.106800
H7    H     H_    0.686536 0.222167 0.209247 0.133246
H8    H     H_    0.765988 0.098852 0.234034 0.100704
H9    H     H_    0.668939 0.048344 0.295868 0.145096
H10   H     H_    0.293058 0.913537 0.905028 0.132518
H11   H     H_    0.275587 0.712621 0.926047 0.135666
H12   H     H_    0.995922 0.347292 0.352486 0.129181
H13   H     H_    0.195174 0.827732 0.881668 0.096493
H14   H     H_    0.941505 0.841914 0.598826 0.237616
H15   H     H_    0.948933 0.946734 0.328569 0.129794
H16   H     H_    0.875959 0.797559 0.217297 0.139098
H17   H     H_    0.970953 0.741229 0.275850 0.149002
H18   H     H_    0.055825 0.140130 0.432091 0.234319
H19   H     H_    0.079735 0.986097 0.137291 0.120978
H20   H     H_    0.167187 0.108225 0.128229 0.169452
H21   H     H_    0.073326 0.188011 0.115622 0.126327
H22   H     H_    0.371854 0.239604 0.106172 0.138313
H23   H     H_    0.116562 0.702220 0.608002 0.120934
H24   H     H_    0.336578 0.214122 0.876935 0.084778
H25   H     H_    0.338687 0.407696 0.020784 0.123011
H26   H     H_    0.662561 0.791781 0.112850 0.072835
H27   H     H_    0.624476 0.758534 0.885709 0.141114
H28   H     H_    0.661939 0.596156 0.975549 0.129756
H29   H     H_    0.878316 0.280229 0.525498 0.133109
H30   H     H_    0.489821 0.960717 0.289328 0.158095
H31   H     H_    0.509992 0.039285 0.710671 0.158740
H32   H     H_    0.328723 0.201293 0.381154 0.239334
H33   H     H_    0.234772 0.951961 0.419432 0.192641
H34   H     H_    0.314317 0.038499 0.576474 0.158665
N1    N     N_2   0.478180 0.456750 0.041980 0.098916
N2    N     N_2   0.521820 0.543250 0.958020 0.098231
N3    N     N_2   0.271718 0.185392 0.414117 -0.536775
N4    N     N_2   0.734620 0.789861 0.465438 -0.511225
N5    N     N_2   0.898537 0.808922 0.497637 -0.513531
N6    N     N_2   0.108567 0.159328 0.376108 -0.503456
O1    O     O_R   0.505650 0.286040 0.618880 -0.454962
O2    O     O_3   0.266640 0.753867 0.662509 -0.588327
O3    O     O_3   0.445404 0.324364 0.930824 -0.474730
O4    O     O_3   0.555195 0.674765 0.069474 -0.469948
O5    O     O_R   0.494350 0.713960 0.381120 -0.454476
O6    O     O_R   0.490960 0.256910 0.309800 -0.524991
O7    O     O_R   0.509040 0.743090 0.690200 -0.514181
O8    O     O_R   0.394600 0.516230 0.672450 -0.478258
O9    O     O_R   0.605400 0.483770 0.327550 -0.490655
O10   O     O_R   0.379910 0.487100 0.363380 -0.550972
O11   O     O_R   0.620090 0.512900 0.636620 -0.530087
O12   O     O_3   0.727796 0.231073 0.477560 -0.578501

loop_
_geom_bond_atom_site_label_1
_geom_bond_atom_site_label_2
_ccdc_geom_bond_type
C10   C27   A    
C9    O2    S    
C18   H17   S    
C21   H27   S    
C12   C23   S    
C1    O1    A    
H32   N3    S    
C3    C28   A    
C24   C26   S    
C5    C11   S    
C2    N4    S    
C8    H29   S    
C22   H30   S    
C15   N4    S    
N2    O4    S    
N1    O3    S    
C11   H12   S    
C24   O10   A    
Cu1   O8    S    
C14   N3    S    
C2    C27   A    
C15   H4    S    
C16   H7    S    
Cu2   O10   S    
C18   N5    S    
C1    C22   S    
C25   O11   A    
C20   H25   S    
C18   H16   S    
C15   H5    S    
C4    N5    S    
C9    C26   A    
C28   N3    S    
C4    C6    A    
H18   N6    S    
C5    C7    A    
C6    C8    A    
C21   O4    S    
C10   O12   S    
C17   H10   S    
C2    C4    A    
C17   H13   S    
Cu1   O11   S    
Cu1   Cu2   S    
Cu2   O6    S    
C19   H19   S    
C14   H34   S    
C12   O7    A    
C3    N6    S    
C16   O12   S    
H14   N5    S    
Cu2   O9    S    
C20   H24   S    
C7    H23   S    
C18   H15   S    
C15   H6    S    
C24   O8    A    
C7    C9    A    
C25   O9    A    
C1    O6    A    
C13   H1    S    
C14   H2    S    
C3    C5    A    
C21   H26   S    
C25   C27   S    
C26   C28   A    
C21   H28   S    
C20   H22   S    
C6    C13   S    
Cu2   O5    S    
C11   C13   D    
C19   H20   S    
C14   H33   S    
C20   O3    S    
C17   H11   S    
Cu2   N1    S    
C16   H9    S    
Cu1   N2    S    
C19   H21   S    
C23   H31   S    
Cu1   O7    S    
C17   O2    S    
C8    C10   A    
N1    N2    D    
C12   O5    A    
C22   C23   D    
C19   N6    S    
H3    N4    S    
C16   H8    S    
Cu1   O1    S    
