data_mof_unit_46218.cif
_audit_creation_date              2012-12-10T19:34:59-0500
_audit_creation_method            fapswitch 2.2
_symmetry_space_group_name_H-M    P1
_symmetry_Int_Tables_number       1
_space_group_crystal_system       triclinic
_cell_length_a                    10.824966
_cell_length_b                    15.772101
_cell_length_c                    17.116037
_cell_angle_alpha                 96.075556
_cell_angle_beta                  90.539683
_cell_angle_gamma                 93.152089
_cell_volume                      2901.11121136

loop_
_atom_site_label
_atom_site_type_symbol
_atom_type_description
_atom_site_fract_x
_atom_site_fract_y
_atom_site_fract_z
_atom_type_partial_charge
C1    C     C_R   0.499590 0.489753 0.348528 0.794836
C2    C     C_R   0.501515 0.510232 0.651483 0.802190
C3    C     C_R   0.500819 0.484355 0.262586 -0.026153
C4    C     C_R   0.504011 0.515502 0.737458 -0.031248
C5    C     C_R   0.520703 0.558659 0.225093 -0.256930
C6    C     C_R   0.503398 0.440636 0.774990 -0.232288
C7    C     C_R   0.521208 0.553911 0.143569 -0.159144
C8    C     C_R   0.505783 0.445308 0.856525 -0.169186
C9    C     C_R   0.502046 0.474184 0.098029 0.387317
C10   C     C_R   0.508758 0.525458 0.902039 0.388261
C11   C     C_R   0.483534 0.400203 0.135642 -0.196991
C12   C     C_R   0.510293 0.599896 0.864405 -0.196772
C13   C     C_R   0.482744 0.404991 0.217316 -0.219905
C14   C     C_R   0.507804 0.595225 0.782727 -0.225924
C15   C     C_R   0.433588 0.751009 0.465014 0.624726
C16   C     C_R   0.556510 0.249148 0.541227 0.622484
C17   C     C_R   0.436217 0.841399 0.469748 -0.388738
C18   C     C_R   0.549535 0.159110 0.539590 -0.379554
C19   C     C_R   0.526909 0.891454 0.515983 0.338503
C20   C     C_R   0.473974 0.108450 0.483486 0.336527
C21   C     C_R   0.610503 0.848966 0.558944 -0.325247
C22   C     C_R   0.403476 0.150442 0.431862 -0.326733
C23   C     C_R   0.261832 0.499858 0.508335 0.811755
C24   C     C_R   0.737069 0.500085 0.489202 0.802819
C25   C     C_R   0.602845 0.759427 0.555365 -0.062510
C26   C     C_R   0.409775 0.240073 0.436333 -0.060812
C27   C     C_R   0.096916 0.338991 0.504659 -0.141956
C28   C     C_R   0.900161 0.660008 0.481419 -0.143131
C29   C     C_R   0.033004 0.264645 0.471175 -0.167717
C30   C     C_R   0.965255 0.735657 0.510310 -0.188769
C31   C     C_R   0.923234 0.269869 0.429792 -0.176090
C32   C     C_R   0.075634 0.732612 0.551586 -0.138223
C33   C     C_R   0.871524 0.348614 0.428442 -0.146525
C34   C     C_R   0.125936 0.654210 0.558104 -0.082518
C35   C     C_R   0.931299 0.423880 0.466975 0.066832
C36   C     C_R   0.066617 0.577150 0.522502 0.072241
C37   C     C_R   0.053052 0.420662 0.495785 0.082801
C38   C     C_R   0.944780 0.579497 0.493621 0.084264
C39   C     C_R   0.872415 0.501775 0.477019 -0.237171
C40   C     C_R   0.125282 0.498511 0.515335 -0.239476
Cu1   Cu    Cu3+1 0.493970 0.415220 0.496180 0.963924
Cu2   Cu    Cu3+1 0.506030 0.584780 0.503820 0.964781
H1    H     H_    0.123852 0.791116 0.577083 0.133956
H2    H     H_    0.875409 0.212508 0.401528 0.137408
H3    H     H_    0.601831 0.129532 0.582444 0.162794
H4    H     H_    0.367446 0.872159 0.438271 0.162870
H5    H     H_    0.681278 0.885188 0.595527 0.155095
H6    H     H_    0.343261 0.113794 0.388326 0.155181
H7    H     H_    0.667434 0.727699 0.589355 0.162771
H8    H     H_    0.354070 0.271458 0.396490 0.159169
H9    H     H_    0.177860 0.330832 0.539794 0.162014
H10   H     H_    0.817161 0.665648 0.447233 0.158554
H11   H     H_    0.069353 0.202970 0.476873 0.139456
H12   H     H_    0.928849 0.796632 0.501757 0.139664
H13   H     H_    0.785209 0.350258 0.396375 0.150296
H14   H     H_    0.210402 0.654651 0.592398 0.140875
H15   H     H_    0.501164 0.378334 0.741458 0.185693
H16   H     H_    0.536427 0.620538 0.258674 0.150605
H17   H     H_    0.505349 0.386240 0.883513 0.152469
H18   H     H_    0.536817 0.612569 0.116614 0.150298
H19   H     H_    0.469075 0.338607 0.101370 0.137893
H20   H     H_    0.512925 0.661798 0.898666 0.138014
H21   H     H_    0.467471 0.346663 0.244899 0.156270
H22   H     H_    0.508699 0.653971 0.755148 0.160393
N1    N     N_2   0.500806 0.465319 0.014758 -0.268919
N2    N     N_2   0.510332 0.534301 0.985309 -0.269589
N3    N     N_R   0.515100 0.712130 0.509560 -0.203507
N4    N     N_R   0.484900 0.287870 0.490440 -0.201720
N5    N     N_2   0.536398 0.983269 0.521854 -0.231474
N6    N     N_2   0.464490 0.016656 0.477672 -0.231955
O1    O     O_R   0.494360 0.420530 0.382500 -0.601179
O2    O     O_R   0.505640 0.579470 0.617500 -0.601204
O3    O     O_R   0.504550 0.563720 0.388950 -0.566978
O4    O     O_R   0.495450 0.436280 0.611050 -0.538243
O5    O     O_R   0.314560 0.428400 0.496770 -0.596617
O6    O     O_R   0.685440 0.571600 0.503230 -0.594578
O7    O     O_R   0.324750 0.571590 0.503220 -0.528670
O8    O     O_R   0.675250 0.428410 0.496780 -0.563606
O9    O     O_3   0.624789 0.299670 0.599273 -0.594264
C41   C     C_3   0.750202 0.278506 0.601279 0.051481
H23   H     H_    0.808211 0.336466 0.591209 0.193909
H24   H     H_    0.775103 0.227010 0.555309 0.125667
C42   C     C_3   0.783105 0.253919 0.682600 -0.368850
H25   H     H_    0.762786 0.306984 0.727909 0.231367
H26   H     H_    0.725931 0.196194 0.694563 0.212496
C43   C     C_3   0.919764 0.235750 0.688389 -0.902775
H27   H     H_    0.941669 0.181869 0.644445 0.254434
H28   H     H_    0.941146 0.218310 0.748012 0.256352
H29   H     H_    0.978727 0.293248 0.677927 0.257803
O10   O     O_3   0.341992 0.700173 0.422595 -0.575289
C44   C     C_3   0.320564 0.724259 0.346494 0.028570
H30   H     H_    0.326543 0.666279 0.304134 0.173956
H31   H     H_    0.390342 0.772253 0.327431 0.111974
C45   C     C_3   0.189384 0.755012 0.341185 -0.335027
H32   H     H_    0.121669 0.702994 0.354286 0.239446
H33   H     H_    0.178055 0.810714 0.385417 0.212309
C46   C     C_3   0.161161 0.780283 0.259579 -0.923856
H34   H     H_    0.225987 0.833636 0.246003 0.255897
H35   H     H_    0.065171 0.801492 0.257499 0.256555
H36   H     H_    0.169650 0.724946 0.214454 0.259800

loop_
_geom_bond_atom_site_label_1
_geom_bond_atom_site_label_2
_ccdc_geom_bond_type
C33   H13   S    
C22   H6    S    
C34   H14   S    
C27   C29   A    
C28   H10   S    
Cu1   Cu2   S    
C2    C4    S    
C25   N3    A    
C46   H34   S    
C30   H12   S    
C1    O1    A    
C5    H16   S    
C19   C21   A    
C37   C40   A    
C26   H8    S    
C8    H17   S    
C38   C39   A    
C43   H28   S    
C44   H31   S    
C23   C40   S    
C24   C39   S    
C7    C9    A    
C17   C19   A    
Cu1   O4    S    
C32   H1    S    
C31   C33   A    
C16   N4    A    
C18   C20   A    
C3    C13   A    
Cu1   O1    S    
C14   H22   S    
C6    H15   S    
C20   N6    S    
C45   H32   S    
C41   C42   S    
C2    O2    A    
C46   H35   S    
C27   H9    S    
Cu1   N4    S    
C25   H7    S    
C10   N2    S    
C31   H2    S    
C36   C40   A    
C17   H4    S    
C4    C6    A    
C23   O5    A    
Cu1   O8    S    
C5    C7    A    
C43   H27   S    
C24   O6    A    
C6    C8    A    
C45   C46   S    
C11   H19   S    
C1    C3    S    
C32   C34   A    
C35   C39   A    
Cu1   O5    S    
C12   H20   S    
C42   H25   S    
C13   H21   S    
C28   C38   A    
C15   N3    A    
Cu2   O2    S    
C16   C18   A    
C23   O7    A    
C45   H33   S    
C9    C11   A    
C10   C12   A    
C24   O8    A    
C42   H26   S    
C20   C22   A    
Cu2   N3    S    
C19   N5    S    
C18   H3    S    
C7    H18   S    
C44   H30   S    
C46   H36   S    
C15   C17   A    
C21   C25   A    
Cu2   O3    S    
C35   C37   A    
C12   C14   A    
C41   H23   S    
C3    C5    A    
C43   H29   S    
C2    O4    A    
Cu2   O6    S    
C16   O9    S    
C1    O3    A    
C28   C30   A    
C26   N4    A    
C29   C31   A    
C44   C45   S    
C30   C32   A    
C11   C13   A    
O10   C44   S    
C29   H11   S    
C27   C37   A    
C36   C38   A    
C33   C35   A    
C41   H24   S    
C34   C36   A    
C4    C14   A    
N5    N6    D    
C9    N1    S    
O9    C41   S    
C42   C43   S    
Cu2   O7    S    
C8    C10   A    
N1    N2    D    
C22   C26   A    
C21   H5    S    
C15   O10   S    
