data_mof_unit_36829.cif
_audit_creation_date              2012-10-26T20:37:31-0400
_audit_creation_method            fapswitch 2.2
_symmetry_space_group_name_H-M    P1
_symmetry_Int_Tables_number       1
_space_group_crystal_system       triclinic
_cell_length_a                    11.050571
_cell_length_b                    10.904029
_cell_length_c                    9.707496
_cell_angle_alpha                 89.342972
_cell_angle_beta                  102.642568
_cell_angle_gamma                 90.101252
_cell_volume                      1141.2762634

loop_
_atom_site_label
_atom_site_type_symbol
_atom_type_description
_atom_site_fract_x
_atom_site_fract_y
_atom_site_fract_z
_atom_type_partial_charge
C1    C     C_R   0.505709 0.265647 0.501825 0.538998
C2    C     C_2   0.126475 0.504189 0.409383 0.223184
C3    C     C_2   0.068047 0.490642 0.515938 -0.113930
C4    C     C_2   0.872844 0.515332 0.590470 0.233675
C5    C     C_2   0.933312 0.483551 0.490790 -0.121708
C6    C     C_2   0.508185 0.934608 0.393143 -0.145369
C7    C     C_3   0.601205 0.671128 0.120451 0.049210
C8    C     C_3   0.590912 0.783629 0.022529 -0.281416
C9    C     C_3   0.713988 0.850712 0.038289 -0.503020
C10   C     C_3   0.895300 0.670934 0.757407 0.013772
C11   C     C_3   0.910448 0.775094 0.654256 -0.286711
C12   C     C_2   0.476262 0.866266 0.495664 0.251221
C13   C     C_3   0.863680 0.896515 0.699889 -0.490825
C14   C     C_3   0.078300 0.624723 0.207147 0.016697
C15   C     C_3   0.009391 0.729947 0.260362 -0.296479
C16   C     C_3   0.032582 0.851289 0.190187 -0.494705
C17   C     C_3   0.302451 0.904870 0.583048 0.015429
C18   C     C_3   0.237446 0.021996 0.515615 -0.268236
C19   C     C_3   0.102766 0.027230 0.529306 -0.497435
C20   C     C_3   0.258778 0.291688 0.877609 -0.013162
C21   C     C_3   0.294823 0.157768 0.916463 -0.278172
C22   C     C_3   0.202554 0.095682 0.990901 -0.487912
C23   C     C_2   0.500657 0.068312 0.389088 -0.160417
C24   C     C_2   0.522621 0.134435 0.507272 -0.102390
C25   C     C_2   0.432912 0.423455 0.905262 0.407518
C26   C     C_2   0.457959 0.410286 0.066575 0.061895
C27   C     C_R   0.262618 0.502043 0.442413 0.534955
C28   C     C_R   0.494697 0.734521 0.498372 0.532258
C29   C     C_R   0.737131 0.504652 0.557536 0.531524
Cu1   Cu    Cu3+1 0.500020 0.500020 0.638640 0.985429
Cu2   Cu    Cu3+1 0.499980 0.499980 0.361360 0.956437
H1    H     H_    0.882812 0.454118 0.387462 0.158396
H2    H     H_    0.783561 0.789640 0.007443 0.140438
H3    H     H_    0.701640 0.932855 0.967931 0.162382
H4    H     H_    0.120041 0.486746 0.624754 0.176549
H5    H     H_    0.951548 0.695108 0.862800 0.135804
H6    H     H_    0.798368 0.665851 0.770869 0.157223
H7    H     H_    0.009942 0.783951 0.650820 0.161076
H8    H     H_    0.856702 0.754782 0.546185 0.144460
H9    H     H_    0.764874 0.888238 0.706589 0.162829
H10   H     H_    0.870581 0.969362 0.621224 0.150206
H11   H     H_    0.920099 0.923727 0.804317 0.140695
H12   H     H_    0.578740 0.530900 0.908817 0.189015
H13   H     H_    0.041465 0.615783 0.091880 0.160755
H14   H     H_    0.177846 0.648377 0.219974 0.162995
H15   H     H_    0.908501 0.709684 0.237313 0.161629
H16   H     H_    0.041893 0.738898 0.376417 0.147016
H17   H     H_    0.132475 0.875590 0.220045 0.149295
H18   H     H_    0.977990 0.925506 0.225075 0.152083
H19   H     H_    0.004619 0.844710 0.073503 0.139725
H20   H     H_    0.537155 0.891232 0.305621 0.098114
H21   H     H_    0.280265 0.890291 0.688291 0.155930
H22   H     H_    0.265222 0.823428 0.518604 0.109489
H23   H     H_    0.477233 0.112500 0.285783 0.131709
H24   H     H_    0.286166 0.103860 0.567886 0.194732
H25   H     H_    0.240757 0.026106 0.402117 0.156593
H26   H     H_    0.051444 0.945470 0.481017 0.145585
H27   H     H_    0.057664 0.110681 0.474620 0.157890
H28   H     H_    0.098192 0.031195 0.642320 0.147503
H29   H     H_    0.554850 0.092705 0.610673 0.165669
H30   H     H_    0.170201 0.291148 0.797046 0.160003
H31   H     H_    0.237836 0.342949 0.968197 0.133725
H32   H     H_    0.297415 0.106693 0.818997 0.179345
H33   H     H_    0.388889 0.152143 0.985776 0.148471
H34   H     H_    0.440079 0.323130 0.112285 0.077328
H35   H     H_    0.201449 0.142799 0.091496 0.158922
H36   H     H_    0.230222 0.998598 0.015159 0.145150
H37   H     H_    0.107920 0.097558 0.922092 0.148384
H38   H     H_    0.676747 0.609851 0.102762 0.099848
H39   H     H_    0.629515 0.701868 0.230633 0.172094
H40   H     H_    0.520497 0.847759 0.046789 0.166094
H41   H     H_    0.559450 0.754993 0.910924 0.201326
H42   H     H_    0.747481 0.880799 0.149001 0.143283
N1    N     N_2   0.498650 0.498660 0.846590 -0.298411
N2    N     N_2   0.498620 0.498630 0.152710 -0.075826
O1    O     O_R   0.500020 0.321960 0.617050 -0.454101
O2    O     O_3   0.939531 0.556237 0.720834 -0.585855
O3    O     O_3   0.058469 0.510919 0.270756 -0.581612
O4    O     O_3   0.432728 0.918595 0.605263 -0.593034
O5    O     O_3   0.348945 0.348658 0.814828 -0.536207
O6    O     O_R   0.499980 0.321920 0.382890 -0.518011
O7    O     O_R   0.320700 0.500020 0.574050 -0.483224
O8    O     O_R   0.320660 0.499980 0.339890 -0.480547
O9    O     O_R   0.500020 0.678080 0.617110 -0.492443
O10   O     O_R   0.499980 0.678040 0.382950 -0.522116
O11   O     O_R   0.679340 0.500020 0.660110 -0.506160
O12   O     O_R   0.679300 0.499980 0.425950 -0.542991
O13   O     O_3   0.484391 0.611714 0.093088 -0.489530

loop_
_geom_bond_atom_site_label_1
_geom_bond_atom_site_label_2
_ccdc_geom_bond_type
C9    H2    S    
Cu2   O10   S    
C28   O9    A    
C25   O5    S    
C15   H16   S    
C16   H17   S    
C7    H39   S    
C13   H10   S    
C7    C8    S    
C19   H26   S    
C12   C28   S    
C10   H6    S    
C16   H19   S    
C18   C19   S    
C6    C12   D    
Cu1   Cu2   S    
Cu1   N1    S    
C1    O6    A    
C15   C16   S    
C12   O4    S    
C17   O4    S    
Cu2   O8    S    
C25   N1    D    
C20   H30   S    
C22   H35   S    
C13   H9    S    
C21   H32   S    
C8    C9    S    
C21   H33   S    
C23   C24   D    
C2    C27   S    
C6    H20   S    
Cu1   O11   S    
C4    C29   S    
C18   H25   S    
C5    H1    S    
H12   N1    S    
C21   C22   S    
Cu1   O9    S    
C26   H34   S    
C9    H42   S    
C17   H21   S    
C13   H11   S    
C10   O2    S    
C17   C18   S    
C14   H14   S    
C19   H27   S    
C8    H41   S    
Cu2   O12   S    
C20   O5    S    
C16   H18   S    
C19   H28   S    
C25   C26   S    
Cu1   O7    S    
C11   H7    S    
C2    O3    S    
Cu1   O1    S    
Cu2   N2    S    
C7    O13   S    
C3    H4    S    
C24   H29   S    
C26   N2    D    
C11   H8    S    
C22   H37   S    
C29   O11   A    
C18   H24   S    
C9    H3    S    
C17   H22   S    
C23   H23   S    
C14   H13   S    
C8    H40   S    
C1    O1    A    
C27   O7    A    
C4    C5    D    
C3    C5    S    
C7    H38   S    
Cu2   O6    S    
C27   O8    A    
C2    C3    D    
C4    O2    S    
C11   C13   S    
C6    C23   S    
C14   O3    S    
C20   H31   S    
C22   H36   S    
C29   O12   A    
C10   C11   S    
N2    O13   S    
C20   C21   S    
C1    C24   S    
C28   O10   A    
C14   C15   S    
C10   H5    S    
C15   H15   S    
