data_mof_unit_62915.cif
_audit_creation_date              2012-12-10T19:36:45-0500
_audit_creation_method            fapswitch 2.2
_symmetry_space_group_name_H-M    P1
_symmetry_Int_Tables_number       1
_space_group_crystal_system       triclinic
_cell_length_a                    30.739618
_cell_length_b                    30.42815
_cell_length_c                    24.641883
_cell_angle_alpha                 89.964833
_cell_angle_beta                  128.172546
_cell_angle_gamma                 90.00226
_cell_volume                      18119.8637007

loop_
_atom_site_label
_atom_site_type_symbol
_atom_type_description
_atom_site_fract_x
_atom_site_fract_y
_atom_site_fract_z
_atom_type_partial_charge
C1    C     C_R   0.809525 0.810230 0.499378 0.881150
C2    C     C_R   0.190480 0.810229 0.500634 0.882024
C3    C     C_R   0.309525 0.310230 0.499378 0.881155
C4    C     C_R   0.690480 0.310229 0.500634 0.882022
C5    C     C_R   0.645111 0.750104 0.289660 -0.117050
C6    C     C_R   0.355299 0.749495 0.710414 -0.140304
C7    C     C_R   0.145108 0.250102 0.289659 -0.117027
C8    C     C_R   0.855298 0.249495 0.710414 -0.140312
C9    C     C_R   0.466128 0.748197 0.930350 0.226907
C10   C     C_R   0.535031 0.749278 0.069492 0.266812
C11   C     C_R   0.966126 0.248195 0.930350 0.226863
C12   C     C_R   0.035027 0.249275 0.069491 0.266816
C13   C     C_R   0.899122 0.844423 0.552371 0.108293
C14   C     C_R   0.100888 0.844455 0.447695 0.108005
C15   C     C_R   0.399123 0.344423 0.552370 0.108288
C16   C     C_R   0.600888 0.344456 0.447694 0.108007
C17   C     C_R   0.842124 0.844094 0.500704 -0.087236
C18   C     C_R   0.157891 0.844090 0.499332 -0.087492
C19   C     C_R   0.342124 0.344094 0.500704 -0.087239
C20   C     C_R   0.657891 0.344090 0.499333 -0.087491
C21   C     C_R   0.816128 0.879560 0.454719 -0.209865
C22   C     C_R   0.183889 0.879508 0.545326 -0.208996
C23   C     C_R   0.316128 0.379560 0.454720 -0.209864
C24   C     C_R   0.683889 0.379508 0.545327 -0.208991
C25   C     C_R   0.848304 0.911630 0.454506 -0.212880
C26   C     C_R   0.151715 0.911568 0.545564 -0.212482
C27   C     C_R   0.348304 0.411631 0.454507 -0.212885
C28   C     C_R   0.651715 0.411568 0.545565 -0.212468
C29   C     C_R   0.906120 0.908625 0.501793 -0.098165
C30   C     C_R   0.093898 0.908601 0.498293 -0.098257
C31   C     C_R   0.406120 0.408625 0.501793 -0.098164
C32   C     C_R   0.593899 0.408601 0.498293 -0.098258
C33   C     C_R   0.930815 0.876740 0.553415 0.147890
C34   C     C_R   0.069200 0.876762 0.446674 0.148090
C35   C     C_R   0.430815 0.376740 0.553414 0.147890
C36   C     C_R   0.569200 0.376762 0.446674 0.148090
C37   C     C_3   0.976374 0.845373 0.575151 -0.496890
C38   C     C_3   0.023656 0.845403 0.424969 -0.497232
C39   C     C_3   0.476374 0.345372 0.575149 -0.496888
C40   C     C_3   0.523656 0.345403 0.424967 -0.497235
C41   C     C_3   0.941217 0.809639 0.573770 -0.472812
C42   C     C_3   0.058810 0.809679 0.426324 -0.472845
C43   C     C_3   0.441217 0.309638 0.573767 -0.472806
C44   C     C_3   0.558810 0.309680 0.426322 -0.472844
C45   C     C_R   0.682812 0.750071 0.365281 0.885475
C46   C     C_R   0.317255 0.749966 0.634740 0.884389
C47   C     C_R   0.182811 0.250070 0.365281 0.885366
C48   C     C_R   0.817254 0.249966 0.634739 0.884420
C49   C     C_R   0.836818 0.765762 0.746670 -0.195121
C50   C     C_R   0.163206 0.765842 0.253315 -0.195135
C51   C     C_R   0.336821 0.265766 0.746670 -0.195117
C52   C     C_R   0.663208 0.265840 0.253316 -0.195136
C53   C     C_R   0.872633 0.765728 0.818499 -0.158307
C54   C     C_R   0.127409 0.765805 0.181483 -0.158266
C55   C     C_R   0.372636 0.265733 0.818499 -0.158309
C56   C     C_R   0.627412 0.265803 0.181483 -0.158266
C57   C     C_R   0.927274 0.750905 0.854584 0.085382
C58   C     C_R   0.072795 0.750947 0.145410 0.085432
C59   C     C_R   0.427276 0.250907 0.854584 0.085384
C60   C     C_R   0.572796 0.250947 0.145410 0.085432
C61   C     C_R   0.945478 0.735765 0.817898 -0.157976
C62   C     C_R   0.054599 0.735782 0.182110 -0.158183
C63   C     C_R   0.445478 0.235763 0.817898 -0.157974
C64   C     C_R   0.554599 0.235784 0.182110 -0.158183
C65   C     C_R   0.909390 0.735122 0.746095 -0.191384
C66   C     C_R   0.090666 0.735143 0.253911 -0.191473
C67   C     C_R   0.409390 0.235120 0.746095 -0.191381
C68   C     C_R   0.590666 0.235144 0.253911 -0.191475
C69   C     C_R   0.854944 0.750293 0.710095 -0.030340
C70   C     C_R   0.145088 0.750341 0.289902 -0.030240
C71   C     C_R   0.354944 0.250294 0.710095 -0.030335
C72   C     C_R   0.645089 0.250340 0.289902 -0.030241
C73   C     C_R   0.034971 0.751157 0.069803 0.284655
C74   C     C_R   0.965108 0.751130 0.930190 0.284697
C75   C     C_R   0.534973 0.251157 0.069804 0.284655
C76   C     C_R   0.465110 0.251131 0.930190 0.284697
C77   C     C_R   0.648221 0.656247 0.545811 0.073913
C78   C     C_R   0.352737 0.656783 0.455052 0.074854
C79   C     C_R   0.148110 0.156302 0.545709 0.074001
C80   C     C_R   0.852701 0.156766 0.455017 0.074824
C81   C     C_R   0.656234 0.656831 0.496547 -0.128052
C82   C     C_R   0.343759 0.656776 0.503445 -0.129269
C83   C     C_R   0.156230 0.156827 0.496541 -0.128182
C84   C     C_R   0.843758 0.156777 0.503443 -0.129227
C85   C     C_R   0.631526 0.623540 0.445538 0.196554
C86   C     C_R   0.367412 0.622821 0.553445 0.197289
C87   C     C_R   0.131631 0.123473 0.445633 0.196629
C88   C     C_R   0.867445 0.122842 0.553476 0.197267
C89   C     C_R   0.689876 0.689917 0.499285 0.916499
C90   C     C_R   0.310149 0.689904 0.500756 0.915532
C91   C     C_R   0.189873 0.189916 0.499280 0.916404
C92   C     C_R   0.810148 0.189905 0.500755 0.915564
C93   C     C_R   0.599745 0.590979 0.446921 -0.288997
C94   C     C_R   0.399201 0.590289 0.552035 -0.289362
C95   C     C_R   0.099848 0.090913 0.447016 -0.289044
C96   C     C_R   0.899234 0.090310 0.552066 -0.289345
C97   C     C_R   0.593383 0.591681 0.498809 -0.132476
C98   C     C_R   0.406559 0.591636 0.501065 -0.131314
C99   C     C_R   0.093381 0.091678 0.498810 -0.132339
C100  C     C_R   0.906558 0.091637 0.501065 -0.131360
C101  C     C_R   0.618971 0.624621 0.547682 0.129228
C102  C     C_R   0.381939 0.625159 0.453085 0.128295
C103  C     C_R   0.118864 0.124677 0.547587 0.129121
C104  C     C_R   0.881904 0.125142 0.453053 0.128318
C105  C     C_3   0.627466 0.643081 0.609568 -0.455976
C106  C     C_3   0.374736 0.644383 0.392391 -0.458013
C107  C     C_3   0.127216 0.143213 0.609344 -0.456179
C108  C     C_3   0.874658 0.144343 0.392319 -0.457951
C109  C     C_3   0.661720 0.679227 0.607868 -0.482846
C110  C     C_3   0.340521 0.680528 0.394160 -0.480486
C111  C     C_3   0.161467 0.179360 0.607639 -0.482601
C112  C     C_3   0.840441 0.180488 0.394086 -0.480565
C113  C     C_R   0.439770 0.559820 0.500152 0.901772
C114  C     C_R   0.560232 0.559814 0.499811 0.901677
C115  C     C_R   0.939770 0.059820 0.500152 0.901759
C116  C     C_R   0.060231 0.059814 0.499811 0.901676
C117  C     C_R   0.939992 0.939858 0.500277 0.875578
C118  C     C_R   0.060019 0.939854 0.499754 0.875678
C119  C     C_R   0.439992 0.439858 0.500277 0.875574
C120  C     C_R   0.560019 0.439854 0.499754 0.875691
C121  C     C_R   0.817241 0.750044 0.634651 0.856475
C122  C     C_R   0.182769 0.750062 0.365348 0.856463
C123  C     C_R   0.317242 0.250045 0.634651 0.856482
C124  C     C_R   0.682769 0.250061 0.365348 0.856460
C125  C     C_R   0.604295 0.782569 0.253722 -0.162329
C126  C     C_R   0.395944 0.781927 0.746394 -0.163237
C127  C     C_R   0.104291 0.282566 0.253721 -0.162297
C128  C     C_R   0.895927 0.281938 0.746395 -0.163244
C129  C     C_R   0.568221 0.783438 0.181500 -0.042867
C130  C     C_R   0.432393 0.782275 0.818494 -0.022514
C131  C     C_R   0.068216 0.283434 0.181499 -0.042880
C132  C     C_R   0.932375 0.282285 0.818496 -0.022496
C133  C     C_R   0.572455 0.750014 0.144984 -0.036797
C134  C     C_R   0.428688 0.748378 0.854896 -0.073602
C135  C     C_R   0.072450 0.250011 0.144984 -0.036794
C136  C     C_R   0.928688 0.248376 0.854896 -0.073608
C137  C     C_R   0.613257 0.716988 0.181236 0.250159
C138  C     C_R   0.388271 0.714872 0.819051 0.261830
C139  C     C_R   0.113253 0.216984 0.181236 0.250200
C140  C     C_R   0.888291 0.214855 0.819049 0.261833
C141  C     C_R   0.649779 0.717782 0.253220 -0.272930
C142  C     C_R   0.351224 0.716495 0.746614 -0.223281
C143  C     C_R   0.149775 0.217779 0.253219 -0.272918
C144  C     C_R   0.851240 0.216482 0.746612 -0.223251
H1    H     H_    0.601461 0.807992 0.282181 0.202935
H2    H     H_    0.398377 0.807726 0.718037 0.203722
H3    H     H_    0.101458 0.307989 0.282180 0.202935
H4    H     H_    0.898346 0.307746 0.718040 0.203714
H5    H     H_    0.959354 0.796172 0.625741 0.201529
H6    H     H_    0.040657 0.796264 0.374347 0.201275
H7    H     H_    0.459354 0.296171 0.625739 0.201529
H8    H     H_    0.540657 0.296265 0.374345 0.201274
H9    H     H_    0.794830 0.777425 0.719772 0.154450
H10   H     H_    0.205175 0.777528 0.280207 0.154416
H11   H     H_    0.294834 0.277432 0.719773 0.154444
H12   H     H_    0.705178 0.277523 0.280208 0.154417
H13   H     H_    0.857750 0.777728 0.845737 0.149942
H14   H     H_    0.142283 0.777826 0.154230 0.150021
H15   H     H_    0.357755 0.277736 0.845738 0.149939
H16   H     H_    0.642286 0.277822 0.154231 0.150022
H17   H     H_    0.987385 0.723964 0.844661 0.149912
H18   H     H_    0.012713 0.723955 0.155360 0.149756
H19   H     H_    0.487384 0.223960 0.844661 0.149912
H20   H     H_    0.512713 0.223958 0.155359 0.149755
H21   H     H_    0.924236 0.723234 0.718752 0.153433
H22   H     H_    0.075824 0.723229 0.281259 0.153355
H23   H     H_    0.424234 0.223229 0.718752 0.153435
H24   H     H_    0.575823 0.223232 0.281259 0.153354
H25   H     H_    0.580183 0.565517 0.407822 0.166094
H26   H     H_    0.418003 0.564345 0.590409 0.165595
H27   H     H_    0.080367 0.065404 0.407992 0.166015
H28   H     H_    0.918063 0.064380 0.590464 0.165623
H29   H     H_    0.588282 0.655294 0.597561 0.199758
H30   H     H_    0.414429 0.656414 0.405694 0.199754
H31   H     H_    0.087973 0.155408 0.597191 0.199742
H32   H     H_    0.914334 0.156380 0.405579 0.199748
H33   H     H_    0.652508 0.620978 0.655104 0.211673
H34   H     H_    0.349852 0.622864 0.346160 0.211821
H35   H     H_    0.152238 0.121167 0.654955 0.211699
H36   H     H_    0.849767 0.122807 0.346109 0.211818
H37   H     H_    0.642534 0.712379 0.595371 0.213860
H38   H     H_    0.360238 0.713505 0.407976 0.213913
H39   H     H_    0.142222 0.212495 0.594994 0.213863
H40   H     H_    0.860142 0.213470 0.407858 0.213908
H41   H     H_    0.706630 0.677816 0.652122 0.201748
H42   H     H_    0.295774 0.679699 0.349238 0.201418
H43   H     H_    0.206360 0.178006 0.651968 0.201713
H44   H     H_    0.795689 0.179641 0.349185 0.201430
H45   H     H_    0.680918 0.692293 0.280618 0.165288
H46   H     H_    0.319832 0.691523 0.717624 0.175027
H47   H     H_    0.180915 0.192292 0.280618 0.165244
H48   H     H_    0.819859 0.191502 0.717619 0.175038
H49   H     H_    0.771457 0.881103 0.416939 0.159736
H50   H     H_    0.228561 0.881023 0.583089 0.160159
H51   H     H_    0.271457 0.381104 0.416941 0.159738
H52   H     H_    0.728561 0.381022 0.583090 0.160159
H53   H     H_    0.828356 0.937867 0.416713 0.164547
H54   H     H_    0.171666 0.937772 0.583350 0.164700
H55   H     H_    0.328356 0.437867 0.416714 0.164548
H56   H     H_    0.671666 0.437771 0.583352 0.164697
H57   H     H_    0.982215 0.841083 0.535214 0.191723
H58   H     H_    0.017840 0.841068 0.464928 0.191836
H59   H     H_    0.482214 0.341083 0.535211 0.191722
H60   H     H_    0.517840 0.341068 0.464925 0.191837
H61   H     H_    0.014778 0.852572 0.627927 0.212434
H62   H     H_    0.985239 0.852647 0.372203 0.212066
H63   H     H_    0.514778 0.352570 0.627925 0.212434
H64   H     H_    0.485239 0.352648 0.372200 0.212066
H65   H     H_    0.926567 0.784612 0.532911 0.217747
H66   H     H_    0.073483 0.784613 0.467189 0.217971
H67   H     H_    0.426565 0.284612 0.532908 0.217747
H68   H     H_    0.573482 0.284613 0.467187 0.217972
N1    N     N_R   0.555615 0.747148 0.034254 -0.135507
N2    N     N_R   0.521658 0.746598 0.965672 -0.174333
N3    N     N_R   0.055613 0.247155 0.034255 -0.135515
N4    N     N_R   0.021657 0.246606 0.965673 -0.174318
N5    N     N_R   0.445502 0.749556 0.965560 -0.147045
N6    N     N_R   0.479460 0.749990 0.034136 -0.184947
N7    N     N_R   0.945499 0.249544 0.965559 -0.147080
N8    N     N_R   0.979456 0.249978 0.034134 -0.184946
N9    N     N_R   0.020670 0.751099 0.965229 -0.175208
N10   N     N_R   0.979410 0.751085 0.034763 -0.175460
N11   N     N_R   0.520672 0.251097 0.965230 -0.175207
N12   N     N_R   0.479412 0.251088 0.034763 -0.175461
N13   N     N_R   0.054997 0.751262 0.033825 -0.174915
N14   N     N_R   0.945084 0.751221 0.966169 -0.175122
N15   N     N_R   0.554999 0.251260 0.033826 -0.174914
N16   N     N_R   0.445086 0.251225 0.966169 -0.175122
O1    O     O_R   0.821670 0.769930 0.500000 -0.625510
O2    O     O_R   0.178330 0.769930 0.500000 -0.625033
O3    O     O_R   0.321670 0.269930 0.500000 -0.625505
O4    O     O_R   0.678330 0.269930 0.500000 -0.625032
O5    O     O_R   0.482840 0.545830 0.557470 -0.625131
O6    O     O_R   0.517160 0.545830 0.442530 -0.625441
O7    O     O_R   0.982840 0.045830 0.557470 -0.625140
O8    O     O_R   0.017160 0.045830 0.442530 -0.625417
O9    O     O_R   0.925420 0.954200 0.442500 -0.622947
O10   O     O_R   0.074580 0.954200 0.557500 -0.622727
O11   O     O_R   0.425420 0.454200 0.442500 -0.622945
O12   O     O_R   0.574580 0.454200 0.557500 -0.622731
O13   O     O_R   0.982890 0.954220 0.557510 -0.620568
O14   O     O_R   0.017110 0.954220 0.442490 -0.620730
O15   O     O_R   0.482890 0.454220 0.557510 -0.620569
O16   O     O_R   0.517110 0.454220 0.442490 -0.620726
O17   O     O_R   0.769920 0.821660 0.500020 -0.618127
O18   O     O_R   0.230080 0.821660 0.499980 -0.618157
O19   O     O_R   0.269920 0.321660 0.500020 -0.618128
O20   O     O_R   0.730080 0.321660 0.499980 -0.618156
O21   O     O_R   0.724940 0.724130 0.398140 -0.614221
O22   O     O_R   0.275060 0.724130 0.601860 -0.616297
O23   O     O_R   0.224940 0.224130 0.398140 -0.614225
O24   O     O_R   0.775060 0.224130 0.601860 -0.616290
O25   O     O_R   0.673180 0.775850 0.398150 -0.627702
O26   O     O_R   0.326820 0.775850 0.601850 -0.625373
O27   O     O_R   0.173180 0.275850 0.398150 -0.627674
O28   O     O_R   0.826820 0.275850 0.601850 -0.625379
O29   O     O_R   0.730060 0.678320 0.499990 -0.601585
O30   O     O_R   0.269940 0.678320 0.500010 -0.601061
O31   O     O_R   0.230060 0.178320 0.499990 -0.601499
O32   O     O_R   0.769940 0.178320 0.500010 -0.601092
O33   O     O_R   0.678300 0.730040 0.500010 -0.627533
O34   O     O_R   0.321700 0.730040 0.499990 -0.627488
O35   O     O_R   0.178300 0.230040 0.500010 -0.627527
O36   O     O_R   0.821700 0.230040 0.499990 -0.627491
O37   O     O_R   0.826790 0.724120 0.601860 -0.624821
O38   O     O_R   0.173210 0.724120 0.398140 -0.624796
O39   O     O_R   0.326790 0.224120 0.601860 -0.624816
O40   O     O_R   0.673210 0.224120 0.398140 -0.624797
O41   O     O_R   0.775040 0.775850 0.601880 -0.622448
O42   O     O_R   0.224960 0.775850 0.398120 -0.622550
O43   O     O_R   0.275040 0.275850 0.601880 -0.622452
O44   O     O_R   0.724960 0.275850 0.398120 -0.622548
O45   O     O_R   0.425360 0.545810 0.442460 -0.623590
O46   O     O_R   0.574640 0.545810 0.557540 -0.623641
O47   O     O_R   0.925360 0.045810 0.442460 -0.623592
O48   O     O_R   0.074640 0.045810 0.557540 -0.623633
Zn1   Zn    Zn3+2 0.784540 0.715450 0.500000 0.963125
Zn2   Zn    Zn3+2 0.215460 0.715450 0.500000 0.963104
Zn3   Zn    Zn3+2 0.284540 0.215450 0.500000 0.963145
Zn4   Zn    Zn3+2 0.715460 0.215450 0.500000 0.963104
Zn5   Zn    Zn3+2 0.715430 0.784520 0.500010 0.964395
Zn6   Zn    Zn3+2 0.284570 0.784520 0.499990 0.964796
Zn7   Zn    Zn3+2 0.215430 0.284520 0.500010 0.964385
Zn8   Zn    Zn3+2 0.784570 0.284520 0.499990 0.964799
Zn9   Zn    Zn3+2 0.461590 0.500000 0.423210 0.954969
Zn10  Zn    Zn3+2 0.538410 0.500000 0.576790 0.955587
Zn11  Zn    Zn3+2 0.961590 0.000000 0.423210 0.954979
Zn12  Zn    Zn3+2 0.038410 1.000000 0.576790 0.955597
N17   N     N_2   0.637641 0.622961 0.392818 -0.295104
H69   H     H_    0.637535 0.591736 0.376436 0.224826
C145  C     C_3   0.600025 0.651971 0.335473 -0.758953
H70   H     H_    0.556552 0.641281 0.308483 0.237327
H71   H     H_    0.609064 0.651017 0.298299 0.237380
H72   H     H_    0.604940 0.686332 0.353604 0.240404
N18   N     N_2   0.360283 0.621554 0.605251 -0.294468
H73   H     H_    0.359613 0.590120 0.620442 0.224885
C146  C     C_3   0.397869 0.649769 0.663716 -0.758824
H74   H     H_    0.441287 0.638781 0.691024 0.237916
H75   H     H_    0.388185 0.648205 0.700234 0.236299
H76   H     H_    0.393610 0.684386 0.646781 0.239320
N19   N     N_2   0.137851 0.122832 0.393006 -0.295001
H77   H     H_    0.137810 0.091589 0.376727 0.224808
C147  C     C_3   0.100260 0.151786 0.335564 -0.758792
H78   H     H_    0.056786 0.141071 0.308505 0.237283
H79   H     H_    0.109391 0.150798 0.298481 0.237306
H80   H     H_    0.105104 0.186166 0.353598 0.240308
N20   N     N_2   0.860353 0.121596 0.605315 -0.294502
H81   H     H_    0.859702 0.090166 0.620539 0.224891
C148  C     C_3   0.897953 0.149826 0.663751 -0.758905
H82   H     H_    0.941371 0.138846 0.691029 0.237936
H83   H     H_    0.888307 0.148270 0.700306 0.236310
H84   H     H_    0.893669 0.184439 0.646788 0.239358
C149  C     C_2   0.528413 0.820532 0.145499 0.414341
H85   H     H_    0.506173 0.826101 0.090788 0.080984
O49   O     O_2   0.520345 0.845873 0.176881 -0.563470
C150  C     C_2   0.472358 0.819264 0.854707 0.415378
H86   H     H_    0.495919 0.823879 0.909844 0.082188
O50   O     O_2   0.479171 0.845545 0.823074 -0.566253
C151  C     C_2   0.028406 0.320527 0.145497 0.414335
H87   H     H_    0.006157 0.326090 0.090784 0.080990
O51   O     O_2   0.020346 0.345873 0.176882 -0.563471
C152  C     C_2   0.972322 0.319286 0.854711 0.415379
H88   H     H_    0.995885 0.323894 0.909850 0.082188
O52   O     O_2   0.979116 0.345583 0.823078 -0.566258
N21   N     N_2   0.617376 0.682520 0.145533 -0.294962
H89   H     H_    0.657227 0.671262 0.170484 0.224369
C153  C     C_3   0.578778 0.646858 0.124394 -0.766778
H90   H     H_    0.583027 0.622487 0.094412 0.241866
H91   H     H_    0.535504 0.659156 0.091022 0.254912
H92   H     H_    0.587535 0.630273 0.170432 0.228388
N22   N     N_2   0.386388 0.679993 0.856892 -0.291283
H93   H     H_    0.424328 0.669442 0.900220 0.235976
C154  C     C_3   0.345871 0.645174 0.820784 -0.793834
H94   H     H_    0.349770 0.622459 0.858877 0.246315
H95   H     H_    0.353005 0.626175 0.788430 0.232960
H96   H     H_    0.303343 0.659016 0.788592 0.250626
N23   N     N_2   0.117372 0.182517 0.145532 -0.294977
H97   H     H_    0.157223 0.171260 0.170483 0.224363
C155  C     C_3   0.078775 0.146855 0.124393 -0.766772
H98   H     H_    0.083024 0.122485 0.094410 0.241863
H99   H     H_    0.035501 0.159152 0.091021 0.254918
H100  H     H_    0.087532 0.130269 0.170431 0.228380
N24   N     N_2   0.886428 0.179960 0.856886 -0.291280
H101  H     H_    0.924370 0.169445 0.900248 0.236001
C156  C     C_3   0.845984 0.145093 0.820767 -0.793877
H102  H     H_    0.849908 0.122353 0.858852 0.246305
H103  H     H_    0.853179 0.126135 0.788439 0.232984
H104  H     H_    0.803428 0.158879 0.788547 0.250619

loop_
_geom_bond_atom_site_label_1
_geom_bond_atom_site_label_2
_ccdc_geom_bond_type
C152  O52   D    
C40   H64   S    
C133  C137  A    
C55   C59   A    
C76   N16   A    
O45   Zn9   S    
C77   C101  A    
C145  H70   S    
C136  C140  A    
O47   Zn11  S    
N23   H97   S    
O10   Zn12  S    
C147  H79   S    
C154  H94   S    
O38   Zn2   S    
C132  C152  S    
O12   Zn10  S    
C4    O4    A    
C49   H9    S    
C131  C151  S    
C95   C99   A    
C41   H5    S    
N9    N13   A    
C100  C104  A    
C116  O48   A    
C46   O22   A    
C12   C135  S    
C3    C19   S    
C43   H67   S    
C16   C44   S    
C11   N7    A    
C64   H20   S    
C11   N4    A    
C117  O9    A    
C49   C69   A    
C72   C124  S    
O41   Zn5   S    
C130  C134  A    
C100  C115  S    
C51   C71   A    
N12   N16   A    
C13   C41   S    
O25   Zn5   S    
C25   C29   A    
C27   C31   A    
C28   C32   A    
C112  H40   S    
C121  O37   A    
C99   C116  S    
C30   C34   A    
C109  H41   S    
C98   C102  A    
C124  O40   A    
C17   C21   A    
C86   N18   S    
C150  H86   S    
C48   O24   A    
C19   C23   A    
N3    N4    A    
C13   C33   A    
C52   C72   A    
C78   C82   A    
C147  H78   S    
C16   C20   A    
C80   C112  S    
C156  H104  S    
C92   O36   A    
C129  C133  A    
C89   O33   A    
C3    O3    A    
C90   O30   A    
O20   Zn8   S    
C91   O35   A    
C154  H96   S    
C67   H23   S    
C107  H35   S    
C84   C88   A    
C105  H33   S    
C10   N1    A    
C57   C61   A    
C83   C91   S    
C138  N22   S    
C59   C63   A    
O3    Zn3   S    
C60   C64   A    
O4    Zn4   S    
C75   N15   A    
C50   C70   A    
C1    O17   A    
C11   C136  S    
C94   H26   S    
C66   C70   A    
C49   C53   A    
O1    Zn1   S    
O21   Zn1   S    
C51   C55   A    
O24   Zn4   S    
C127  C131  A    
O15   Zn10  S    
C4    C20   S    
C61   C65   A    
C38   H58   S    
O27   Zn7   S    
C126  C130  A    
C103  C107  S    
N20   C148  S    
C12   N8    A    
O44   Zn8   S    
C151  O51   D    
O29   Zn1   S    
C29   C33   A    
O31   Zn3   S    
C7    C143  A    
N18   C146  S    
C94   C98   A    
O34   Zn6   S    
C74   N9    A    
C51   H11   S    
C44   H8    S    
C21   C25   A    
O2    Zn2   S    
C64   C68   A    
C71   C123  S    
C145  H71   S    
N11   N15   A    
C149  O49   D    
N21   C153  S    
C45   O21   A    
C139  C143  A    
C8    C128  A    
C40   H60   S    
C87   C95   A    
O46   Zn10  S    
C47   O23   A    
O11   Zn9   S    
C105  H29   S    
C146  H75   S    
C79   C103  A    
N17   H69   S    
C154  H95   S    
C148  H83   S    
C130  C150  S    
C62   C66   A    
C27   H55   S    
C8    C144  A    
C99   C103  A    
C113  O45   A    
C153  H91   S    
C30   C118  S    
N5    N6    A    
C125  C129  A    
C70   C122  S    
O43   Zn7   S    
C132  C136  A    
C111  H39   S    
O7    Zn12  S    
O8    Zn11  S    
O42   Zn6   S    
C77   C109  S    
O33   Zn5   S    
C68   H24   S    
C75   N12   A    
C26   C30   A    
N24   C156  S    
O17   Zn5   S    
C87   N19   S    
C156  H103  S    
C121  O41   A    
C122  O38   A    
C112  H44   S    
C123  O43   A    
N7    N8    A    
C105  C109  S    
C124  O44   A    
C143  H47   S    
C18   C22   A    
C107  C111  S    
C24   C28   A    
C14   C34   A    
C129  C149  S    
O6    Zn9   S    
C1    C17   S    
C12   N3    A    
C13   C17   A    
C135  C139  A    
C15   C43   S    
C74   N14   A    
C125  H1    S    
C16   C36   A    
C119  O11   A    
C96   C100  A    
C37   C41   S    
C26   H54   S    
O23   Zn3   S    
C91   O31   A    
C2    O2    A    
C40   C44   S    
C155  H100  S    
C56   C60   A    
C114  O6    A    
C23   H51   S    
C84   C92   S    
C21   H49   S    
C97   C114  S    
C59   C76   S    
C106  H34   S    
C81   C85   A    
C118  O14   A    
C58   C62   A    
C83   C87   A    
C88   C96   A    
C39   H59   S    
C78   C102  A    
C10   C133  S    
C80   C84   A    
C115  O7    A    
N1    N2    A    
C113  O5    A    
C93   H25   S    
C50   C54   A    
C80   C104  A    
O22   Zn2   S    
C54   C58   A    
C24   H52   S    
C9    N5    A    
C142  H46   S    
C65   H21   S    
C150  O50   D    
O19   Zn7   S    
C110  H42   S    
O30   Zn2   S    
C6    C142  A    
C6    C46   S    
C63   H19   S    
C42   H66   S    
C81   C89   S    
C118  O10   A    
C55   H15   S    
C152  H88   S    
C139  N23   S    
C3    O19   A    
N23   C155  S    
C137  N21   S    
C147  H80   S    
N19   C147  S    
C76   N11   A    
N20   H81   S    
C141  H45   S    
C6    C126  A    
C138  C142  A    
N18   H73   S    
C53   C57   A    
C128  H4    S    
C98   C113  S    
C144  H48   S    
C82   C86   A    
C5    C45   S    
C33   C37   S    
C108  C112  S    
C7    C47   S    
C35   C39   S    
N22   H93   S    
C8    C48   S    
C47   O27   A    
C93   C97   A    
C155  H98   S    
C77   C81   A    
C116  O8    A    
C106  H30   S    
C31   C119  S    
C120  O12   A    
O36   Zn8   S    
C31   C35   A    
O9    Zn11  S    
C32   C36   A    
C104  C108  S    
C43   H7    S    
C114  O46   A    
O48   Zn12  S    
C137  C141  A    
N19   H77   S    
C140  C144  A    
C9    N2    A    
C85   N17   S    
O40   Zn4   S    
C60   C75   S    
C111  H43   S    
C82   C90   S    
C2    O18   A    
C153  H90   S    
C79   C83   A    
O37   Zn1   S    
C149  H85   S    
C62   H18   S    
C107  H31   S    
C65   C69   A    
C108  H32   S    
O39   Zn3   S    
O18   Zn6   S    
C67   C71   A    
N21   H89   S    
C122  O42   A    
C151  H87   S    
C123  O39   A    
C110  H38   S    
C22   C26   A    
C37   H57   S    
C140  N24   S    
C95   H27   S    
C46   O26   A    
N24   H101  S    
C2    C18   S    
C146  H74   S    
C14   C18   A    
C126  H2    S    
C148  H82   S    
C28   H56   S    
C73   N10   A    
C61   H17   S    
C38   C42   S    
C131  C135  A    
O32   Zn4   S    
N10   N14   A    
O35   Zn7   S    
C108  H36   S    
C120  O16   A    
C4    O20   A    
C86   C94   A    
C15   C19   A    
O5    Zn10  S    
C39   H63   S    
C23   C27   A    
C48   O28   A    
C68   C72   A    
C14   C42   S    
C41   H65   S    
C9    C134  S    
O16   Zn9   S    
C85   C93   A    
C32   C120  S    
C90   O34   A    
C128  C132  A    
C15   C35   A    
C92   O32   A    
C101  C105  S    
C63   C67   A    
O28   Zn8   S    
C20   C24   A    
C36   C40   S    
C145  H72   S    
C89   O29   A    
C39   C43   S    
C29   C117  S    
C44   H68   S    
C57   C74   S    
C1    O1    A    
C54   H14   S    
C5    C141  A    
C69   C121  S    
C78   C110  S    
N22   C154  S    
C155  H99   S    
C146  H76   S    
C5    C125  A    
C10   N6    A    
C106  C110  S    
C148  H84   S    
C38   H62   S    
C34   C38   S    
C66   H22   S    
C134  C138  A    
C153  H92   S    
C52   H12   S    
C53   H13   S    
C79   C111  S    
C7    C127  A    
C56   H16   S    
C73   N13   A    
C37   H61   S    
C50   H10   S    
C109  H37   S    
O26   Zn6   S    
N17   C145  S    
C102  C106  S    
O13   Zn12  S    
C42   H6    S    
O14   Zn11  S    
C25   H53   S    
C115  O47   A    
C88   N20   S    
C96   H28   S    
C127  H3    S    
C22   H50   S    
C156  H102  S    
C119  O15   A    
C97   C101  A    
C52   C56   A    
C58   C73   S    
C45   O25   A    
C117  O13   A    
