data_mof_unit_65171.cif
_audit_creation_date              2012-12-10T18:59:37-0500
_audit_creation_method            fapswitch 2.2
_symmetry_space_group_name_H-M    P1
_symmetry_Int_Tables_number       1
_space_group_crystal_system       triclinic
_cell_length_a                    26.231846
_cell_length_b                    34.546524
_cell_length_c                    34.547329
_cell_angle_alpha                 90.0
_cell_angle_beta                  90.003486
_cell_angle_gamma                 90.0038
_cell_volume                      31307.4491773

loop_
_atom_site_label
_atom_site_type_symbol
_atom_type_description
_atom_site_fract_x
_atom_site_fract_y
_atom_site_fract_z
_atom_type_partial_charge
C1    C     C_R   0.611368 0.000338 0.250137 0.872915
C2    C     C_R   0.111348 0.999902 0.250305 0.872739
C3    C     C_R   0.291409 0.984491 0.582102 -0.190385
C4    C     C_R   0.208567 0.484585 0.417900 -0.190189
C5    C     C_R   0.229381 0.468561 0.582115 -0.188889
C6    C     C_R   0.791419 0.484473 0.417896 -0.190281
C7    C     C_R   0.770499 0.468538 0.582116 -0.188431
C8    C     C_R   0.229439 0.968541 0.917880 -0.189899
C9    C     C_R   0.208588 0.984547 0.082093 -0.189955
C10   C     C_R   0.791418 0.984471 0.917896 -0.190075
C11   C     C_R   0.770498 0.968537 0.082117 -0.188553
C12   C     C_R   0.708575 0.484504 0.917897 -0.189061
C13   C     C_R   0.888619 0.999796 0.749601 0.872803
C14   C     C_R   0.729477 0.468537 0.082116 -0.189747
C15   C     C_R   0.291421 0.484541 0.917901 -0.188727
C16   C     C_R   0.270549 0.468542 0.082117 -0.189486
C17   C     C_R   0.750076 0.999954 0.397509 0.001846
C18   C     C_R   0.750089 0.999939 0.602502 0.003168
C19   C     C_R   0.249921 0.999949 0.397503 0.002301
C20   C     C_R   0.249942 0.999961 0.602498 0.002539
C21   C     C_R   0.250110 0.499928 0.397497 0.003105
C22   C     C_R   0.250109 0.499933 0.602491 0.001503
C23   C     C_R   0.749965 0.499973 0.397502 0.002478
C24   C     C_R   0.888620 0.000368 0.249829 0.872768
C25   C     C_R   0.749960 0.499975 0.602496 0.001966
C26   C     C_R   0.250114 0.999933 0.897507 0.003084
C27   C     C_R   0.250107 0.999926 0.102501 0.002816
C28   C     C_R   0.749965 0.999973 0.897502 0.002325
C29   C     C_R   0.749959 0.999974 0.102496 0.002012
C30   C     C_R   0.750050 0.499968 0.897503 0.002472
C31   C     C_R   0.750070 0.499957 0.102497 0.003108
C32   C     C_R   0.249910 0.499937 0.897498 0.002815
C33   C     C_R   0.249918 0.499948 0.102492 0.002256
C34   C     C_R   0.770813 0.031315 0.417899 -0.189592
C35   C     C_R   0.611380 0.500369 0.750174 0.872013
C36   C     C_R   0.791674 0.015292 0.582147 -0.191995
C37   C     C_R   0.229247 0.031333 0.417888 -0.189869
C38   C     C_R   0.208421 0.015399 0.582133 -0.190532
C39   C     C_R   0.291744 0.515211 0.417849 -0.190546
C40   C     C_R   0.270964 0.531248 0.582101 -0.189915
C41   C     C_R   0.708482 0.515460 0.417870 -0.190572
C42   C     C_R   0.729375 0.531395 0.582113 -0.189616
C43   C     C_R   0.270915 0.031269 0.917899 -0.191204
C44   C     C_R   0.291717 0.015248 0.082153 -0.190463
C45   C     C_R   0.708482 0.015461 0.917871 -0.190394
C46   C     C_R   0.611352 0.500288 0.249918 0.873343
C47   C     C_R   0.729374 0.031394 0.082113 -0.189856
C48   C     C_R   0.791572 0.515407 0.917869 -0.189114
C49   C     C_R   0.770738 0.531347 0.082115 -0.191122
C50   C     C_R   0.208325 0.515285 0.917853 -0.190547
C51   C     C_R   0.229189 0.531309 0.082101 -0.189334
C52   C     C_R   0.770545 0.031417 0.458173 -0.181198
C53   C     C_R   0.791899 0.015009 0.541872 -0.181170
C54   C     C_R   0.229541 0.031447 0.458161 -0.181313
C55   C     C_R   0.208198 0.015112 0.541860 -0.181555
C56   C     C_R   0.291988 0.514913 0.458124 -0.181095
C57   C     C_R   0.388651 0.499903 0.749695 0.871964
C58   C     C_R   0.270712 0.531342 0.541826 -0.181004
C59   C     C_R   0.708281 0.515191 0.458144 -0.181352
C60   C     C_R   0.729687 0.531518 0.541839 -0.181189
C61   C     C_R   0.270659 0.031363 0.958173 -0.181189
C62   C     C_R   0.291961 0.014951 0.041878 -0.181113
C63   C     C_R   0.708281 0.015192 0.958144 -0.181291
C64   C     C_R   0.729686 0.031518 0.041839 -0.181252
C65   C     C_R   0.791789 0.515126 0.958143 -0.181332
C66   C     C_R   0.770439 0.531465 0.041842 -0.181228
C67   C     C_R   0.208097 0.514998 0.958128 -0.180839
C68   C     C_R   0.388623 0.499811 0.250388 0.872916
C69   C     C_R   0.229455 0.531408 0.041827 -0.181029
C70   C     C_R   0.749993 0.999988 0.144864 0.783827
C71   C     C_R   0.749993 0.999986 0.855135 0.783240
C72   C     C_R   0.250022 0.999976 0.144866 0.782136
C73   C     C_R   0.250021 0.999979 0.855137 0.780840
C74   C     C_R   0.249987 0.499984 0.144863 0.783848
C75   C     C_R   0.249980 0.499978 0.855134 0.782740
C76   C     C_R   0.750015 0.499982 0.144864 0.780946
C77   C     C_R   0.750009 0.499987 0.855136 0.783841
C78   C     C_R   0.249990 0.999985 0.644865 0.783099
C79   C     C_R   0.770611 0.667862 0.218579 -0.191117
C80   C     C_R   0.249983 0.999980 0.355135 0.782156
C81   C     C_R   0.750020 0.999978 0.644866 0.780763
C82   C     C_R   0.750011 0.999985 0.355138 0.783990
C83   C     C_R   0.749993 0.499988 0.644864 0.783913
C84   C     C_R   0.749993 0.499986 0.355135 0.783155
C85   C     C_R   0.250019 0.499979 0.644862 0.782967
C86   C     C_R   0.250023 0.499977 0.355133 0.781433
C87   C     C_R   0.750212 0.999889 0.478676 0.113758
C88   C     C_R   0.750197 0.999884 0.521339 0.114203
C89   C     C_R   0.249823 0.999904 0.478669 0.114006
C90   C     C_R   0.791623 0.667852 0.765261 -0.190472
C91   C     C_R   0.249847 0.999907 0.521333 0.114167
C92   C     C_R   0.250255 0.499846 0.478659 0.114044
C93   C     C_R   0.250281 0.499849 0.521323 0.113787
C94   C     C_R   0.749914 0.499952 0.478667 0.114238
C95   C     C_R   0.749902 0.499952 0.521330 0.113822
C96   C     C_R   0.250280 0.999851 0.978674 0.114163
C97   C     C_R   0.250252 0.999847 0.021338 0.113850
C98   C     C_R   0.749914 0.999952 0.978668 0.114136
C99   C     C_R   0.749902 0.999951 0.021330 0.113886
C100  C     C_R   0.750134 0.499926 0.978668 0.113850
C101  C     C_R   0.208386 0.667843 0.234659 -0.191906
C102  C     C_R   0.750156 0.499921 0.021331 0.114173
C103  C     C_R   0.249795 0.499873 0.978662 0.113898
C104  C     C_R   0.249778 0.499878 0.021325 0.113880
C105  C     C_R   0.750002 0.105109 0.250000 0.780405
C106  C     C_R   0.749991 0.105112 0.749994 0.783568
C107  C     C_R   0.250001 0.105111 0.250000 0.784559
C108  C     C_R   0.249991 0.105112 0.750006 0.783034
C109  C     C_R   0.249987 0.605110 0.250009 0.782851
C110  C     C_R   0.250000 0.605111 0.749999 0.784567
C111  C     C_R   0.749991 0.605111 0.249993 0.782910
C112  C     C_R   0.611360 0.000311 0.749891 0.872474
C113  C     C_R   0.208542 0.667862 0.765504 -0.189236
C114  C     C_R   0.750000 0.605109 0.750000 0.781096
C115  C     C_R   0.749997 0.894859 0.249999 0.782276
C116  C     C_R   0.750000 0.894855 0.749999 0.783259
C117  C     C_R   0.249994 0.894856 0.250003 0.781794
C118  C     C_R   0.250001 0.894858 0.750002 0.782409
C119  C     C_R   0.249998 0.394858 0.249999 0.782414
C120  C     C_R   0.249998 0.394859 0.750000 0.781761
C121  C     C_R   0.750001 0.394855 0.249998 0.782493
C122  C     C_R   0.749996 0.394859 0.749998 0.782902
C123  C     C_R   0.708277 0.791836 0.265156 -0.181282
C124  C     C_R   0.291462 0.167866 0.234496 -0.189274
C125  C     C_R   0.729537 0.791814 0.718522 -0.181100
C126  C     C_R   0.270203 0.791830 0.281590 -0.181080
C127  C     C_R   0.270203 0.791829 0.718435 -0.181151
C128  C     C_R   0.229800 0.291827 0.281568 -0.181141
C129  C     C_R   0.208279 0.291836 0.734840 -0.181327
C130  C     C_R   0.770451 0.291815 0.281468 -0.181179
C131  C     C_R   0.791632 0.291829 0.734796 -0.180937
C132  C     C_R   0.229819 0.791828 0.781582 -0.180822
C133  C     C_R   0.229576 0.791815 0.218530 -0.181253
C134  C     C_R   0.770461 0.791815 0.781471 -0.180871
C135  C     C_R   0.270621 0.167864 0.781416 -0.190925
C136  C     C_R   0.791619 0.791828 0.234773 -0.181100
C137  C     C_R   0.708261 0.291837 0.765133 -0.181126
C138  C     C_R   0.729587 0.291817 0.218498 -0.181080
C139  C     C_R   0.291632 0.291828 0.765212 -0.181120
C140  C     C_R   0.270185 0.291830 0.218422 -0.180828
C141  C     C_R   0.708475 0.832111 0.265433 -0.189925
C142  C     C_R   0.729205 0.832091 0.718656 -0.188683
C143  C     C_R   0.270579 0.832105 0.281434 -0.189842
C144  C     C_R   0.270538 0.832104 0.718568 -0.188330
C145  C     C_R   0.229462 0.332102 0.281435 -0.188691
C146  C     C_R   0.708403 0.167850 0.234707 -0.191930
C147  C     C_R   0.208475 0.332110 0.734565 -0.190226
C148  C     C_R   0.770776 0.332091 0.281340 -0.188321
C149  C     C_R   0.791474 0.332103 0.734547 -0.190177
C150  C     C_R   0.229477 0.832104 0.781447 -0.189816
C151  C     C_R   0.229283 0.832091 0.218641 -0.188741
C152  C     C_R   0.770792 0.832091 0.781338 -0.188298
C153  C     C_R   0.791461 0.832103 0.234526 -0.190088
C154  C     C_R   0.708459 0.332112 0.765409 -0.188784
C155  C     C_R   0.729249 0.332093 0.218635 -0.189698
C156  C     C_R   0.291473 0.332103 0.765462 -0.189047
C157  C     C_R   0.729251 0.167867 0.781347 -0.189883
C158  C     C_R   0.270524 0.332106 0.218557 -0.189370
C159  C     C_R   0.749979 0.852489 0.249988 0.001941
C160  C     C_R   0.749999 0.852478 0.749998 0.001321
C161  C     C_R   0.249957 0.852482 0.250024 0.002346
C162  C     C_R   0.250005 0.852487 0.750006 0.002208
C163  C     C_R   0.249994 0.352487 0.249997 0.002193
C164  C     C_R   0.249983 0.352488 0.750007 0.002303
C165  C     C_R   0.750008 0.352478 0.249991 0.002003
C166  C     C_R   0.749978 0.352489 0.749986 0.002007
C167  C     C_R   0.749938 0.771318 0.249958 0.113891
C168  C     C_R   0.291467 0.667864 0.734497 -0.190639
C169  C     C_R   0.750000 0.771302 0.749996 0.113479
C170  C     C_R   0.249875 0.771310 0.250069 0.113797
C171  C     C_R   0.250012 0.771316 0.750009 0.113786
C172  C     C_R   0.249993 0.271316 0.249995 0.113766
C173  C     C_R   0.249946 0.271318 0.750032 0.113898
C174  C     C_R   0.750022 0.271303 0.249981 0.113658
C175  C     C_R   0.749937 0.271319 0.749959 0.113953
C176  C     C_R   0.770252 0.708136 0.218433 -0.181312
C177  C     C_R   0.791793 0.708128 0.765003 -0.180848
C178  C     C_R   0.208183 0.708119 0.234933 -0.180850
C179  C     C_R   0.291460 0.667871 0.265445 -0.188914
C180  C     C_R   0.208371 0.708137 0.765251 -0.181038
C181  C     C_R   0.291634 0.208141 0.234752 -0.181056
C182  C     C_R   0.270265 0.208138 0.781559 -0.181094
C183  C     C_R   0.708240 0.208125 0.234956 -0.181085
C184  C     C_R   0.729576 0.208141 0.781474 -0.180951
C185  C     C_R   0.291646 0.708139 0.734759 -0.181132
C186  C     C_R   0.291602 0.708146 0.265206 -0.181149
C187  C     C_R   0.708209 0.708122 0.734990 -0.180894
C188  C     C_R   0.729606 0.708140 0.281483 -0.181285
C189  C     C_R   0.770281 0.208138 0.718447 -0.181308
C190  C     C_R   0.708379 0.667847 0.734736 -0.191863
C191  C     C_R   0.791797 0.208126 0.265011 -0.181162
C192  C     C_R   0.229604 0.208139 0.718511 -0.181311
C193  C     C_R   0.208359 0.208135 0.265242 -0.181137
C194  C     C_3   0.547518 0.564957 0.281152 -0.818390
C195  C     C_3   0.548077 0.566975 0.723395 -0.828673
C196  C     C_3   0.452001 0.527151 0.316772 -0.828510
C197  C     C_3   0.452551 0.531679 0.685285 -0.817149
C198  C     C_3   0.047459 0.031650 0.314729 -0.817059
C199  C     C_3   0.047429 0.064589 0.718090 -0.816742
C200  C     C_3   0.951938 0.066963 0.276638 -0.828600
C201  C     C_R   0.729280 0.667866 0.281356 -0.189958
C202  C     C_3   0.951894 0.026382 0.682916 -0.828812
C203  C     C_3   0.047800 0.528801 0.816062 -0.827303
C204  C     C_3   0.047972 0.566651 0.222612 -0.826739
C205  C     C_3   0.952300 0.565733 0.779500 -0.826091
C206  C     C_3   0.952471 0.530879 0.184903 -0.816683
C207  C     C_3   0.547651 0.065507 0.779972 -0.818188
C208  C     C_3   0.547829 0.066177 0.221504 -0.826588
C209  C     C_3   0.452169 0.028298 0.816270 -0.820007
C210  C     C_3   0.452326 0.029792 0.184384 -0.825087
C211  C     C_R   0.770640 0.167863 0.718593 -0.189737
C212  C     C_R   0.388639 0.999862 0.249657 0.873022
C213  C     C_R   0.791621 0.167851 0.265273 -0.191883
C214  C     C_R   0.229276 0.167865 0.718641 -0.189846
C215  C     C_R   0.208536 0.167860 0.265501 -0.190660
C216  C     C_R   0.749963 0.647481 0.249976 0.002658
C217  C     C_R   0.750001 0.647472 0.750000 0.003809
C218  C     C_R   0.249945 0.647477 0.250036 0.003148
C219  C     C_R   0.250003 0.647481 0.749999 0.002737
C220  C     C_R   0.250000 0.147481 0.249999 0.002767
C221  C     C_R   0.249965 0.147482 0.750021 0.002593
C222  C     C_R   0.750008 0.147472 0.249995 0.003927
C223  C     C_R   0.388630 0.999834 0.750367 0.872989
C224  C     C_R   0.749963 0.147482 0.749978 0.001981
C225  C     C_R   0.749927 0.728652 0.249956 0.114252
C226  C     C_R   0.750001 0.728637 0.749996 0.114166
C227  C     C_R   0.249881 0.728645 0.250075 0.114063
C228  C     C_R   0.250011 0.728651 0.750007 0.114178
C229  C     C_R   0.249995 0.228651 0.249996 0.114194
C230  C     C_R   0.249934 0.228652 0.750036 0.114200
C231  C     C_R   0.750021 0.228638 0.249981 0.114237
C232  C     C_R   0.749926 0.228653 0.749958 0.114004
C233  C     C_2   0.527068 0.525580 0.269673 0.193212
C234  C     C_R   0.111376 0.500357 0.250160 0.872711
C235  C     C_2   0.527265 0.527073 0.732435 0.198573
C236  C     C_2   0.472763 0.517799 0.276929 0.197283
C237  C     C_2   0.472959 0.519894 0.724583 0.193571
C238  C     C_2   0.027046 0.019881 0.275428 0.193236
C239  C     C_2   0.027033 0.025319 0.729983 0.192654
C240  C     C_2   0.972741 0.027064 0.267580 0.198246
C241  C     C_2   0.972726 0.017443 0.722834 0.198443
C242  C     C_2   0.027169 0.518569 0.776396 0.196810
C243  C     C_2   0.027230 0.526826 0.232073 0.197333
C244  C     C_2   0.972868 0.526142 0.768913 0.197149
C245  C     C_R   0.111366 0.499840 0.750360 0.872273
C246  C     C_2   0.972928 0.519534 0.224315 0.193935
C247  C     C_2   0.527118 0.025976 0.769124 0.193289
C248  C     C_2   0.527179 0.026468 0.231548 0.197693
C249  C     C_2   0.472820 0.018340 0.776544 0.194920
C250  C     C_2   0.472877 0.019027 0.223933 0.196039
C251  C     C_2   0.556049 0.497805 0.253089 -0.355134
C252  C     C_2   0.556070 0.498249 0.747274 -0.353316
C253  C     C_2   0.443932 0.502742 0.248230 -0.352380
C254  C     C_2   0.443954 0.503102 0.752220 -0.357246
C255  C     C_2   0.056046 0.003098 0.247782 -0.356240
C256  C     C_R   0.888647 0.499886 0.249680 0.873192
C257  C     C_2   0.056045 0.997730 0.746851 -0.355942
C258  C     C_2   0.943929 0.998247 0.252732 -0.352281
C259  C     C_2   0.943930 0.002681 0.751701 -0.351789
C260  C     C_2   0.056059 0.502869 0.748071 -0.354840
C261  C     C_2   0.056067 0.498177 0.247215 -0.353233
C262  C     C_2   0.943942 0.497972 0.752962 -0.354761
C263  C     C_2   0.943950 0.503043 0.252145 -0.355222
C264  C     C_2   0.556056 0.997922 0.752989 -0.355324
C265  C     C_2   0.556061 0.998068 0.247119 -0.353472
C266  C     C_2   0.443937 0.002838 0.748109 -0.353242
C267  C     C_R   0.888638 0.500321 0.749885 0.872477
C268  C     C_2   0.443945 0.002950 0.252026 -0.354665
C269  C     C_R   0.729838 0.968385 0.458158 -0.181061
C270  C     C_R   0.708453 0.984776 0.541828 -0.181196
C271  C     C_R   0.270123 0.968372 0.458155 -0.181112
C272  C     C_R   0.291539 0.984725 0.541830 -0.181021
C273  C     C_R   0.208463 0.484806 0.458172 -0.180957
C274  C     C_R   0.229803 0.468385 0.541842 -0.181227
C275  C     C_R   0.791570 0.484722 0.458168 -0.181034
C276  C     C_R   0.770130 0.468391 0.541844 -0.180994
C277  C     C_R   0.229859 0.968366 0.958153 -0.181458
C278  C     C_R   0.111347 0.000274 0.750064 0.873376
C279  C     C_R   0.208484 0.984768 0.041821 -0.181007
C280  C     C_R   0.791569 0.984721 0.958168 -0.180951
C281  C     C_R   0.770129 0.968391 0.041844 -0.181060
C282  C     C_R   0.708439 0.484744 0.958170 -0.180823
C283  C     C_R   0.729859 0.468385 0.041844 -0.181070
C284  C     C_R   0.291539 0.484769 0.958174 -0.180841
C285  C     C_R   0.270143 0.468373 0.041845 -0.180871
C286  C     C_R   0.729433 0.968552 0.417885 -0.188352
C287  C     C_R   0.708575 0.984542 0.582100 -0.190218
C288  C     C_R   0.270511 0.968529 0.417882 -0.189936
H1    H     H_    0.675235 0.776791 0.276399 0.130069
H2    H     H_    0.214502 0.776756 0.193540 0.130186
H3    H     H_    0.324558 0.973468 0.526768 0.130378
H4    H     H_    0.175385 0.473657 0.473242 0.130483
H5    H     H_    0.214656 0.443411 0.526797 0.130228
H6    H     H_    0.824576 0.473437 0.473229 0.130401
H7    H     H_    0.785107 0.443364 0.526795 0.130287
H8    H     H_    0.214753 0.943377 0.973196 0.129874
H9    H     H_    0.175424 0.973589 0.026748 0.130459
H10   H     H_    0.824574 0.973434 0.973229 0.130452
H11   H     H_    0.785106 0.943363 0.026795 0.130300
H12   H     H_    0.675417 0.473490 0.973232 0.130465
H13   H     H_    0.785644 0.776761 0.806425 0.130468
H14   H     H_    0.714831 0.443373 0.026794 0.130174
H15   H     H_    0.324590 0.473572 0.973243 0.130460
H16   H     H_    0.285209 0.443374 0.026799 0.130145
H17   H     H_    0.713623 0.943882 0.402705 0.156625
H18   H     H_    0.675885 0.972831 0.597259 0.155969
H19   H     H_    0.286266 0.943840 0.402703 0.154846
H20   H     H_    0.324055 0.972716 0.597267 0.155862
H21   H     H_    0.175841 0.472927 0.402741 0.155973
H22   H     H_    0.213485 0.443924 0.597294 0.156571
H23   H     H_    0.824038 0.472661 0.402729 0.155906
H24   H     H_    0.824648 0.776775 0.223520 0.130072
H25   H     H_    0.786192 0.443825 0.597294 0.156515
H26   H     H_    0.213589 0.943887 0.902698 0.154904
H27   H     H_    0.175880 0.972859 0.097249 0.155945
H28   H     H_    0.824036 0.972658 0.902729 0.156085
H29   H     H_    0.786192 0.943824 0.097294 0.156502
H30   H     H_    0.675927 0.472730 0.902732 0.156201
H31   H     H_    0.713726 0.443844 0.097293 0.154927
H32   H     H_    0.324111 0.472833 0.902742 0.156003
H33   H     H_    0.286350 0.443870 0.097299 0.154969
H34   H     H_    0.786581 0.056007 0.402729 0.155628
H35   H     H_    0.675209 0.276792 0.776359 0.130023
H36   H     H_    0.824329 0.027015 0.597348 0.154568
H37   H     H_    0.213515 0.056035 0.402715 0.155907
H38   H     H_    0.175808 0.027192 0.597324 0.154170
H39   H     H_    0.324423 0.526890 0.402645 0.154756
H40   H     H_    0.286812 0.555912 0.597268 0.156061
H41   H     H_    0.675880 0.527280 0.402683 0.154252
H42   H     H_    0.713697 0.556114 0.597288 0.155571
H43   H     H_    0.286718 0.055949 0.902732 0.154257
H44   H     H_    0.324377 0.026956 0.097358 0.154742
H45   H     H_    0.675882 0.027282 0.902683 0.154435
H46   H     H_    0.714430 0.276763 0.193533 0.129794
H47   H     H_    0.713696 0.056114 0.097288 0.155511
H48   H     H_    0.824191 0.527196 0.902680 0.154645
H49   H     H_    0.786469 0.556050 0.097290 0.154222
H50   H     H_    0.175671 0.527008 0.902653 0.154737
H51   H     H_    0.213429 0.556003 0.097269 0.155686
H52   H     H_    0.515934 0.585301 0.287837 0.223565
H53   H     H_    0.571642 0.562530 0.307436 0.252354
H54   H     H_    0.569666 0.577802 0.256947 0.233623
H55   H     H_    0.516641 0.587916 0.718349 0.224283
H56   H     H_    0.570787 0.578033 0.748178 0.229689
H57   H     H_    0.324665 0.276775 0.776461 0.130085
H58   H     H_    0.571794 0.566120 0.696805 0.254505
H59   H     H_    0.483459 0.532399 0.337646 0.224358
H60   H     H_    0.428242 0.553713 0.315716 0.253452
H61   H     H_    0.429352 0.502437 0.328054 0.230288
H62   H     H_    0.484150 0.538572 0.665025 0.224258
H63   H     H_    0.430472 0.507555 0.672217 0.233663
H64   H     H_    0.428375 0.557915 0.687911 0.252087
H65   H     H_    0.015862 0.038532 0.334994 0.224262
H66   H     H_    0.069538 0.007522 0.327786 0.233765
H67   H     H_    0.071635 0.057889 0.312114 0.252047
H68   H     H_    0.285149 0.276779 0.193391 0.130060
H69   H     H_    0.015825 0.084820 0.711124 0.224317
H70   H     H_    0.069481 0.077736 0.742185 0.233924
H71   H     H_    0.071625 0.061893 0.691873 0.251963
H72   H     H_    0.983378 0.087900 0.281695 0.224291
H73   H     H_    0.929234 0.078033 0.251858 0.229805
H74   H     H_    0.928217 0.066097 0.303225 0.254449
H75   H     H_    0.983321 0.031358 0.661951 0.224283
H76   H     H_    0.929160 0.001577 0.671935 0.229734
H77   H     H_    0.928194 0.052983 0.683706 0.254464
H78   H     H_    0.016287 0.534640 0.836727 0.224169
H79   H     H_    0.785659 0.056394 0.473232 0.129879
H80   H     H_    0.070248 0.504288 0.827993 0.230691
H81   H     H_    0.071704 0.555262 0.814442 0.253298
H82   H     H_    0.016506 0.587495 0.217286 0.225081
H83   H     H_    0.070591 0.578019 0.247304 0.229888
H84   H     H_    0.071754 0.565529 0.196066 0.254218
H85   H     H_    0.983839 0.586308 0.785581 0.224123
H86   H     H_    0.929936 0.577926 0.755071 0.231161
H87   H     H_    0.928335 0.563884 0.805912 0.252965
H88   H     H_    0.984053 0.537480 0.164530 0.224217
H89   H     H_    0.930295 0.506636 0.172151 0.233093
H90   H     H_    0.824983 0.026193 0.526837 0.129726
H91   H     H_    0.928367 0.557180 0.187241 0.253316
H92   H     H_    0.516099 0.086014 0.786230 0.224469
H93   H     H_    0.571662 0.063490 0.806350 0.252482
H94   H     H_    0.569950 0.077891 0.755608 0.232970
H95   H     H_    0.516324 0.086883 0.215784 0.224091
H96   H     H_    0.570314 0.077976 0.246063 0.230461
H97   H     H_    0.571707 0.064679 0.195025 0.254174
H98   H     H_    0.483675 0.033960 0.836994 0.223623
H99   H     H_    0.428305 0.054787 0.814828 0.253999
H100  H     H_    0.429672 0.003715 0.828004 0.232062
H101  H     H_    0.214485 0.056445 0.473214 0.129918
H102  H     H_    0.483872 0.035992 0.163853 0.224907
H103  H     H_    0.429998 0.005408 0.172061 0.231123
H104  H     H_    0.428335 0.056182 0.186349 0.252809
H105  H     H_    0.714355 0.776759 0.693567 0.130149
H106  H     H_    0.175150 0.026356 0.526821 0.129520
H107  H     H_    0.325108 0.526043 0.473157 0.129721
H108  H     H_    0.285911 0.556288 0.526768 0.130231
H109  H     H_    0.675261 0.526473 0.473186 0.129611
H110  H     H_    0.714692 0.556538 0.526786 0.129849
H111  H     H_    0.285814 0.056325 0.973233 0.129855
H112  H     H_    0.325064 0.026112 0.026848 0.129694
H113  H     H_    0.675261 0.026475 0.973186 0.129640
H114  H     H_    0.714691 0.056538 0.026787 0.129841
H115  H     H_    0.824838 0.526370 0.973183 0.129633
H116  H     H_    0.285253 0.776782 0.306595 0.129995
H117  H     H_    0.785493 0.556466 0.026790 0.129781
H118  H     H_    0.175013 0.526180 0.973164 0.129782
H119  H     H_    0.214348 0.556385 0.026766 0.130189
H120  H     H_    0.675853 0.847292 0.277222 0.155973
H121  H     H_    0.713334 0.847264 0.694006 0.156562
H122  H     H_    0.286346 0.847286 0.306120 0.154874
H123  H     H_    0.286197 0.847282 0.693842 0.156470
H124  H     H_    0.213801 0.347278 0.306160 0.156406
H125  H     H_    0.175848 0.347291 0.722781 0.155986
H126  H     H_    0.786621 0.347264 0.306001 0.156588
H127  H     H_    0.285167 0.776778 0.693405 0.130145
H128  H     H_    0.824121 0.347278 0.722785 0.155808
H129  H     H_    0.213818 0.847281 0.806171 0.154788
H130  H     H_    0.213542 0.847261 0.193941 0.156464
H131  H     H_    0.786664 0.847265 0.805989 0.156729
H132  H     H_    0.824097 0.847277 0.222747 0.155918
H133  H     H_    0.675826 0.347293 0.777179 0.155932
H134  H     H_    0.713401 0.347268 0.193977 0.154922
H135  H     H_    0.324113 0.347278 0.777237 0.156095
H136  H     H_    0.286184 0.347284 0.193832 0.154931
H137  H     H_    0.785313 0.723184 0.193434 0.129573
H138  H     H_    0.214836 0.276774 0.306599 0.130114
H139  H     H_    0.824910 0.723184 0.776107 0.130127
H140  H     H_    0.175116 0.723163 0.223730 0.130039
H141  H     H_    0.175366 0.723188 0.776546 0.130004
H142  H     H_    0.324640 0.223196 0.223458 0.129991
H143  H     H_    0.285333 0.223187 0.806557 0.129825
H144  H     H_    0.675134 0.223179 0.223832 0.130046
H145  H     H_    0.714482 0.223191 0.806460 0.130314
H146  H     H_    0.324653 0.723192 0.723466 0.129912
H147  H     H_    0.324651 0.723209 0.276418 0.130037
H148  H     H_    0.675091 0.723174 0.723885 0.130065
H149  H     H_    0.175233 0.276790 0.723599 0.130064
H150  H     H_    0.714535 0.723190 0.306477 0.130061
H151  H     H_    0.785364 0.223186 0.693455 0.129953
H152  H     H_    0.824907 0.223181 0.276131 0.130021
H153  H     H_    0.214529 0.223188 0.693517 0.130030
H154  H     H_    0.175351 0.223185 0.276535 0.129905
H155  H     H_    0.786385 0.652684 0.193897 0.153862
H156  H     H_    0.824352 0.652671 0.776886 0.154691
H157  H     H_    0.175731 0.652651 0.222923 0.154683
H158  H     H_    0.175935 0.652684 0.777326 0.154762
H159  H     H_    0.324069 0.152691 0.222674 0.154690
H160  H     H_    0.785612 0.276760 0.306430 0.130183
H161  H     H_    0.286400 0.152687 0.806099 0.153944
H162  H     H_    0.675681 0.152666 0.223068 0.154471
H163  H     H_    0.713460 0.152693 0.806027 0.156005
H164  H     H_    0.324072 0.652688 0.722672 0.154299
H165  H     H_    0.324134 0.652704 0.277173 0.154869
H166  H     H_    0.675649 0.652661 0.723113 0.154533
H167  H     H_    0.713512 0.652692 0.306045 0.155892
H168  H     H_    0.786439 0.152687 0.693919 0.155645
H169  H     H_    0.824339 0.152668 0.276916 0.154513
H170  H     H_    0.213502 0.152691 0.693954 0.155921
H171  H     H_    0.824672 0.276776 0.723562 0.130110
H172  H     H_    0.175930 0.152681 0.277325 0.154298
H173  H     H_    0.538769 0.470793 0.243711 0.129482
H174  H     H_    0.538676 0.470825 0.755216 0.126113
H175  H     H_    0.461309 0.494619 0.220855 0.128093
H176  H     H_    0.461218 0.493547 0.779176 0.127999
H177  H     H_    0.038778 0.993552 0.220825 0.128602
H178  H     H_    0.038785 0.970795 0.756469 0.129599
H179  H     H_    0.961318 0.970824 0.244781 0.126719
H180  H     H_    0.961331 0.994801 0.779140 0.126790
H181  H     H_    0.038720 0.494222 0.720840 0.128393
H182  H     H_    0.214857 0.776775 0.806613 0.130014
H183  H     H_    0.038694 0.470817 0.255407 0.127859
H184  H     H_    0.961255 0.470799 0.744109 0.127260
H185  H     H_    0.961230 0.493742 0.279183 0.127903
H186  H     H_    0.538749 0.970795 0.743978 0.128950
H187  H     H_    0.538719 0.970803 0.255657 0.127367
H188  H     H_    0.461277 0.994353 0.720829 0.127145
H189  H     H_    0.461257 0.993991 0.279167 0.128794
H190  H     H_    0.714765 0.943387 0.473203 0.130295
H191  H     H_    0.675400 0.973579 0.526759 0.130454
H192  H     H_    0.285150 0.943360 0.473203 0.129885
O1    O     O_3   0.750000 0.999990 0.250000 -0.476326
O2    O     O_R   0.635430 0.977260 0.727280 -0.645822
O3    O     O_R   0.864580 0.022730 0.272760 -0.635010
O4    O     O_R   0.635420 0.522730 0.727240 -0.634590
O5    O     O_R   0.635420 0.522730 0.272760 -0.636388
O6    O     O_R   0.364580 0.522730 0.727240 -0.635746
O7    O     O_R   0.364580 0.522730 0.272760 -0.636867
O8    O     O_R   0.364570 0.977260 0.272720 -0.643950
O9    O     O_R   0.364570 0.977260 0.727280 -0.646115
O10   O     O_R   0.135430 0.477260 0.272720 -0.645972
O11   O     O_R   0.135430 0.477260 0.727280 -0.645774
O12   O     O_R   0.864570 0.477260 0.272720 -0.646098
O13   O     O_R   0.864570 0.477260 0.727280 -0.645791
O14   O     O_R   0.135430 0.977260 0.772720 -0.643966
O15   O     O_R   0.135430 0.977260 0.227280 -0.645780
O16   O     O_R   0.864570 0.977260 0.772720 -0.645947
O17   O     O_3   0.750000 0.999990 0.750000 -0.476241
O18   O     O_R   0.864570 0.977260 0.227280 -0.646075
O19   O     O_R   0.635430 0.477260 0.772720 -0.648022
O20   O     O_R   0.635430 0.477260 0.227280 -0.643867
O21   O     O_R   0.364570 0.477260 0.772720 -0.647692
O22   O     O_R   0.364570 0.477260 0.227280 -0.643918
O23   O     O_R   0.719960 0.022730 0.163260 -0.646624
O24   O     O_R   0.719960 0.022730 0.836740 -0.647798
O25   O     O_R   0.280040 0.022730 0.163260 -0.647052
O26   O     O_R   0.280040 0.022730 0.836740 -0.649307
O27   O     O_R   0.219960 0.522730 0.163260 -0.646261
O28   O     O_3   0.250000 0.999990 0.250000 -0.476189
O29   O     O_R   0.219960 0.522730 0.836740 -0.647358
O30   O     O_R   0.780040 0.522730 0.163260 -0.649247
O31   O     O_R   0.780040 0.522730 0.836740 -0.646535
O32   O     O_R   0.219960 0.022730 0.663260 -0.647906
O33   O     O_R   0.219960 0.022730 0.336740 -0.647668
O34   O     O_R   0.780040 0.022730 0.663260 -0.648979
O35   O     O_R   0.780040 0.022730 0.336740 -0.646522
O36   O     O_R   0.719960 0.522730 0.663260 -0.646505
O37   O     O_R   0.719960 0.522730 0.336740 -0.647886
O38   O     O_R   0.280040 0.522730 0.663260 -0.647844
O39   O     O_3   0.250000 0.999990 0.750000 -0.476084
O40   O     O_R   0.280040 0.522730 0.336740 -0.647229
O41   O     O_R   0.719950 0.086720 0.227250 -0.648552
O42   O     O_R   0.719950 0.086720 0.772750 -0.647663
O43   O     O_R   0.280050 0.086720 0.227250 -0.645893
O44   O     O_R   0.280050 0.086720 0.772750 -0.647487
O45   O     O_R   0.219950 0.586720 0.227250 -0.648891
O46   O     O_R   0.219950 0.586720 0.772750 -0.645854
O47   O     O_R   0.780050 0.586720 0.227250 -0.647649
O48   O     O_R   0.780050 0.586720 0.772750 -0.646807
O49   O     O_R   0.219950 0.086720 0.727250 -0.647417
O50   O     O_3   0.250000 0.499990 0.250000 -0.476460
O51   O     O_R   0.219950 0.086720 0.272750 -0.647978
O52   O     O_R   0.780050 0.086720 0.727250 -0.645972
O53   O     O_R   0.780050 0.086720 0.272750 -0.648553
O54   O     O_R   0.719950 0.586720 0.727250 -0.648835
O55   O     O_R   0.719950 0.586720 0.272750 -0.647429
O56   O     O_R   0.280050 0.586720 0.727250 -0.647973
O57   O     O_R   0.280050 0.586720 0.272750 -0.645741
O58   O     O_R   0.719970 0.913260 0.272730 -0.646448
O59   O     O_R   0.719970 0.913260 0.727270 -0.645230
O60   O     O_R   0.280030 0.913260 0.272730 -0.646884
O61   O     O_3   0.250000 0.499990 0.750000 -0.476128
O62   O     O_R   0.280030 0.913260 0.727270 -0.645131
O63   O     O_R   0.219970 0.413260 0.272730 -0.645042
O64   O     O_R   0.219970 0.413260 0.727270 -0.647121
O65   O     O_R   0.780030 0.413260 0.272730 -0.645153
O66   O     O_R   0.780030 0.413260 0.727270 -0.646778
O67   O     O_R   0.219970 0.913260 0.772730 -0.646629
O68   O     O_R   0.219970 0.913260 0.227270 -0.645308
O69   O     O_R   0.780030 0.913260 0.772730 -0.645284
O70   O     O_R   0.780030 0.913260 0.227270 -0.646473
O71   O     O_R   0.719970 0.413260 0.772730 -0.644820
O72   O     O_3   0.750000 0.499990 0.250000 -0.476063
O73   O     O_R   0.719970 0.413260 0.227270 -0.646639
O74   O     O_R   0.280030 0.413260 0.772730 -0.645152
O75   O     O_R   0.280030 0.413260 0.227270 -0.646681
O76   O     O_R   0.780040 0.977250 0.163260 -0.645141
O77   O     O_R   0.780040 0.977250 0.836740 -0.646239
O78   O     O_R   0.219960 0.977250 0.163260 -0.646502
O79   O     O_R   0.219960 0.977250 0.836740 -0.646199
O80   O     O_R   0.280040 0.477250 0.163260 -0.646317
O81   O     O_R   0.280040 0.477250 0.836740 -0.644875
O82   O     O_R   0.719960 0.477250 0.163260 -0.646114
O83   O     O_3   0.750000 0.499990 0.750000 -0.476306
O84   O     O_R   0.719960 0.477250 0.836740 -0.645104
O85   O     O_R   0.280040 0.977250 0.663260 -0.646279
O86   O     O_R   0.280040 0.977250 0.336740 -0.646122
O87   O     O_R   0.719960 0.977250 0.663260 -0.646456
O88   O     O_R   0.719960 0.977250 0.336740 -0.645084
O89   O     O_R   0.780040 0.477250 0.663260 -0.645094
O90   O     O_R   0.780040 0.477250 0.336740 -0.646293
O91   O     O_R   0.219960 0.477250 0.663260 -0.644710
O92   O     O_R   0.219960 0.477250 0.336740 -0.646725
O93   O     O_R   0.635420 0.022730 0.227240 -0.635244
O94   O     O_R   0.635430 0.977260 0.272720 -0.645926
O95   O     O_R   0.635420 0.022730 0.772760 -0.635866
O96   O     O_R   0.364580 0.022730 0.227240 -0.637171
O97   O     O_R   0.364580 0.022730 0.772760 -0.634318
O98   O     O_R   0.135420 0.522730 0.227240 -0.635078
O99   O     O_R   0.135420 0.522730 0.772760 -0.636629
O100  O     O_R   0.864580 0.522730 0.227240 -0.634590
O101  O     O_R   0.864580 0.522730 0.772760 -0.636811
O102  O     O_R   0.135420 0.022730 0.727240 -0.636441
O103  O     O_R   0.135420 0.022730 0.272760 -0.636116
O104  O     O_R   0.864580 0.022730 0.727240 -0.635003
Zn1   Zn    Zn3+2 0.792920 0.967500 0.217510 0.964975
Zn2   Zn    Zn3+2 0.292920 0.967500 0.282490 0.964468
Zn3   Zn    Zn3+2 0.707080 0.967500 0.717510 0.964141
Zn4   Zn    Zn3+2 0.707080 0.967500 0.282490 0.965232
Zn5   Zn    Zn3+2 0.792920 0.467500 0.717510 0.965029
Zn6   Zn    Zn3+2 0.792920 0.467500 0.282490 0.965146
Zn7   Zn    Zn3+2 0.207080 0.467500 0.717510 0.964159
Zn8   Zn    Zn3+2 0.207080 0.467500 0.282490 0.964071
Zn9   Zn    Zn3+2 0.707080 0.032480 0.217500 0.956971
Zn10  Zn    Zn3+2 0.707080 0.032480 0.782500 0.957536
Zn11  Zn    Zn3+2 0.292920 0.032480 0.217500 0.958234
Zn12  Zn    Zn3+2 0.792920 0.967500 0.782490 0.965335
Zn13  Zn    Zn3+2 0.292920 0.032480 0.782500 0.956685
Zn14  Zn    Zn3+2 0.207080 0.532480 0.217500 0.958138
Zn15  Zn    Zn3+2 0.207080 0.532480 0.782500 0.958288
Zn16  Zn    Zn3+2 0.792920 0.532480 0.217500 0.956515
Zn17  Zn    Zn3+2 0.792920 0.532480 0.782500 0.957162
Zn18  Zn    Zn3+2 0.207080 0.032480 0.717500 0.957417
Zn19  Zn    Zn3+2 0.207080 0.032480 0.282500 0.957363
Zn20  Zn    Zn3+2 0.792920 0.032480 0.717500 0.957250
Zn21  Zn    Zn3+2 0.792920 0.032480 0.282500 0.957213
Zn22  Zn    Zn3+2 0.707080 0.532480 0.717500 0.957198
Zn23  Zn    Zn3+2 0.207080 0.967500 0.217510 0.964170
Zn24  Zn    Zn3+2 0.707080 0.532480 0.282500 0.957407
Zn25  Zn    Zn3+2 0.292920 0.532480 0.717500 0.957399
Zn26  Zn    Zn3+2 0.292920 0.532480 0.282500 0.957374
Zn27  Zn    Zn3+2 0.207080 0.967500 0.782490 0.964513
Zn28  Zn    Zn3+2 0.292920 0.467500 0.217510 0.965511
Zn29  Zn    Zn3+2 0.292920 0.467500 0.782490 0.963937
Zn30  Zn    Zn3+2 0.707080 0.467500 0.217510 0.964749
Zn31  Zn    Zn3+2 0.707080 0.467500 0.782490 0.964768
Zn32  Zn    Zn3+2 0.292920 0.967500 0.717510 0.965077

loop_
_geom_bond_atom_site_label_1
_geom_bond_atom_site_label_2
_ccdc_geom_bond_type
C124  C220  A    
C72   O78   A    
C280  H10   S    
C195  H55   S    
C196  H61   S    
C133  C151  A    
C213  H169  S    
C78   O85   A    
C204  C243  S    
C32   C75   S    
C203  H80   S    
C15   C32   A    
O15   Zn23  S    
C115  O58   A    
C130  C174  A    
O52   Zn20  S    
C9    C27   A    
C128  C145  A    
O50   Zn14  S    
O1    Zn9   S    
C146  C183  A    
C234  O10   A    
O16   Zn12  S    
O76   Zn1   S    
C204  H84   S    
C63   C98   A    
C147  C164  A    
O66   Zn5   S    
C107  O43   A    
C84   O37   A    
O50   Zn8   S    
C194  H52   S    
C105  C222  S    
O32   Zn18  S    
C126  C143  A    
C132  C150  A    
C190  H166  S    
C57   C254  S    
C83   O89   A    
C90   C217  A    
C109  C218  S    
C19   C37   A    
O20   Zn30  S    
C177  C226  A    
O86   Zn2   S    
C197  C237  S    
C234  C261  S    
C38   C55   A    
C151  C161  A    
C134  C169  A    
C138  C174  A    
C157  C224  A    
C242  C244  S    
C86   O92   A    
C48   C65   A    
C205  C244  S    
C125  C169  A    
C78   O32   A    
C265  H187  S    
C194  H53   S    
C138  H46   S    
C90   C177  A    
O60   Zn2   S    
O33   Zn19  S    
C2    C255  S    
C148  C165  A    
O94   Zn4   S    
C248  C250  S    
C238  C240  S    
C118  O62   A    
C152  H131  S    
C40   C58   A    
C23   C84   S    
C114  O54   A    
C285  H16   S    
C41   H41   S    
O1    Zn21  S    
O38   Zn25  S    
O89   Zn5   S    
C237  C254  D    
O75   Zn28  S    
O27   Zn14  S    
O91   Zn7   S    
C47   C64   A    
C187  C226  A    
C70   O76   A    
C193  H154  S    
C197  H63   S    
O43   Zn11  S    
C185  C228  A    
C278  O102  A    
C95   C276  A    
C133  C170  A    
C38   H38   S    
O96   Zn11  S    
C128  H138  S    
C275  H6    S    
C82   O88   A    
C4    H21   S    
C213  C222  A    
C215  H172  S    
C39   C56   A    
C46   O20   A    
C6    H23   S    
C123  C141  A    
C207  H93   S    
C234  O98   A    
C112  O95   A    
C74   O80   A    
C41   C59   A    
C81   O34   A    
O30   Zn16  S    
C112  C264  S    
C99   C281  A    
O5    Zn24  S    
C91   C272  A    
C75   O81   A    
C131  C149  A    
C28   C71   S    
C33   C51   A    
C17   C34   A    
C155  H134  S    
C42   C60   A    
C190  C217  A    
O37   Zn24  S    
C43   C61   A    
C205  H86   S    
C49   H49   S    
C21   C86   S    
C118  C162  S    
C179  H165  S    
C208  H96   S    
C211  H168  S    
C145  H124  S    
C102  C283  A    
C239  C257  D    
O1    Zn1   S    
C207  C247  S    
C15   H32   S    
O71   Zn31  S    
C248  C265  D    
C14   C283  A    
C107  O51   A    
C139  H57   S    
O19   Zn31  S    
C23   C41   A    
C184  H145  S    
C44   C62   A    
O1    Zn4   S    
O72   Zn16  S    
C117  O68   A    
C215  C220  A    
O64   Zn7   S    
C206  H91   S    
O39   Zn18  S    
C31   C76   S    
O39   Zn13  S    
C71   O24   A    
C155  C165  A    
O104  Zn20  S    
O21   Zn29  S    
C35   C252  S    
C7    H25   S    
O25   Zn11  S    
C19   C80   S    
O65   Zn6   S    
C116  O69   A    
C129  C147  A    
C264  H186  S    
C69   H119  S    
C60   C95   A    
O2    Zn3   S    
O103  Zn19  S    
C198  H67   S    
C212  C268  S    
C191  C231  A    
C98   C99   S    
C210  H103  S    
C25   C83   S    
C56   H107  S    
C199  H71   S    
C169  C226  S    
C51   C69   A    
C156  H135  S    
C16   C285  A    
C54   H101  S    
C122  O66   A    
C143  C161  A    
C191  C213  A    
C153  C159  A    
C186  H147  S    
C136  C153  A    
C80   O86   A    
C207  H92   S    
O28   Zn23  S    
C269  H190  S    
C151  H130  S    
C8    C277  A    
C61   C96   A    
C266  H188  S    
C271  C288  A    
C179  C186  A    
C148  H126  S    
C120  O74   A    
O44   Zn13  S    
C29   C47   A    
C203  H81   S    
C4    C273  A    
C30   C48   A    
C196  H60   S    
C274  H5    S    
O46   Zn15  S    
C137  C175  A    
C188  H150  S    
C189  H151  S    
C132  H182  S    
C73   O79   A    
O85   Zn32  S    
C127  C171  A    
C147  H125  S    
C127  H127  S    
O79   Zn27  S    
O55   Zn24  S    
C119  O63   A    
C17   C82   S    
C22   C85   S    
C245  C260  S    
O40   Zn26  S    
C187  H148  S    
C101  C178  A    
C140  C158  A    
C68   C253  S    
C182  C230  A    
C64   C99   A    
C186  C227  A    
C119  O75   A    
C209  H100  S    
C21   C39   A    
C267  O101  A    
O69   Zn12  S    
C36   C53   A    
C157  C184  A    
O4    Zn22  S    
C89   C91   S    
C40   H40   S    
C50   C67   A    
O17   Zn20  S    
C117  O60   A    
C223  O97   A    
O54   Zn22  S    
C15   C284  A    
C94   C95   S    
O50   Zn28  S    
C235  C252  D    
O101  Zn17  S    
C14   H31   S    
C193  C215  A    
C135  C221  A    
C106  O42   A    
C49   C66   A    
C81   O87   A    
O95   Zn10  S    
C269  C286  A    
C189  C232  A    
C239  C241  S    
C7    C276  A    
C262  C267  S    
C206  H89   S    
C116  O59   A    
C80   O33   A    
C145  C163  A    
O22   Zn28  S    
C202  H75   S    
C263  H185  S    
C208  C248  S    
C201  C216  A    
C126  C170  A    
C62   C97   A    
C198  H65   S    
C47   H47   S    
C85   O38   A    
C3    H20   S    
C243  C246  S    
C199  H69   S    
O18   Zn1   S    
C106  O52   A    
O35   Zn21  S    
C171  C228  S    
O34   Zn20  S    
C110  C219  S    
C178  C227  A    
C55   H106  S    
C79   H155  S    
C158  C163  A    
C79   C216  A    
O28   Zn11  S    
C286  H17   S    
C101  H157  S    
O39   Zn32  S    
O100  Zn16  S    
O77   Zn12  S    
C244  C262  D    
C287  H18   S    
C105  O41   A    
O74   Zn29  S    
C183  C231  A    
C103  C284  A    
C110  O46   A    
C197  H62   S    
C259  H180  S    
O92   Zn8   S    
C109  O45   A    
C175  C232  S    
C223  O9    A    
C254  H176  S    
C257  H178  S    
C79   C176  A    
C195  H58   S    
C9    C279  A    
C199  C239  S    
C256  O12   A    
C172  C229  S    
C137  H35   S    
C24   O18   A    
C13   O104  A    
O88   Zn4   S    
C267  O13   A    
C121  C165  S    
C84   O90   A    
C279  H9    S    
C68   O7    A    
C238  C255  D    
C13   C259  S    
C250  C268  D    
C98   C280  A    
C17   C286  A    
O29   Zn15  S    
C136  H24   S    
C19   C288  A    
C52   H79   S    
C86   O40   A    
C130  H160  S    
C13   O16   A    
C110  O56   A    
C43   H43   S    
C233  C236  S    
C46   C251  S    
O23   Zn9   S    
C112  O2    A    
C173  C230  S    
C120  C164  S    
C153  H132  S    
O57   Zn26  S    
C57   O21   A    
O62   Zn32  S    
C203  H78   S    
C243  C261  D    
C240  C258  D    
C92   C273  A    
C255  H177  S    
O6    Zn25  S    
C2    O103  A    
O41   Zn9   S    
O47   Zn16  S    
C9    H27   S    
C111  O55   A    
C138  C155  A    
C194  H54   S    
C10   H28   S    
C87   C88   S    
C284  H15   S    
C135  H161  S    
C109  O57   A    
C214  H170  S    
C192  H153  S    
C193  C229  A    
C270  C287  A    
O80   Zn28  S    
C129  C173  A    
C1    O94   A    
O63   Zn8   S    
C203  C242  S    
C192  C230  A    
C236  C253  D    
O39   Zn27  S    
C122  C166  S    
C96   C277  A    
C206  C246  S    
C58   C93   A    
O72   Zn24  S    
C116  C160  S    
O42   Zn10  S    
O14   Zn27  S    
C272  H3    S    
O81   Zn29  S    
C146  C222  A    
C118  O67   A    
C140  H68   S    
O83   Zn31  S    
C261  H183  S    
C51   H51   S    
C26   C73   S    
C200  H73   S    
C73   O26   A    
C58   H108  S    
C271  H192  S    
C177  H139  S    
C129  H149  S    
C223  C266  S    
C55   C91   A    
C198  C238  S    
O31   Zn17  S    
C157  H163  S    
C30   C77   S    
C101  C218  A    
C114  O48   A    
C85   O91   A    
C245  O99   A    
C36   H36   S    
C260  H181  S    
C59   C94   A    
C200  H74   S    
C200  H72   S    
C14   C31   A    
C197  H64   S    
C144  C162  A    
C48   H48   S    
C144  H123  S    
O48   Zn17  S    
C170  C227  S    
C195  C235  S    
C195  H56   S    
C90   H156  S    
C31   C49   A    
O59   Zn3   S    
C180  H141  S    
C181  C229  A    
C205  H85   S    
C247  C249  S    
C142  H121  S    
C150  C162  A    
C67   C103  A    
O56   Zn25  S    
C187  C190  A    
O9    Zn32  S    
C270  H191  S    
C204  H83   S    
C111  C216  S    
C168  H164  S    
C208  H97   S    
C196  C236  S    
C252  H174  S    
C180  C228  A    
C115  C159  S    
O8    Zn2   S    
C200  C240  S    
C35   O19   A    
C214  C221  A    
C37   H37   S    
O61   Zn7   S    
C113  H158  S    
C134  C152  A    
C34   H34   S    
O61   Zn29  S    
C3    C20   A    
O7    Zn26  S    
O13   Zn5   S    
C201  H167  S    
C283  H14   S    
C88   C270  A    
C136  C167  A    
C53   H90   S    
C210  H104  S    
C212  O8    A    
O72   Zn6   S    
C183  H144  S    
C77   O84   A    
C11   C281  A    
C194  C233  S    
C94   C275  A    
C131  H171  S    
C233  C251  D    
C29   C70   S    
C10   C28   A    
C44   H44   S    
O82   Zn30  S    
C12   C30   A    
O99   Zn15  S    
O49   Zn18  S    
C65   C100  A    
C268  H189  S    
C25   C42   A    
C181  H142  S    
C121  O73   A    
C18   C287  A    
O61   Zn25  S    
C146  H162  S    
C76   O30   A    
C70   O23   A    
C34   C52   A    
C7    C25   A    
C133  H2    S    
C124  C181  A    
O83   Zn17  S    
C115  O70   A    
C277  H8    S    
O53   Zn21  S    
C211  C224  A    
C131  C175  A    
C92   C93   S    
C207  H94   S    
C63   H113  S    
C137  C154  A    
C20   C38   A    
C127  C144  A    
C168  C219  A    
C97   C279  A    
C185  H146  S    
C123  H1    S    
O51   Zn19  S    
O90   Zn6   S    
O72   Zn30  S    
C107  C220  S    
C33   C74   S    
C113  C180  A    
C262  H184  S    
C251  H173  S    
C66   H117  S    
C108  O49   A    
C256  C263  S    
C103  C104  S    
C154  C166  A    
C143  H122  S    
C5    C274  A    
C50   H50   S    
C10   C280  A    
C18   C36   A    
C27   C72   S    
C209  C249  S    
C205  H87   S    
C152  C160  A    
O84   Zn31  S    
C108  C221  S    
C208  H95   S    
C12   H30   S    
C66   C102  A    
O102  Zn18  S    
C281  H11   S    
O83   Zn5   S    
C282  H12   S    
C83   O36   A    
C176  C225  A    
C258  H179  S    
C24   C258  S    
O17   Zn10  S    
O10   Zn8   S    
C46   O5    A    
C167  C225  S    
C202  H76   S    
C188  C201  A    
C18   C81   S    
O73   Zn30  S    
C120  O64   A    
C150  H129  S    
C64   H114  S    
C82   O35   A    
C253  H175  S    
C106  C224  S    
C5    C22   A    
C71   O77   A    
C62   H112  S    
C11   H29   S    
O45   Zn14  S    
C210  H102  S    
O58   Zn4   S    
C132  C171  A    
C174  C231  S    
C247  C264  D    
C104  C285  A    
O87   Zn3   S    
C202  H77   S    
C257  C278  S    
C140  C172  A    
O24   Zn10  S    
C57   O6    A    
C235  C237  S    
C121  O65   A    
O67   Zn27  S    
C27   C44   A    
C192  C214  A    
C141  C159  A    
C26   C43   A    
C212  O96   A    
C8    C26   A    
C149  H128  S    
C28   C45   A    
C209  H99   S    
O78   Zn23  S    
C130  C148  A    
C198  H66   S    
C196  H59   S    
C184  C232  A    
C54   C89   A    
C188  C225  A    
C189  C211  A    
C59   H109  S    
C119  C163  S    
C276  H7    S    
C39   H39   S    
O61   Zn15  S    
C45   H45   S    
C191  H152  S    
C117  C161  S    
C202  C241  S    
C45   C63   A    
C124  H159  S    
C3    C272  A    
C141  H120  S    
C249  C266  D    
C182  H143  S    
C204  H82   S    
O3    Zn21  S    
C288  H19   S    
C16   C33   A    
C105  O53   A    
C16   H33   S    
C77   O31   A    
C134  H13   S    
C111  O47   A    
C125  C142  A    
C22   C40   A    
C96   C97   S    
C100  C102  S    
C74   O27   A    
C158  H136  S    
C6    C275  A    
C32   C50   A    
C209  H98   S    
O36   Zn22  S    
C37   C54   A    
O12   Zn6   S    
C273  H4    S    
C128  C172  A    
C60   H110  S    
C179  C218  A    
C139  C173  A    
C114  C217  S    
C176  H137  S    
C69   C104  A    
C108  O44   A    
C178  H140  S    
C168  C185  A    
C241  C259  D    
C8    H26   S    
C89   C271  A    
C242  C260  D    
C61   H111  S    
C52   C87   A    
C149  C166  A    
C256  O100  A    
O17   Zn12  S    
C142  C160  A    
C1    O93   A    
O98   Zn14  S    
C206  H88   S    
C154  H133  S    
O97   Zn13  S    
C72   O25   A    
C24   O3    A    
O50   Zn26  S    
O11   Zn7   S    
O26   Zn13  S    
C20   C78   S    
C68   O22   A    
C75   O29   A    
C156  C164  A    
O28   Zn19  S    
C123  C167  A    
C93   C274  A    
O93   Zn9   S    
C87   C269  A    
C67   H118  S    
C4    C21   A    
O68   Zn23  S    
C12   C282  A    
C139  C156  A    
C6    C23   A    
C199  H70   S    
C210  C250  S    
C53   C88   A    
C76   O82   A    
O17   Zn3   S    
C2    O15   A    
C42   H42   S    
C245  O11   A    
O83   Zn22  S    
C35   O4    A    
C5    H22   S    
C56   C92   A    
C1    C265  S    
C11   C29   A    
C65   H115  S    
C100  C282  A    
C126  H116  S    
C135  C182  A    
C125  H105  S    
C113  C219  A    
C246  C263  D    
C122  O71   A    
O28   Zn2   S    
C278  O14   A    
O70   Zn1   S    
