data_mof_unit_33606.cif
_audit_creation_date              2012-12-10T17:56:20-0500
_audit_creation_method            fapswitch 2.2
_symmetry_space_group_name_H-M    P1
_symmetry_Int_Tables_number       1
_space_group_crystal_system       triclinic
_cell_length_a                    12.931894
_cell_length_b                    10.861828
_cell_length_c                    9.630674
_cell_angle_alpha                 90.468428
_cell_angle_beta                  95.766442
_cell_angle_gamma                 92.933731
_cell_volume                      1344.03302098

loop_
_atom_site_label
_atom_site_type_symbol
_atom_type_description
_atom_site_fract_x
_atom_site_fract_y
_atom_site_fract_z
_atom_type_partial_charge
C1    C     C_R   0.506115 0.262999 0.499674 0.802330
C2    C     C_R   0.499450 0.737657 0.500902 0.805012
C3    C     C_R   0.502448 0.872184 0.502973 -0.112981
C4    C     C_R   0.514994 0.129393 0.498481 -0.137996
C5    C     C_R   0.428570 0.427839 0.064558 0.026698
C6    C     C_R   0.569752 0.574539 0.936166 0.018367
C7    C     C_R   0.431870 0.421330 0.916777 0.278783
C8    C     C_R   0.570469 0.573949 0.085115 0.294400
C9    C     C_R   0.301447 0.497220 0.474294 0.791636
C10   C     C_R   0.698851 0.500984 0.525695 0.784672
C11   C     C_R   0.811694 0.507760 0.539033 -0.155631
C12   C     C_R   0.189501 0.482078 0.461820 -0.158669
C13   C     C_R   0.040552 0.337396 0.447830 0.299669
C14   C     C_R   0.968431 0.636995 0.593585 0.296471
C15   C     C_R   0.146064 0.363150 0.439427 -0.269786
C16   C     C_R   0.862365 0.613734 0.599817 -0.237603
C17   C     C_R   0.129207 0.579439 0.494921 -0.067134
C18   C     C_R   0.867240 0.416812 0.478946 -0.083486
C19   C     C_R   0.024916 0.552319 0.521900 0.044522
C20   C     C_R   0.976796 0.434092 0.481395 0.038052
C21   C     C_R   0.530498 0.062356 0.375777 0.303171
C22   C     C_R   0.493511 0.940246 0.626182 0.260669
C23   C     C_R   0.521329 0.933684 0.380024 -0.253867
C24   C     C_R   0.503591 0.067510 0.623136 -0.297606
Cu1   Cu    Cu3+1 0.500000 0.500020 0.640660 0.955002
Cu2   Cu    Cu3+1 0.500000 0.499980 0.359340 0.986112
H1    H     H_    0.818203 0.681663 0.647745 0.172544
H2    H     H_    0.195695 0.288417 0.420648 0.167132
H3    H     H_    0.531158 0.880082 0.288014 0.172671
H4    H     H_    0.499763 0.118088 0.719314 0.185088
N1    N     N_R   0.500030 0.500030 0.852080 -0.236238
N2    N     N_R   0.499970 0.499970 0.147920 -0.221470
O1    O     O_R   0.499990 0.319660 0.618740 -0.597969
O2    O     O_R   0.500010 0.680340 0.381260 -0.575560
O3    O     O_R   0.499990 0.319630 0.381170 -0.526104
O4    O     O_R   0.500010 0.680370 0.618830 -0.575115
O5    O     O_R   0.349000 0.499990 0.599490 -0.611958
O6    O     O_R   0.651000 0.500010 0.400510 -0.566335
O7    O     O_R   0.348990 0.499960 0.361920 -0.577734
O8    O     O_R   0.651010 0.500040 0.638080 -0.540790
C25   C     C_2   0.807768 0.309915 0.407163 0.449639
H5    H     H_    0.745457 0.262788 0.456606 0.008742
O9    O     O_2   0.824480 0.278238 0.289873 -0.534852
C26   C     C_2   0.174565 0.707846 0.487106 0.412702
H6    H     H_    0.257316 0.727669 0.512603 0.042813
O10   O     O_2   0.121050 0.791174 0.442810 -0.531498
N3    N     N_2   0.003087 0.211657 0.438866 -0.388965
H7    H     H_    0.039406 0.158798 0.370662 0.275361
C27   C     C_3   0.998098 0.153126 0.572651 -0.666850
H8    H     H_    0.963143 0.057919 0.556536 0.238801
H9    H     H_    0.948855 0.204816 0.638468 0.224119
H10   H     H_    0.077568 0.148514 0.627740 0.226970
N4    N     N_2   0.018240 0.741289 0.668157 -0.389487
H11   H     H_    0.970603 0.813446 0.678807 0.252566
C28   C     C_3   0.076903 0.712172 0.798663 -0.671621
H12   H     H_    0.117417 0.797491 0.845546 0.227116
H13   H     H_    0.136630 0.645216 0.781528 0.222785
H14   H     H_    0.023780 0.672953 0.872722 0.243840
N5    N     N_2   0.559229 0.124624 0.253161 -0.363521
H15   H     H_    0.616118 0.194092 0.272918 0.277610
C29   C     C_3   0.570997 0.055460 0.126952 -0.695265
H16   H     H_    0.636639 0.993498 0.144826 0.217596
H17   H     H_    0.588960 0.120197 0.042967 0.230838
H18   H     H_    0.497554 0.001790 0.091386 0.224517
N6    N     N_2   0.472949 0.882750 0.753575 -0.429932
H19   H     H_    0.515397 0.921608 0.840915 0.229810
C30   C     C_3   0.363882 0.858904 0.772284 -0.679298
H20   H     H_    0.344112 0.908669 0.866592 0.210544
H21   H     H_    0.348587 0.758600 0.786836 0.242430
H22   H     H_    0.311817 0.889253 0.681422 0.236971
C31   C     C_2   0.338641 0.367887 0.124432 0.494331
H23   H     H_    0.262295 0.404274 0.101404 0.035736
O11   O     O_2   0.347235 0.274025 0.192246 -0.534681
C32   C     C_2   0.647260 0.653839 0.872987 0.419742
H24   H     H_    0.625932 0.739405 0.824441 0.075368
O12   O     O_2   0.737126 0.623954 0.876620 -0.570438
N7    N     N_2   0.360293 0.335134 0.837538 -0.442563
H25   H     H_    0.351508 0.339978 0.732094 0.319673
C33   C     C_3   0.351409 0.207897 0.881850 -0.716816
H26   H     H_    0.341642 0.144673 0.789834 0.219612
H27   H     H_    0.280069 0.192412 0.935656 0.252592
H28   H     H_    0.421006 0.183244 0.950577 0.257418
N8    N     N_2   0.635868 0.661359 0.168466 -0.397838
H29   H     H_    0.623069 0.751549 0.142349 0.201049
C34   C     C_3   0.745618 0.637780 0.190878 -0.527574
H30   H     H_    0.790615 0.695115 0.120807 0.222562
H31   H     H_    0.759469 0.538706 0.174543 0.254539
H32   H     H_    0.775525 0.665212 0.299198 0.213837

loop_
_geom_bond_atom_site_label_1
_geom_bond_atom_site_label_2
_ccdc_geom_bond_type
Cu1   N1    S    
C28   H12   S    
C11   C18   A    
Cu2   N2    S    
C8    N8    S    
C25   H5    S    
C3    C23   A    
C19   C20   A    
C1    O1    A    
N3    C27   S    
N7    H25   S    
C32   O12   D    
C23   H3    S    
C21   N5    S    
Cu1   O8    S    
C4    C24   A    
Cu2   O7    S    
C9    O7    A    
C10   O8    A    
C29   H17   S    
Cu1   O5    S    
C13   N3    S    
Cu2   O2    S    
N8    H29   S    
N6    C30   S    
C12   C17   A    
C18   C20   A    
C7    N7    S    
C5    N2    A    
C2    O2    A    
C16   H1    S    
N4    C28   S    
C6    N1    A    
N5    H15   S    
C25   O9    D    
C26   O10   D    
C6    C32   S    
N7    C33   S    
C21   C23   A    
N5    C29   S    
C7    N1    A    
C32   H24   S    
C34   H31   S    
C30   H20   S    
C8    N2    A    
C18   C25   S    
C33   H27   S    
Cu2   O6    S    
C6    C8    A    
C27   H9    S    
Cu1   Cu2   S    
C34   H30   S    
C30   H21   S    
C29   H18   S    
C22   N6    S    
C11   C16   A    
N3    H7    S    
C12   C15   A    
C27   H10   S    
C9    O5    A    
N8    C34   S    
C27   H8    S    
C13   C15   A    
C22   C24   A    
C26   H6    S    
C1    O3    A    
C5    C7    A    
C34   H32   S    
C2    O4    A    
C13   C20   A    
C14   C19   A    
C33   H28   S    
N4    H11   S    
C10   O6    A    
C1    C4    S    
C30   H22   S    
C28   H13   S    
C2    C3    S    
C17   C26   S    
C31   H23   S    
C5    C31   S    
C4    C21   A    
C15   H2    S    
C17   C19   A    
C14   C16   A    
C29   H16   S    
C9    C12   S    
C24   H4    S    
C10   C11   S    
Cu1   O4    S    
C33   H26   S    
Cu2   O3    S    
C14   N4    S    
N6    H19   S    
C28   H14   S    
C31   O11   D    
C3    C22   A    
Cu1   O1    S    
