data_mof_unit_26204.cif
_audit_creation_date              2012-12-10T17:57:52-0500
_audit_creation_method            fapswitch 2.2
_symmetry_space_group_name_H-M    P1
_symmetry_Int_Tables_number       1
_space_group_crystal_system       triclinic
_cell_length_a                    10.831314
_cell_length_b                    9.503375
_cell_length_c                    15.108201
_cell_angle_alpha                 89.695654
_cell_angle_beta                  89.984068
_cell_angle_gamma                 90.052941
_cell_volume                      1555.12548037

loop_
_atom_site_label
_atom_site_type_symbol
_atom_type_description
_atom_site_fract_x
_atom_site_fract_y
_atom_site_fract_z
_atom_type_partial_charge
C1    C     C_R   0.262020 0.499963 0.499828 0.777455
C2    C     C_R   0.737980 0.500037 0.500172 0.777454
C3    C     C_R   0.424091 0.741861 0.043694 -0.158453
C4    C     C_R   0.575909 0.258139 0.956306 -0.158453
C5    C     C_R   0.063738 0.372378 0.505765 -0.173817
C6    C     C_R   0.936262 0.627622 0.494235 -0.173817
C7    C     C_R   0.936016 0.372440 0.506086 -0.185422
C8    C     C_R   0.063984 0.627560 0.493914 -0.185422
C9    C     C_R   0.871795 0.500058 0.500245 -0.017659
C10   C     C_R   0.128204 0.499942 0.499755 -0.017659
C11   C     C_R   0.417998 0.074806 0.449122 -0.011507
C12   C     C_R   0.582001 0.925194 0.550877 -0.011506
C13   C     C_R   0.582063 0.074111 0.550779 0.024168
C14   C     C_R   0.417936 0.925888 0.449221 0.024169
C15   C     C_R   0.497277 0.500410 0.328618 0.840285
C16   C     C_R   0.502723 0.499589 0.671382 0.840285
C17   C     C_R   0.549649 0.380332 0.815472 0.480006
C18   C     C_R   0.450351 0.619668 0.184528 0.480006
C19   C     C_R   0.507144 0.499067 0.768199 -0.194454
C20   C     C_R   0.492856 0.500933 0.231801 -0.194454
C21   C     C_R   0.468505 0.619340 0.813452 -0.266773
C22   C     C_R   0.531495 0.380660 0.186548 -0.266773
C23   C     C_R   0.466727 0.622334 0.905783 0.055868
C24   C     C_R   0.533273 0.377666 0.094217 0.055868
C25   C     C_R   0.502289 0.500339 0.953465 -0.018435
C26   C     C_R   0.497711 0.499661 0.046535 -0.018435
C27   C     C_R   0.542767 0.378995 0.908228 -0.033103
C28   C     C_R   0.457233 0.621005 0.091772 -0.033103
C29   C     C_R   0.428782 0.743629 0.951677 0.255930
C30   C     C_R   0.571218 0.256371 0.048323 0.255930
Cu1   Cu    Cu3+1 0.500000 0.640660 0.500000 0.973834
Cu2   Cu    Cu3+1 0.500000 0.359340 0.500000 0.973834
H1    H     H_    0.437815 0.709850 0.775793 0.223208
H2    H     H_    0.562185 0.290150 0.224207 0.223208
H3    H     H_    0.394550 0.836308 0.077439 0.229859
H4    H     H_    0.605450 0.163692 0.922561 0.229859
H5    H     H_    0.111718 0.272654 0.510480 0.152376
H6    H     H_    0.888282 0.727346 0.489519 0.152376
H7    H     H_    0.887843 0.272757 0.511069 0.148007
H8    H     H_    0.112157 0.727243 0.488931 0.148007
H9    H     H_    0.352396 0.131269 0.408328 0.124235
H10   H     H_    0.647604 0.868731 0.591672 0.124235
H11   H     H_    0.647909 0.130059 0.591174 0.133211
H12   H     H_    0.352091 0.869941 0.408826 0.133211
N1    N     N_R   0.500000 0.852070 0.500000 -0.166152
N2    N     N_R   0.500000 0.147930 0.500000 -0.166152
O1    O     O_R   0.319640 0.618740 0.499990 -0.595450
O2    O     O_R   0.680360 0.381260 0.500010 -0.595450
O3    O     O_R   0.680360 0.618740 0.500010 -0.592889
O4    O     O_R   0.319640 0.381260 0.499990 -0.592889
O5    O     O_R   0.499970 0.618800 0.370260 -0.527114
O6    O     O_R   0.500030 0.381200 0.629740 -0.527115
O7    O     O_R   0.500030 0.618800 0.629740 -0.592246
O8    O     O_R   0.499970 0.381200 0.370260 -0.592246
O9    O     O_3   0.595118 0.264109 0.771206 -0.558261
C31   C     C_3   0.723120 0.283274 0.758250 -0.317872
H13   H     H_    0.741749 0.372729 0.712316 0.149996
H14   H     H_    0.761476 0.186849 0.727767 0.183327
H15   H     H_    0.772565 0.299351 0.822025 0.166252
O10   O     O_3   0.404882 0.735891 0.228793 -0.558261
C32   C     C_3   0.276881 0.716726 0.241750 -0.317873
H16   H     H_    0.238525 0.813152 0.272233 0.183327
H17   H     H_    0.258251 0.627271 0.287684 0.149996
H18   H     H_    0.227435 0.700650 0.177975 0.166253
Br1   Br    Br    0.383030 0.916246 0.893231 -0.508407
Br2   Br    Br    0.616970 0.083754 0.106769 -0.508407

loop_
_geom_bond_atom_site_label_1
_geom_bond_atom_site_label_2
_ccdc_geom_bond_type
C32   H18   S    
C6    C8    A    
O9    C31   S    
C6    H6    S    
C15   O5    A    
C2    O3    A    
C5    H5    S    
C25   C27   A    
C1    O4    A    
C17   O9    S    
C14   H12   S    
C26   C28   A    
Cu1   Cu2   S    
C31   H15   S    
C3    H3    S    
C6    C9    A    
C4    H4    S    
C4    C30   A    
C5    C10   A    
Cu1   O1    S    
Cu1   O7    S    
C12   C13   A    
Cu2   O2    S    
C24   C26   A    
Cu2   O4    S    
C15   C20   S    
Cu1   O3    S    
C16   C19   S    
C29   Br1   S    
C23   C29   A    
C18   O10   S    
C3    C28   A    
C19   C21   A    
C31   H14   S    
C11   H9    S    
C14   N1    A    
C18   C20   A    
C23   C25   A    
C21   C23   A    
C32   H16   S    
C22   H2    S    
C11   C14   A    
C22   C24   A    
C24   C30   A    
C21   H1    S    
C20   C22   A    
C17   C19   A    
C17   C27   A    
C15   O8    A    
C7    C9    A    
C13   H11   S    
C4    C27   A    
C18   C28   A    
C31   H13   S    
C5    C7    A    
Cu1   N1    S    
Cu2   O8    S    
C3    C29   A    
C7    H7    S    
C13   N2    A    
C1    O1    A    
C11   N2    A    
C12   H10   S    
C8    H8    S    
O10   C32   S    
C2    O2    A    
C25   C26   A    
C16   O7    A    
C2    C9    S    
Cu2   N2    S    
C8    C10   A    
Cu2   O6    S    
C1    C10   S    
C16   O6    A    
C30   Br2   S    
Cu1   O5    S    
C12   N1    A    
C32   H17   S    
