data_mof_unit_67629.cif
_audit_creation_date              2013-03-05T16:14:30-0500
_audit_creation_method            fapswitch 2.2
_symmetry_space_group_name_H-M    P1
_symmetry_Int_Tables_number       1
_space_group_crystal_system       triclinic
_cell_length_a                    10.88985
_cell_length_b                    10.994417
_cell_length_c                    9.640685
_cell_angle_alpha                 90.760377
_cell_angle_beta                  90.508636
_cell_angle_gamma                 90.448537
_cell_volume                      1154.07204726

loop_
_atom_site_label
_atom_site_type_symbol
_atom_site_description
_atom_site_fract_x
_atom_site_fract_y
_atom_site_fract_z
_atom_type_partial_charge
O1    O     O_R   0.500060 0.316850 0.620870 -0.545186
O2    O     O_R   0.499940 0.683150 0.379130 -0.545133
O3    O     O_R   0.500000 0.316860 0.379090 -0.534165
O4    O     O_R   0.500000 0.683140 0.620910 -0.539058
C1    C     C_R   0.499031 0.259848 0.499316 0.833289
C2    C     C_R   0.500392 0.740107 0.501027 0.814085
O5    O     O_R   0.316880 0.499960 0.620870 -0.481996
O6    O     O_R   0.683120 0.500040 0.379130 -0.488407
O7    O     O_R   0.316830 0.499970 0.379090 -0.637853
O8    O     O_R   0.683170 0.500030 0.620910 -0.632803
C3    C     C_R   0.260212 0.504576 0.499546 0.814105
C4    C     C_R   0.739865 0.498713 0.500407 0.811685
Cu1   Cu    Cu3+1 0.500030 0.499990 0.643150 1.069315
Cu2   Cu    Cu3+1 0.499970 0.500010 0.356850 1.068158
C5    C     C_3   0.044528 0.442252 0.609614 -0.256794
C6    C     C_3   0.954727 0.570319 0.392146 -0.267268
C7    C     C_3   0.961187 0.393057 0.490514 0.331605
C8    C     C_3   0.039019 0.619271 0.509637 0.330562
H1    H     H_    0.078121 0.387864 0.697821 0.209931
H2    H     H_    0.920147 0.627386 0.306878 0.216131
C9    C     C_3   0.876891 0.503642 0.501286 -0.165589
C10   C     C_3   0.123160 0.507773 0.498897 -0.161822
C11   C     C_3   0.960275 0.555899 0.618519 -0.077365
C12   C     C_3   0.038876 0.457349 0.381902 -0.074400
C13   C     C_3   0.557392 0.043821 0.613560 -0.082804
C14   C     C_3   0.437910 0.955920 0.388953 -0.083161
C15   C     C_3   0.610885 0.960088 0.499658 0.289083
C16   C     C_3   0.384945 0.039965 0.502037 0.300415
C17   C     C_3   0.496607 0.877337 0.502722 -0.168168
C18   C     C_3   0.499563 0.122511 0.499031 -0.172698
C19   C     C_3   0.440837 0.961149 0.617367 -0.185767
C20   C     C_3   0.554387 0.038360 0.384571 -0.184145
H3    H     H_    0.382726 0.938251 0.706627 0.239898
H4    H     H_    0.612303 0.059768 0.294981 0.238662
C21   C     C_3   0.553339 0.594631 0.051438 0.358912
C22   C     C_3   0.446337 0.405754 0.948551 0.359891
C23   C     C_3   0.444239 0.592094 0.951759 0.371967
C24   C     C_3   0.555802 0.408287 0.047589 0.371013
N1    N     N_3   0.500090 0.499970 0.858290 -0.261080
N2    N     N_3   0.499910 0.500030 0.141710 -0.260611
C25   C     C_3   0.612047 0.502724 0.950472 -0.330053
C26   C     C_3   0.387817 0.498017 0.049313 -0.333948
H5    H     H_    0.706381 0.503667 0.907801 0.184225
H6    H     H_    0.293452 0.497622 0.091786 0.177833
N3    N     N_R   0.922976 0.266731 0.472016 0.094641
O9    O     O_R   0.980076 0.181795 0.538341 -0.257973
O10   O     O_R   0.846251 0.236576 0.373276 -0.311075
N4    N     N_R   0.077478 0.746242 0.521403 0.112476
O11   O     O_R   0.031938 0.826057 0.437462 -0.252315
O12   O     O_R   0.148415 0.782377 0.623091 -0.313758
C27   C     C_R   0.915573 0.627715 0.739882 0.136553
C28   C     C_R   0.974126 0.622651 0.869027 -0.153787
C29   C     C_R   0.932821 0.695828 0.978137 -0.179401
C30   C     C_R   0.839646 0.779273 0.956438 -0.027555
C31   C     C_R   0.779348 0.781977 0.828824 -0.092848
C32   C     C_R   0.818943 0.708923 0.720367 -0.011705
H7    H     H_    0.053015 0.565239 0.884131 0.175087
H8    H     H_    0.973967 0.690303 0.079191 0.139325
H9    H     H_    0.812812 0.839271 0.040067 0.198696
H10   H     H_    0.701697 0.839299 0.812267 0.169715
H11   H     H_    0.773995 0.716124 0.620726 0.155699
C33   C     C_R   0.070975 0.394478 0.249767 0.118586
C34   C     C_R   0.002324 0.416668 0.129709 -0.090888
C35   C     C_R   0.022578 0.349006 0.009731 -0.169443
C36   C     C_R   0.108708 0.255926 0.009556 -0.080722
C37   C     C_R   0.178959 0.235409 0.128450 -0.075965
C38   C     C_R   0.159680 0.303420 0.248775 -0.030835
H12   H     H_    0.929489 0.482631 0.129631 0.167913
H13   H     H_    0.969389 0.368908 0.918433 0.125611
H14   H     H_    0.121150 0.200051 0.917621 0.199017
H15   H     H_    0.248334 0.167356 0.128097 0.169340
H16   H     H_    0.212474 0.284026 0.341259 0.168220
N5    N     N_R   0.736790 0.917051 0.488168 0.116359
O13   O     O_R   0.821187 0.952217 0.576226 -0.296081
O14   O     O_R   0.768447 0.854793 0.379038 -0.294695
N6    N     N_R   0.259383 0.083955 0.507792 0.130721
O15   O     O_R   0.179620 0.053008 0.412392 -0.291031
O16   O     O_R   0.224256 0.146949 0.614977 -0.294527
C39   C     C_R   0.632597 0.088406 0.735393 0.134916
C40   C     C_R   0.614796 0.042737 0.868611 -0.080997
C41   C     C_R   0.705697 0.058433 0.970421 -0.066139
C42   C     C_R   0.813163 0.121994 0.940511 -0.073136
C43   C     C_R   0.826093 0.176121 0.811284 -0.104075
C44   C     C_R   0.733718 0.163310 0.711381 -0.016496
H17   H     H_    0.534663 0.989352 0.891812 0.206813
H18   H     H_    0.694239 0.018805 0.071428 0.192762
H19   H     H_    0.885237 0.129555 0.017950 0.184368
H20   H     H_    0.909452 0.223072 0.784964 0.154593
H21   H     H_    0.744603 0.203205 0.611025 0.166931
C45   C     C_R   0.362131 0.909481 0.268668 0.183237
C46   C     C_R   0.364145 0.969182 0.141763 -0.110542
C47   C     C_R   0.279873 0.938034 0.037252 -0.072657
C48   C     C_R   0.197978 0.842128 0.056330 -0.046135
C49   C     C_R   0.202153 0.775469 0.178682 -0.125563
C50   C     C_R   0.281028 0.811625 0.285872 0.024122
H22   H     H_    0.427581 0.042463 0.125335 0.202695
H23   H     H_    0.278819 0.987183 0.940792 0.189963
H24   H     H_    0.135315 0.817954 0.973369 0.190824
H25   H     H_    0.144536 0.696513 0.192902 0.116527
H26   H     H_    0.278204 0.763461 0.382449 0.133837
N7    N     N_R   0.380552 0.693441 0.892921 0.139669
O17   O     O_R   0.276115 0.674178 0.830185 -0.350290
O18   O     O_R   0.442787 0.791088 0.867138 -0.413660
N8    N     N_R   0.621961 0.306840 0.102361 0.149128
O19   O     O_R   0.560264 0.213273 0.142896 -0.409308
O20   O     O_R   0.735622 0.321160 0.141157 -0.342913
N9    N     N_R   0.617596 0.697188 0.114858 0.138973
O21   O     O_R   0.576093 0.806910 0.103615 -0.399731
O22   O     O_R   0.712694 0.677262 0.193040 -0.351397
N10   N     N_R   0.379579 0.303888 0.886654 0.143001
O23   O     O_R   0.407959 0.192826 0.915470 -0.420215
O24   O     O_R   0.288033 0.324579 0.803615 -0.342947

loop_
_geom_bond_atom_site_label_1
_geom_bond_atom_site_label_2
_geom_bond_distance
_ccdc_geom_bond_type
C13   C19   1.556339 S    
C24   N2    1.485376 S    
C31   C32   1.383997 A    
C14   C20   1.554397 S    
C48   C49   1.397517 A    
C15   C17   1.536537 S    
C25   H5    1.109996 S    
N5    O13   1.298742 A    
C22   C26   1.540679 S    
N8    O20   1.297636 A    
C41   C42   1.392691 A    
C45   C50   1.399104 A    
N1    C25   1.502207 S    
N3    O9    1.298242 A    
C5    H1    1.107218 S    
C6    C9    1.545806 S    
C33   C38   1.396621 A    
O1    C1    1.321486 A    
C21   C23   1.521278 S    
N6    O16   1.298443 A    
C38   H16   1.081115 S    
C39   C44   1.392758 A    
C42   H19   1.080390 S    
O4    Cu1   2.027840 S    
C27   C32   1.398396 A    
C23   C26   1.535574 S    
N10   O23   1.295015 A    
C24   N8    1.436440 S    
C46   H22   1.071473 S    
C30   C31   1.390178 A    
C5    C10   1.555139 S    
C43   C44   1.391546 A    
O6    Cu2   2.004110 S    
N9    O21   1.297064 A    
C19   H3    1.103292 S    
C18   C20   1.556702 S    
C41   H18   1.079906 S    
C6    H2    1.105942 S    
C31   H10   1.070665 S    
C5    C11   1.557848 S    
N4    O12   1.298870 A    
C43   H20   1.074768 S    
C6    C12   1.551878 S    
C8    C10   1.539130 S    
Cu1   Cu2   2.760125 S    
C17   C19   1.559863 S    
N9    O22   1.297166 A    
O2    C2    1.324199 A    
C26   H6    1.109572 S    
C21   C25   1.540220 S    
N8    O19   1.291080 A    
C47   H23   1.081748 S    
C30   H9    1.078722 S    
N3    O10   1.298969 A    
C7    C12   1.528998 S    
C34   C35   1.387157 A    
C8    C11   1.532536 S    
N7    O17   1.297972 A    
N6    O15   1.299626 A    
C24   C25   1.534869 S    
O4    C2    1.321862 A    
C46   C47   1.394318 A    
C50   H26   1.077773 S    
C29   C30   1.389562 A    
C4    C9    1.492694 S    
C22   N1    1.481999 S    
C7    C9    1.532158 S    
C27   C28   1.395748 A    
C20   H4    1.100870 S    
O5    C3    1.319360 A    
O7    Cu2   2.007747 S    
C40   H17   1.074683 S    
C11   C27   1.490290 S    
C37   H15   1.067426 S    
O6    C4    1.317896 A    
C33   C34   1.397522 A    
C35   H13   1.075232 S    
O7    C3    1.320201 A    
O3    Cu2   2.027840 S    
O8    C4    1.320391 A    
N4    O11   1.299774 A    
C36   C37   1.394260 A    
C9    C11   1.545440 S    
C22   N10   1.449383 S    
C13   C15   1.544527 S    
C10   C12   1.542408 S    
O1    Cu1   2.022108 S    
C44   H21   1.074695 S    
N5    O14   1.298184 A    
C16   N6    1.455206 S    
C28   C29   1.395598 A    
C1    C18   1.509956 S    
N7    O18   1.293186 A    
C13   C18   1.544581 S    
C5    C7    1.546586 S    
C34   H12   1.078915 S    
C12   C33   1.486955 S    
C15   C20   1.540013 S    
C13   C39   1.500649 S    
C16   C19   1.542532 S    
C7    N3    1.454984 S    
C40   C41   1.395932 A    
O3    C1    1.325075 A    
O8    Cu1   2.007748 S    
C8    N4    1.456989 S    
C29   H8    1.071361 S    
C14   C45   1.499044 S    
C3    C10   1.493118 S    
C14   C16   1.538768 S    
C35   C36   1.393562 A    
C22   C24   1.520512 S    
C21   N2    1.483656 S    
C16   C18   1.538194 S    
C23   N1    1.484229 S    
C23   N7    1.437427 S    
C45   C46   1.396321 A    
C49   H25   1.078051 S    
N2    C26   1.504574 S    
C47   C48   1.390802 A    
C37   C38   1.390176 A    
C49   C50   1.389842 A    
O2    Cu2   2.022108 S    
N10   O24   1.296418 A    
Cu1   N1    2.074093 S    
C21   N9    1.447972 S    
C28   H7    1.079988 S    
Cu2   N2    2.074095 S    
C39   C40   1.399702 A    
O5    Cu1   2.004110 S    
C2    C17   1.509533 S    
C14   C17   1.542518 S    
C6    C8    1.540417 S    
C42   C43   1.395548 A    
C32   H11   1.078376 S    
C15   N5    1.458589 S    
C48   H24   1.076009 S    
C36   H14   1.081798 S    
