data_mof_unit_42042.cif
_audit_creation_date              2012-12-11T16:22:14-0500
_audit_creation_method            fapswitch 2.2
_symmetry_space_group_name_H-M    P1
_symmetry_Int_Tables_number       1
_space_group_crystal_system       triclinic
_cell_length_a                    19.650423
_cell_length_b                    6.926908
_cell_length_c                    17.838547
_cell_angle_alpha                 89.710611
_cell_angle_beta                  107.774368
_cell_angle_gamma                 90.751505
_cell_volume                      2312.01944621

loop_
_atom_site_label
_atom_site_type_symbol
_atom_type_description
_atom_site_fract_x
_atom_site_fract_y
_atom_site_fract_z
_atom_type_partial_charge
O1    O     O_R   0.561700 0.369960 0.440190 -0.545804
O2    O     O_R   0.061700 0.630040 0.940190 -0.536956
O3    O     O_R   0.413790 0.033680 0.407460 -0.541102
O4    O     O_R   0.913790 0.966320 0.907460 -0.545634
O5    O     O_R   0.438300 0.869760 0.559810 -0.527708
O6    O     O_R   0.938300 0.130240 0.059810 -0.531686
C1    C     C_R   0.387637 0.202669 0.384315 0.715885
C2    C     C_R   0.886407 0.796426 0.885395 0.712082
O7    O     O_R   0.559630 0.039830 0.430710 -0.548969
O8    O     O_R   0.059630 0.960170 0.930710 -0.542580
O9    O     O_R   0.585190 0.875950 0.583220 -0.532783
O10   O     O_R   0.085190 0.124050 0.083220 -0.525769
C3    C     C_R   0.581808 0.210924 0.415872 0.686063
C4    C     C_R   0.079568 0.791409 0.914186 0.703355
O11   O     O_R   0.414810 0.363770 0.416780 -0.536926
O12   O     O_R   0.914810 0.636230 0.916780 -0.532712
O13   O     O_3   0.508210 0.205480 0.550010 -0.341800
O14   O     O_3   0.008210 0.794520 0.050010 -0.358073
V1    V     V_3+5 0.498480 0.928140 0.490720 1.478945
V2    V     V_3+5 0.998480 0.071860 0.990720 1.485712
O15   O     O_R   0.586210 0.546600 0.592540 -0.532992
O16   O     O_R   0.086210 0.453400 0.092540 -0.535004
C5    C     C_R   0.612981 0.717080 0.615510 0.795650
C6    C     C_R   0.113001 0.284382 0.115618 0.785319
O17   O     O_R   0.440370 0.540460 0.569290 -0.533277
O18   O     O_R   0.940370 0.459540 0.069290 -0.535661
C7    C     C_R   0.419843 0.708694 0.585885 0.738598
C8    C     C_R   0.917925 0.289561 0.082847 0.745351
V3    V     V_3+5 0.501520 0.428910 0.509280 1.505300
V4    V     V_3+5 0.001520 0.571090 0.009280 1.508868
O19   O     O_3   0.491790 0.701440 0.449990 -0.378449
O20   O     O_3   0.991790 0.298560 0.949990 -0.380753
C9    C     C_R   0.321652 0.876354 0.728964 -0.155430
C10   C     C_R   0.755771 0.166514 0.148266 -0.171047
H1    H     H_    0.321954 0.999968 0.765961 0.171751
H2    H     H_    0.702969 0.103427 0.123446 0.157027
C11   C     C_R   0.369620 0.875048 0.684908 0.171915
C12   C     C_R   0.800963 0.182983 0.101097 0.170067
C13   C     C_R   0.370964 0.716121 0.635754 -0.138733
C14   C     C_R   0.868558 0.273578 0.130694 -0.120248
C15   C     C_R   0.323465 0.560752 0.633668 -0.190860
C16   C     C_R   0.890890 0.338327 0.208763 -0.203393
H3    H     H_    0.323352 0.436854 0.596824 0.160880
H4    H     H_    0.943847 0.400989 0.233086 0.143341
C17   C     C_R   0.275220 0.562548 0.677876 0.190262
C18   C     C_R   0.846858 0.315546 0.257066 0.194023
C19   C     C_R   0.273285 0.723486 0.725820 0.020234
C20   C     C_R   0.777320 0.234295 0.226108 0.001817
C21   C     C_R   0.149254 0.698038 0.740093 -0.093117
C22   C     C_R   0.713773 0.396866 0.309266 -0.111586
H5    H     H_    0.128921 0.657262 0.678691 0.147868
H6    H     H_    0.742194 0.527647 0.302390 0.132685
C23   C     C_R   0.101312 0.712530 0.784584 0.121767
C24   C     C_R   0.669568 0.397435 0.358189 0.079359
C25   C     C_R   0.126572 0.780346 0.863282 -0.075030
C26   C     C_R   0.630476 0.225805 0.365267 -0.066557
C27   C     C_R   0.199303 0.826885 0.895634 -0.157192
C28   C     C_R   0.638159 0.062421 0.321752 -0.182715
H7    H     H_    0.219783 0.876920 0.955886 0.154855
H8    H     H_    0.607408 0.932275 0.322645 0.133167
C29   C     C_R   0.246787 0.803982 0.851739 -0.103612
C30   C     C_R   0.685764 0.062780 0.277027 -0.132600
H9    H     H_    0.302852 0.837367 0.879282 0.139440
H10   H     H_    0.691984 0.932142 0.246778 0.122609
C31   C     C_R   0.222563 0.737988 0.773473 0.091644
C32   C     C_R   0.725378 0.229433 0.272044 0.102579
C33   C     C_2   0.709868 0.890486 0.719051 0.227716
C34   C     C_2   0.215033 0.116297 0.213212 0.193621
C35   C     C_2   0.684092 0.730704 0.675394 -0.337122
C36   C     C_2   0.173745 0.273642 0.189062 -0.320546
H11   H     H_    0.719226 0.608758 0.679311 0.137416
H12   H     H_    0.183025 0.398662 0.227649 0.140702
C37   C     C_2   0.786533 0.907022 0.767050 -0.011339
C38   C     C_2   0.267821 0.109750 0.292971 0.022518
C39   C     C_2   0.814146 0.780465 0.827241 -0.015410
C40   C     C_2   0.328864 0.217307 0.309835 -0.002936
C41   C     C_3   0.828469 0.085944 0.755416 -0.323387
C42   C     C_3   0.813551 0.149833 0.669465 -0.342504
C43   C     C_3   0.859774 0.325844 0.664636 -0.768981
H13   H     H_    0.853363 0.361099 0.602279 0.233712
H14   H     H_    0.843938 0.452305 0.693280 0.227610
H15   H     H_    0.917146 0.295869 0.694068 0.228529
H16   H     H_    0.826612 0.031011 0.635064 0.203337
H17   H     H_    0.756534 0.187532 0.642666 0.212553
H18   H     H_    0.816640 0.206250 0.790239 0.231676
H19   H     H_    0.886424 0.059303 0.777139 0.165688
C44   C     C_3   0.251774 0.970876 0.351795 -0.366621
C45   C     C_3   0.237429 0.077699 0.420580 -0.339126
C46   C     C_3   0.216061 0.936506 0.475650 -0.687857
H20   H     H_    0.164924 0.862249 0.444262 0.232861
H21   H     H_    0.258197 0.826995 0.497810 0.215353
H22   H     H_    0.209035 0.015773 0.526642 0.249967
H23   H     H_    0.285894 0.158669 0.455107 0.186500
H24   H     H_    0.193583 0.182531 0.397413 0.209724
H25   H     H_    0.203417 0.882982 0.321743 0.197182
H26   H     H_    0.296065 0.867220 0.373794 0.198524
I1    I     I_    0.749697 0.559818 0.856996 -0.295382
I2    I     I_    0.350505 0.410584 0.226164 -0.344569
I3    I     I_    0.439530 0.117717 0.702094 -0.283534
I4    I     I_    0.762174 0.073832 0.984813 -0.280824
I5    I     I_    0.211584 0.309277 0.672380 -0.503868
I6    I     I_    0.892779 0.390279 0.377779 -0.459430
C47   C     C_3   0.023824 0.656019 0.746218 -0.383225
C48   C     C_3   0.977719 0.831641 0.712746 -0.353552
C49   C     C_3   0.989932 0.908029 0.637305 -0.653950
H27   H     H_    0.980304 0.791802 0.592465 0.236575
H28   H     H_    0.952347 0.027123 0.612916 0.221164
H29   H     H_    0.045295 0.965203 0.649602 0.245078
H30   H     H_    0.920606 0.788314 0.699261 0.182327
H31   H     H_    0.989188 0.948813 0.757275 0.189927
H32   H     H_    0.019027 0.548908 0.698559 0.193499
H33   H     H_    0.002226 0.581718 0.789528 0.149325
C50   C     C_3   0.673672 0.578975 0.406554 -0.352990
C51   C     C_3   0.724111 0.550192 0.490204 -0.292293
C52   C     C_3   0.754140 0.742381 0.528271 -0.786474
H34   H     H_    0.787530 0.812664 0.495421 0.250499
H35   H     H_    0.710230 0.840912 0.528950 0.223947
H36   H     H_    0.788361 0.716120 0.589459 0.210588
H37   H     H_    0.695640 0.473999 0.526898 0.188507
H38   H     H_    0.769892 0.460211 0.488163 0.219481
H39   H     H_    0.695565 0.699173 0.379080 0.175217
H40   H     H_    0.620599 0.630789 0.406293 0.190319
I7    I     I_    0.644819 0.127482 0.728027 -0.248383
I8    I     I_    0.211808 0.864694 0.143746 -0.358999

loop_
_geom_bond_atom_site_label_1
_geom_bond_atom_site_label_2
_ccdc_geom_bond_type
C28   C30   A    
C48   H31   S    
C44   C45   S    
O13   V3    S    
C5    C35   S    
O4    C2    A    
V1    O19   S    
C34   I8    S    
C51   C52   S    
C6    C36   S    
C13   C15   A    
C41   C42   S    
C18   I6    S    
O9    V1    S    
C22   C24   A    
C38   C40   D    
O3    C1    A    
C48   H30   S    
C27   H7    S    
C8    C14   S    
C34   C38   S    
C52   H34   S    
C24   C50   S    
C39   I1    S    
C47   H32   S    
C16   C18   A    
C35   H11   S    
O7    C3    A    
C30   H10   S    
O13   V1    S    
O5    C7    A    
C42   H16   S    
O7    V1    S    
O6    C8    A    
C50   H40   S    
O8    V2    S    
C52   H35   S    
C44   H25   S    
C22   H6    S    
O3    V1    S    
C33   C37   S    
C38   C44   S    
C46   H21   S    
C15   H3    S    
C10   H2    S    
C51   H37   S    
C3    C26   S    
C23   C25   A    
C4    C25   S    
C41   H18   S    
C2    O12   A    
C37   C39   D    
C16   H4    S    
C48   C49   S    
O11   V3    S    
C45   H24   S    
C17   C19   A    
O17   V3    S    
C49   H29   S    
C24   C26   A    
C30   C32   A    
V4    O20   S    
C12   I4    S    
O8    C4    A    
C7    C13   S    
C43   H14   S    
C42   C43   S    
C1    O11   A    
C21   H5    S    
O15   V3    S    
C2    C39   S    
C9    C11   A    
C47   H33   S    
C33   C35   D    
C21   C31   A    
C29   C31   A    
C49   H28   S    
V3    O19   S    
C52   H36   S    
C44   H26   S    
O10   V2    S    
O1    V3    S    
C46   H22   S    
C22   C32   A    
C17   I5    S    
O14   V4    S    
C41   H19   S    
O18   V4    S    
O15   C5    A    
C9    C19   A    
O16   C6    A    
O1    C3    A    
O12   V4    S    
C11   I3    S    
C50   C51   S    
V2    O20   S    
C45   H23   S    
C37   C41   S    
O16   V4    S    
C10   C12   A    
C29   H9    S    
C14   C16   A    
C33   I7    S    
C43   H15   S    
C27   C29   A    
C1    C40   S    
O5    V1    S    
O17   C7    A    
O6    V2    S    
C49   H27   S    
O10   C6    A    
C10   C20   A    
O18   C8    A    
O2    V4    S    
C25   C27   A    
C11   C13   A    
C12   C14   A    
C23   C47   S    
C21   C23   A    
O9    C5    A    
C9    H1    S    
C26   C28   A    
C40   I2    S    
O14   V2    S    
O2    C4    A    
C43   H13   S    
O4    V2    S    
C18   C20   A    
C42   H17   S    
C50   H39   S    
C45   C46   S    
C34   C36   D    
C47   C48   S    
C15   C17   A    
C36   H12   S    
C20   C32   S    
C46   H20   S    
C28   H8    S    
C19   C31   S    
C51   H38   S    
