data_mof_unit_45159.cif
_audit_creation_date              2012-10-26T20:16:50-0400
_audit_creation_method            fapswitch 2.2
_symmetry_space_group_name_H-M    P1
_symmetry_Int_Tables_number       1
_space_group_crystal_system       triclinic
_cell_length_a                    10.902064
_cell_length_b                    10.974069
_cell_length_c                    10.420855
_cell_angle_alpha                 91.048237
_cell_angle_beta                  92.502662
_cell_angle_gamma                 90.89857
_cell_volume                      1245.18398378

loop_
_atom_site_label
_atom_site_type_symbol
_atom_type_description
_atom_site_fract_x
_atom_site_fract_y
_atom_site_fract_z
_atom_type_partial_charge
C1    C     C_R   0.504372 0.261459 0.498678 0.595521
C2    C     C_R   0.666415 0.885698 0.808898 0.036084
C3    C     C_R   0.449800 0.115788 0.255651 0.038566
C4    C     C_R   0.550200 0.884212 0.744348 0.038566
C5    C     C_R   0.552803 0.155491 0.190431 -0.063314
C6    C     C_R   0.447197 0.844509 0.809569 -0.063314
C7    C     C_R   0.539398 0.195013 0.064098 -0.122749
C8    C     C_R   0.460601 0.804987 0.935902 -0.122749
C9    C     C_R   0.424287 0.190341 0.999701 -0.070205
C10   C     C_R   0.575713 0.809658 0.000298 -0.070205
C11   C     C_R   0.455009 0.933086 0.390874 0.221560
C12   C     C_R   0.495628 0.738541 0.501322 0.595521
C13   C     C_R   0.544991 0.066914 0.609125 0.221560
C14   C     C_R   0.491716 0.872280 0.504126 -0.009449
C15   C     C_R   0.508284 0.127720 0.495874 -0.009449
C16   C     C_R   0.261324 0.500704 0.497406 0.572861
C17   C     C_R   0.738676 0.499296 0.502594 0.572861
C18   C     C_R   0.532038 0.940226 0.615790 -0.039870
C19   C     C_R   0.467961 0.059774 0.384209 -0.039870
C20   C     C_1   0.499998 0.500059 0.071929 0.088004
C21   C     C_1   0.500001 0.499941 0.928071 0.088004
C22   C     C_R   0.150518 0.693143 0.087369 -0.016685
C23   C     C_R   0.872265 0.500005 0.505652 0.044118
C24   C     C_R   0.849482 0.306857 0.912631 -0.016685
C25   C     C_R   0.115168 0.672500 0.212786 0.268602
C26   C     C_R   0.884831 0.327500 0.787213 0.268602
C27   C     C_R   0.104024 0.552256 0.256617 0.039162
C28   C     C_R   0.895976 0.447744 0.743383 0.039162
C29   C     C_R   0.123869 0.453910 0.171805 0.233326
C30   C     C_R   0.876131 0.546090 0.828195 0.233326
C31   C     C_R   0.160602 0.475745 0.047154 -0.098659
C32   C     C_R   0.839398 0.524254 0.952846 -0.098659
C33   C     C_R   0.174322 0.595098 0.005259 -0.188562
C34   C     C_R   0.127735 0.499995 0.494348 0.044118
C35   C     C_R   0.825677 0.404901 0.994741 -0.188562
C36   C     C_R   0.928358 0.527848 0.391207 -0.074475
C37   C     C_R   0.071642 0.472152 0.608792 -0.074475
C38   C     C_R   0.945166 0.471860 0.616110 0.045677
C39   C     C_R   0.054834 0.528140 0.383890 0.045677
C40   C     C_R   0.321862 0.147423 0.062016 0.260155
C41   C     C_R   0.678138 0.852576 0.937984 0.260155
C42   C     C_R   0.333585 0.114301 0.191102 0.036084
Cl1   Cl    Cl    0.386325 0.852232 0.256036 -0.620181
Cl2   Cl    Cl    0.613675 0.147767 0.743964 -0.620180
Cl3   Cl    Cl    0.080216 0.798416 0.311125 -0.455712
Cl4   Cl    Cl    0.919784 0.201584 0.688875 -0.455712
Cl5   Cl    Cl    0.094479 0.303295 0.218069 -0.556623
Cl6   Cl    Cl    0.905521 0.696705 0.781931 -0.556622
Cl7   Cl    Cl    0.181275 0.126691 0.974952 -0.481085
Cl8   Cl    Cl    0.818725 0.873309 0.025048 -0.481085
Cu1   Cu    Cu3+1 0.500000 0.500000 0.625300 1.058149
Cu2   Cu    Cu3+1 0.500000 0.500000 0.374700 1.058149
H1    H     H_    0.201293 0.611600 0.908242 0.147705
H2    H     H_    0.746045 0.919783 0.761289 0.230954
H3    H     H_    0.158507 0.785358 0.053043 0.218708
H4    H     H_    0.841493 0.214642 0.946957 0.218708
H5    H     H_    0.175895 0.400437 0.981613 0.182634
H6    H     H_    0.824105 0.599562 0.018386 0.182634
H7    H     H_    0.414854 0.218187 0.900754 0.190841
H8    H     H_    0.585145 0.781813 0.099246 0.190841
H9    H     H_    0.798707 0.388400 0.091758 0.147705
H10   H     H_    0.643474 0.154904 0.237304 0.158865
H11   H     H_    0.356526 0.845096 0.762696 0.158865
H12   H     H_    0.618767 0.227019 0.015295 0.162266
H13   H     H_    0.381232 0.772982 0.984705 0.162267
H14   H     H_    0.873528 0.549399 0.305422 0.143585
H15   H     H_    0.126472 0.450601 0.694578 0.143585
H16   H     H_    0.253955 0.080217 0.238711 0.230954
N1    N     N_1   0.500010 0.499990 0.186410 -0.187413
N2    N     N_1   0.499990 0.500010 0.813590 -0.187413
O1    O     O_R   0.499990 0.319650 0.605810 -0.435989
O2    O     O_R   0.500010 0.680350 0.394190 -0.435989
O3    O     O_R   0.499990 0.319640 0.394190 -0.516494
O4    O     O_R   0.500010 0.680360 0.605810 -0.516494
O5    O     O_R   0.319640 0.500010 0.605810 -0.522556
O6    O     O_R   0.680360 0.499990 0.394190 -0.522556
O7    O     O_R   0.319650 0.500010 0.394190 -0.477323
O8    O     O_R   0.680350 0.499990 0.605810 -0.477323

loop_
_geom_bond_atom_site_label_1
_geom_bond_atom_site_label_2
_ccdc_geom_bond_type
C3    C42   A    
C12   O4    A    
C27   C29   A    
C34   C37   A    
C14   C18   A    
C2    C4    A    
Cu1   O4    S    
C32   H6    S    
C15   C19   A    
C11   C19   A    
C1    O1    A    
C13   C18   A    
C29   Cl5   S    
C30   Cl6   S    
C24   C26   A    
C11   C14   A    
C36   H14   S    
C2    C41   A    
C40   Cl7   S    
C16   O5    A    
C16   O7    A    
Cu2   N1    S    
C16   C34   S    
C27   C39   S    
C22   C25   A    
C17   O6    A    
C31   C33   A    
C11   Cl1   S    
C1    C15   S    
Cu1   N2    S    
C4    C18   S    
C40   C42   A    
C12   O2    A    
C8    H13   S    
C10   C41   A    
C42   H16   S    
Cu1   O1    S    
C33   H1    S    
C24   C35   A    
Cu1   Cu2   S    
C32   C35   A    
C4    C6    A    
Cu2   O3    S    
C2    H2    S    
C5    C7    A    
C6    C8    A    
C3    C5    A    
C9    C40   A    
C34   C39   A    
C9    H7    S    
C6    H11   S    
C10   H8    S    
C37   C38   A    
Cu2   O2    S    
C28   C38   S    
C35   H9    S    
C17   C23   S    
C3    C19   S    
C12   C14   S    
C13   C15   A    
C20   N1    T    
C24   H4    S    
Cu2   O7    S    
C25   Cl3   S    
C41   Cl8   S    
C7    C9    A    
C22   C33   A    
C36   C39   A    
Cu1   O5    S    
Cu2   O6    S    
C22   H3    S    
C25   C27   A    
C23   C38   A    
C26   C28   A    
C21   N2    T    
C1    O3    A    
C31   H5    S    
C28   C30   A    
Cu1   O8    S    
C29   C31   A    
C30   C32   A    
C37   H15   S    
C17   O8    A    
C5    H10   S    
C7    H12   S    
C26   Cl4   S    
C20   C21   S    
C8    C10   A    
C23   C36   A    
C13   Cl2   S    
