data_mof_unit_44201.cif
_audit_creation_date              2012-12-10T17:24:42-0500
_audit_creation_method            fapswitch 2.2
_symmetry_space_group_name_H-M    P1
_symmetry_Int_Tables_number       1
_space_group_crystal_system       triclinic
_cell_length_a                    23.484995
_cell_length_b                    10.783731
_cell_length_c                    9.635041
_cell_angle_alpha                 90.21562
_cell_angle_beta                  89.895575
_cell_angle_gamma                 94.22001
_cell_volume                      2433.49493498

loop_
_atom_site_label
_atom_site_type_symbol
_atom_type_description
_atom_site_fract_x
_atom_site_fract_y
_atom_site_fract_z
_atom_type_partial_charge
C1    C     C_R   0.497496 0.262496 0.499772 0.951391
C2    C     C_R   0.965196 0.365153 0.292545 -0.142461
C3    C     C_R   0.024626 0.365196 0.292732 -0.152925
C4    C     C_R   0.056860 0.424772 0.399752 -0.015494
C5    C     C_R   0.028722 0.483593 0.508047 -0.012781
C6    C     C_R   0.060608 0.544434 0.615173 -0.013126
C7    C     C_R   0.032077 0.601410 0.723787 -0.154252
C8    C     C_R   0.972591 0.598441 0.725671 -0.142234
C9    C     C_R   0.116698 0.427018 0.401411 0.539141
C10   C     C_R   0.120415 0.547409 0.610411 0.536980
C11   C     C_R   0.239715 0.540769 0.389206 -0.092318
C12   C     C_R   0.391100 0.499473 0.500205 0.833591
C13   C     C_R   0.299178 0.542525 0.387386 -0.236242
C14   C     C_R   0.328490 0.497376 0.501211 -0.029574
C15   C     C_R   0.297487 0.449516 0.616260 -0.172220
C16   C     C_R   0.238032 0.445295 0.616659 -0.116503
C17   C     C_R   0.208708 0.491479 0.503523 0.339878
C18   C     C_R   0.754120 0.383238 0.530474 -0.114236
C19   C     C_R   0.695043 0.387569 0.528564 -0.217840
C20   C     C_R   0.670754 0.499376 0.500442 -0.128595
C21   C     C_R   0.705920 0.608397 0.475015 0.195765
C22   C     C_R   0.765579 0.603386 0.474066 0.296886
C23   C     C_R   0.498466 0.736929 0.500184 0.862864
C24   C     C_R   0.789591 0.490470 0.503390 0.224699
C25   C     C_R   0.401138 0.111325 0.630362 0.591354
C26   C     C_R   0.358356 0.037546 0.697510 -0.176602
C27   C     C_R   0.360413 0.909289 0.701439 -0.220276
C28   C     C_R   0.405097 0.853375 0.637287 -0.157743
C29   C     C_R   0.449634 0.925722 0.570268 0.019762
C30   C     C_R   0.448294 0.056968 0.567927 -0.082700
C31   C     C_R   0.493150 0.127896 0.498726 -0.237294
C32   C     C_R   0.535462 0.069538 0.426265 0.580082
C33   C     C_R   0.535548 0.941719 0.426104 -0.203736
C34   C     C_R   0.608644 0.500505 0.499966 0.914549
C35   C     C_R   0.494324 0.870047 0.500463 -0.150506
C36   C     C_R   0.575507 0.667349 0.149061 -0.133916
C37   C     C_R   0.612645 0.752687 0.083050 -0.283348
C38   C     C_R   0.614029 0.756095 0.941347 -0.183526
C39   C     C_R   0.578415 0.674598 0.863271 0.631384
C40   C     C_R   0.537931 0.584442 0.926460 0.059229
C41   C     C_R   0.537377 0.582999 0.076206 0.149778
C42   C     C_R   0.464396 0.421113 0.073406 -0.028985
C43   C     C_R   0.464402 0.421106 0.925896 -0.046877
C44   C     C_R   0.880644 0.538046 0.616116 0.599292
C45   C     C_R   0.877053 0.426683 0.400987 0.580459
C46   C     C_R   0.936705 0.423677 0.400052 -0.024044
C47   C     C_R   0.968559 0.482135 0.508863 -0.014880
C48   C     C_R   0.940412 0.539676 0.618159 -0.024522
Cu1   Cu    Cu3+1 0.500000 0.499990 0.640660 1.032459
Cu2   Cu    Cu3+1 0.500000 0.500010 0.359340 0.992609
H1    H     H_    0.941705 0.319314 0.207851 0.196102
H2    H     H_    0.668144 0.303630 0.549172 0.191762
H3    H     H_    0.322694 0.080133 0.744662 0.162999
H4    H     H_    0.326591 0.852568 0.752043 0.177308
H5    H     H_    0.403532 0.753081 0.638781 0.148858
H6    H     H_    0.568880 0.898394 0.370073 0.194171
H7    H     H_    0.435114 0.356215 0.128021 0.138759
H8    H     H_    0.045209 0.319250 0.208217 0.191676
H9    H     H_    0.578841 0.672060 0.258121 0.233123
H10   H     H_    0.640897 0.816449 0.142528 0.232312
H11   H     H_    0.643735 0.822900 0.890323 0.212683
H12   H     H_    0.435134 0.356248 0.870908 0.169443
H13   H     H_    0.055586 0.648402 0.807727 0.191755
H14   H     H_    0.951973 0.643383 0.810858 0.197624
H15   H     H_    0.217700 0.577888 0.301731 0.157375
H16   H     H_    0.322249 0.580710 0.297987 0.161897
H17   H     H_    0.319144 0.413516 0.704982 0.184374
H18   H     H_    0.214687 0.405974 0.705054 0.158133
H19   H     H_    0.772507 0.296400 0.553174 0.183502
N1    N     N_R   0.850424 0.484374 0.507218 -0.454663
N2    N     N_R   0.147316 0.488641 0.505050 -0.465477
N3    N     N_R   0.500540 0.501210 0.147910 -0.185651
N4    N     N_R   0.500560 0.501290 0.852040 -0.190643
O1    O     O_R   0.500000 0.319640 0.618810 -0.556855
O2    O     O_2   0.845930 0.373668 0.296019 -0.500697
O3    O     O_2   0.144018 0.367087 0.300907 -0.535995
O4    O     O_2   0.151454 0.609850 0.709483 -0.543595
O5    O     O_R   0.500000 0.319660 0.381240 -0.550962
O6    O     O_R   0.417880 0.499950 0.618810 -0.572290
O7    O     O_R   0.417880 0.499980 0.381240 -0.594505
O8    O     O_R   0.500000 0.680340 0.618760 -0.521186
O9    O     O_R   0.500000 0.680360 0.381190 -0.622551
O10   O     O_R   0.582120 0.500020 0.618760 -0.514256
O11   O     O_R   0.582120 0.500050 0.381190 -0.587447
O12   O     O_2   0.852872 0.590414 0.721427 -0.494248
Br1   Br    Br    0.672855 0.764707 0.449404 -0.451303
Br2   Br    Br    0.814622 0.749016 0.429989 -0.367561
F1    F     F_    0.577892 0.137081 0.358256 -0.648436
F2    F     F_    0.393915 0.234429 0.621847 -0.715258
F3    F     F_    0.587674 0.691625 0.727812 -0.632673

loop_
_geom_bond_atom_site_label_1
_geom_bond_atom_site_label_2
_ccdc_geom_bond_type
C43   N4    A    
C44   C48   A    
C23   O9    A    
C19   C20   A    
C36   H9    S    
C27   H4    S    
C24   N1    S    
C7    C8    A    
C45   C46   A    
C2    C46   A    
C5    C47   A    
C26   C27   A    
C29   C30   A    
C18   C24   A    
C1    O1    A    
C28   C29   A    
C5    C6    A    
C15   C16   A    
C32   F1    S    
C12   O6    A    
C1    C31   S    
C40   N4    A    
C18   C19   A    
Cu1   O8    S    
Cu2   N3    S    
C21   Br1   S    
C19   H2    S    
C28   H5    S    
C11   C17   A    
C31   C32   A    
C16   C17   A    
C44   N1    A    
C16   H18   S    
C9    O3    S    
C39   F3    S    
C38   H11   S    
C20   C34   S    
C10   N2    A    
C18   H19   S    
C21   C22   A    
C1    O5    A    
C36   C41   A    
C34   O11   A    
Cu2   O5    S    
C42   H7    S    
C10   O4    S    
C13   H16   S    
C38   C39   A    
Cu2   O11   S    
C39   C40   A    
C25   C26   A    
Cu1   O6    S    
C8    C48   A    
C37   C38   A    
C47   C48   A    
C15   H17   S    
C42   N3    A    
C22   Br2   S    
C7    H13   S    
C8    H14   S    
C41   N3    A    
C40   C41   A    
C12   C14   S    
C17   N2    S    
C23   C35   S    
C22   C24   A    
C34   O10   A    
C44   O12   S    
C26   H3    S    
Cu2   O9    S    
C25   C30   A    
C46   C47   A    
C36   C37   A    
C23   O8    A    
C45   N1    A    
C14   C15   A    
C9    N2    A    
C4    C5    A    
Cu2   O7    S    
C6    C10   A    
C6    C7    A    
C29   C35   A    
C25   F2    S    
C45   O2    S    
C32   C33   A    
Cu1   O10   S    
C2    C3    A    
C11   C13   A    
C30   C31   A    
C33   H6    S    
C12   O7    A    
C33   C35   A    
Cu1   N4    S    
C37   H10   S    
C2    H1    S    
C3    H8    S    
C11   H15   S    
C20   C21   A    
Cu1   Cu2   S    
C42   C43   A    
C27   C28   A    
Cu1   O1    S    
C4    C9    A    
C13   C14   A    
C3    C4    A    
C43   H12   S    
