data_mof_unit_45200.cif
_audit_creation_date              2013-03-05T16:17:08-0500
_audit_creation_method            fapswitch 2.2
_symmetry_space_group_name_H-M    P1
_symmetry_Int_Tables_number       1
_space_group_crystal_system       triclinic
_cell_length_a                    8.391118
_cell_length_b                    18.859561
_cell_length_c                    18.946595
_cell_angle_alpha                 101.524215
_cell_angle_beta                  93.582358
_cell_angle_gamma                 92.160749
_cell_volume                      2928.30172619

loop_
_atom_site_label
_atom_site_type_symbol
_atom_site_description
_atom_site_fract_x
_atom_site_fract_y
_atom_site_fract_z
_atom_type_partial_charge
P1    P     P_3+3 0.945300 0.665790 0.568510 0.445890
O1    O     O_2   0.117290 0.676350 0.548250 -0.347840
O2    O     O_3   0.869060 0.586940 0.542720 -0.403100
O3    O     O_3   0.356990 0.628630 0.417250 -0.324340
O4    O     O_2   0.276264 0.756275 0.483808 -0.386438
O5    O     O_3   0.972013 0.696554 0.663460 -0.626627
O6    O     O_3   0.294129 0.744515 0.346348 -0.497732
C1    C     C_3   0.361867 0.810148 0.255549 -0.416060
H1    H     H_    0.257607 0.792767 0.215830 0.216041
H2    H     H_    0.325727 0.857217 0.295495 0.207621
P2    P     P_3+3 0.360080 0.438780 0.334620 0.450205
P3    P     P_3+3 0.911071 0.585797 0.286788 0.522158
O7    O     O_2   0.186600 0.460070 0.325400 -0.353708
O8    O     O_3   0.942970 0.591450 0.378940 -0.343625
O9    O     O_2   0.022189 0.528832 0.248905 -0.351338
O10   O     O_3   0.350932 0.343344 0.311547 -0.620813
O11   O     O_3   0.983360 0.669230 0.271227 -0.435001
C2    C     C_3   0.869989 0.720541 0.294296 0.468951
H3    H     H_    0.836350 0.718774 0.349779 0.060941
H4    H     H_    0.761741 0.710448 0.256132 -0.003745
C3    C     C_3   0.938120 0.796705 0.295709 -0.947148
H5    H     H_    0.042718 0.810174 0.335502 0.284193
H6    H     H_    0.973314 0.801413 0.241268 0.251996
C4    C     C_3   0.716670 0.327630 0.301791 0.782645
H7    H     H_    0.647273 0.368650 0.335116 0.117236
C5    C     C_3   0.624988 0.253509 0.281871 -0.939165
H8    H     H_    0.555520 0.244200 0.327304 0.227424
H9    H     H_    0.538997 0.250155 0.234344 0.247315
H10   H     H_    0.708967 0.209386 0.268635 0.234311
Ba1   Ba    Ba6+2 0.153490 0.533960 0.468530 1.564083
C6    C     C_3   0.906490 0.652424 0.706953 0.420133
H11   H     H_    0.776369 0.649315 0.697268 0.135252
C7    C     C_3   0.950221 0.686232 0.788702 -0.535639
H12   H     H_    0.077036 0.675267 0.801952 0.174255
C8    C     C_3   0.217928 0.313951 0.263587 0.261699
H13   H     H_    0.105852 0.340259 0.277822 0.149529
H14   H     H_    0.197005 0.257316 0.270609 0.101768
C9    C     C_3   0.246461 0.314107 0.184248 -0.385327
H15   H     H_    0.374893 0.324234 0.177515 0.210984
H16   H     H_    0.179196 0.357870 0.166837 0.194750
P4    P     P_3+3 0.865000 0.334200 0.431430 0.488879
O12   O     O_2   0.693010 0.323600 0.451730 -0.392514
O13   O     O_3   0.941240 0.413050 0.457220 -0.368793
O14   O     O_3   0.453310 0.371360 0.582690 -0.373244
O15   O     O_3   0.864535 0.320308 0.337004 -0.620456
P5    P     P_3+3 0.886498 0.404656 0.713999 0.505192
O16   O     O_3   0.371310 0.539060 0.587050 -0.429859
O17   O     O_3   0.867330 0.408540 0.621000 -0.315551
O18   O     O_2   0.764055 0.457298 0.749844 -0.397045
O19   O     O_3   0.809677 0.319603 0.724780 -0.481209
Ba2   Ba    Ba6+2 0.656680 0.466030 0.531410 1.567245
P6    P     P_3+3 0.384683 0.722127 0.424559 0.473633
C10   C     C_3   0.405704 0.748185 0.294119 0.423219
H17   H     H_    0.530409 0.759123 0.318042 -0.042942
O20   O     O_3   0.438990 0.460930 0.412890 -0.384764
C11   C     C_3   0.467971 0.708764 0.686394 0.847694
C12   C     C_3   0.298756 0.729895 0.690359 -0.730604
H18   H     H_    0.271358 0.753174 0.746647 0.210803
H19   H     H_    0.272550 0.768165 0.654367 0.243667
H20   H     H_    0.230498 0.678693 0.671608 0.254498
P7    P     P_3+3 0.445016 0.561668 0.680269 0.396056
O21   O     O_2   0.623700 0.539890 0.674570 -0.365233
O22   O     O_3   0.486965 0.652856 0.725618 -0.593454
H21   H     H_    0.846649 0.836427 0.312519 0.208039
C13   C     C_3   0.934492 0.274443 0.737490 0.467691
H22   H     H_    0.037936 0.305682 0.769980 -0.076112
C14   C     C_3   0.876265 0.220240 0.782785 -0.782945
H23   H     H_    0.978783 0.190611 0.799791 0.142621
H24   H     H_    0.830705 0.251275 0.832998 0.188957
P8    P     P_3+3 0.439377 0.276393 0.570658 0.538049
C15   C     C_3   0.408669 0.307619 0.708787 0.510085
H25   H     H_    0.278055 0.310273 0.699421 0.002333
O23   O     O_2   0.590145 0.247974 0.534185 -0.321207
O24   O     O_3   0.466125 0.253268 0.655828 -0.482624
H26   H     H_    0.469084 0.361094 0.708994 0.097040
H27   H     H_    0.394831 0.334649 0.824632 0.167490
C16   C     C_3   0.443744 0.291532 0.784077 -0.422894
H28   H     H_    0.574498 0.293054 0.796654 0.237506
C17   C     C_R   0.015137 0.949424 0.518416 -0.039049
C18   C     C_R   0.104137 0.905204 0.556141 0.127730
C19   C     C_R   0.261333 0.928586 0.583512 -0.072652
C20   C     C_R   0.325271 0.996405 0.577038 -0.228001
C21   C     C_R   0.231855 0.043408 0.545201 0.126506
C22   C     C_R   0.076401 0.019891 0.515362 0.021085
C23   C     C_R   0.290721 0.113844 0.544281 -0.213547
C24   C     C_R   0.195293 0.162896 0.515568 -0.092610
C25   C     C_R   0.038211 0.139622 0.485379 0.044016
C26   C     C_R   0.979910 0.067684 0.485317 0.000385
C27   C     C_R   0.252999 0.234343 0.515597 0.186673
C28   C     C_R   0.158710 0.278764 0.479663 -0.125655
C29   C     C_R   0.993441 0.262136 0.461303 0.286182
C30   C     C_R   0.936539 0.188877 0.458421 -0.027394
C31   C     C_R   0.859947 0.925414 0.489101 -0.014151
C32   C     C_R   0.801526 0.853820 0.490140 0.016270
C33   C     C_R   0.893519 0.808664 0.527336 -0.147310
C34   C     C_R   0.026482 0.843127 0.572924 -0.036295
H29   H     H_    0.334444 0.894548 0.610598 0.149545
H30   H     H_    0.446100 0.013125 0.599299 0.157778
H31   H     H_    0.411966 0.129644 0.565990 0.204113
C35   C     C_R   0.781973 0.162739 0.429045 -0.157304
C36   C     C_R   0.723736 0.092101 0.429757 0.132123
C37   C     C_R   0.822718 0.044241 0.457865 0.018033
C38   C     C_R   0.763303 0.973094 0.459247 0.020321
C39   C     C_R   0.566106 0.068912 0.403680 -0.194185
C40   C     C_R   0.507189 0.998975 0.405581 -0.186753
C41   C     C_R   0.605097 0.950588 0.433039 0.130161
C42   C     C_R   0.645961 0.829990 0.459323 -0.000706
C43   C     C_R   0.546908 0.880227 0.434588 -0.267333
C44   C     C_R   0.593946 0.756875 0.454693 0.113692
C45   C     C_R   0.698198 0.708960 0.479437 -0.475351
C46   C     C_R   0.840402 0.733834 0.521752 0.283389
H32   H     H_    0.704193 0.196833 0.405625 0.150395
H33   H     H_    0.487606 0.105198 0.382457 0.123492
H34   H     H_    0.384712 0.982777 0.385614 0.129868
H35   H     H_    0.423731 0.865364 0.416196 0.168918
H36   H     H_    0.658567 0.652616 0.472937 0.181836
N1    N     N_R   0.418411 0.554520 0.971722 -0.062035
N2    N     N_R   0.470809 0.559625 0.040401 -0.064231
C47   C     C_2   0.611661 0.516386 0.298133 -0.413152
C48   C     C_3   0.695126 0.564670 0.255663 0.055144
C49   C     C_2   0.656174 0.541995 0.174513 0.155929
C50   C     C_2   0.507653 0.510179 0.151893 0.016735
C51   C     C_2   0.410193 0.483126 0.206115 -0.284386
C52   C     C_1   0.470660 0.484249 0.273151 0.331912
N3    N     N_R   0.338533 0.449015 0.042146 -0.084355
N4    N     N_R   0.284384 0.444189 0.973390 -0.084786
C53   C     C_R   0.325717 0.496282 0.936401 0.163454
C54   C     C_R   0.436200 0.506225 0.076636 0.170771
C55   C     C_R   0.376351 0.519467 0.813064 -0.218760
C56   C     C_R   0.339882 0.506843 0.738083 0.204244
C57   C     C_R   0.094379 0.437728 0.754143 0.156197
C58   C     C_R   0.133884 0.450069 0.828581 -0.233066
C59   C     C_R   0.278377 0.488104 0.858263 0.042489
C60   C     C_R   0.205631 0.460356 0.709238 -0.414805
H37   H     H_    0.283638 0.471114 0.192497 0.180200
H38   H     H_    0.481108 0.553523 0.836015 0.156222
H39   H     H_    0.050930 0.431410 0.863316 0.151086
H40   H     H_    0.658084 0.516679 0.352964 0.165063
C61   C     C_2   0.398217 0.678128 0.239731 0.524885
H41   H     H_    0.481030 0.670361 0.197523 -0.063538
O25   O     O_2   0.298313 0.630076 0.241688 -0.495366
C62   C     C_3   0.972495 0.577557 0.691294 -0.760341
H42   H     H_    0.097703 0.581002 0.677888 0.175144
H43   H     H_    0.967412 0.553627 0.739390 0.213703
H44   H     H_    0.903335 0.540968 0.646699 0.281685
C63   C     C_2   0.943218 0.767655 0.807568 0.509546
H45   H     H_    0.023714 0.800813 0.784004 0.107061
O26   O     O_2   0.853814 0.797518 0.851436 -0.579583
C64   C     C_2   0.846039 0.651197 0.835869 0.673480
H46   H     H_    0.717478 0.655844 0.831848 0.057032
O27   O     O_2   0.905396 0.617469 0.878696 -0.585918
C65   C     C_3   0.188191 0.242768 0.134230 -0.953777
H47   H     H_    0.206017 0.246189 0.077395 0.273948
H48   H     H_    0.256818 0.197473 0.147823 0.265924
H49   H     H_    0.058894 0.231653 0.139332 0.261723
C66   C     C_3   0.500701 0.835992 0.216976 -0.972078
H50   H     H_    0.544125 0.790601 0.177280 0.264175
H51   H     H_    0.460290 0.878379 0.187821 0.282052
H52   H     H_    0.600211 0.859955 0.256911 0.269540
C67   C     C_3   0.573678 0.775135 0.725359 -0.899787
H53   H     H_    0.540804 0.824808 0.705708 0.222755
H54   H     H_    0.561394 0.784929 0.784528 0.280752
H55   H     H_    0.699797 0.766861 0.714783 0.214707
C68   C     C_3   0.509112 0.690134 0.607375 -0.829317
H56   H     H_    0.527829 0.741371 0.588217 0.188700
H57   H     H_    0.617313 0.658776 0.601610 0.216425
H58   H     H_    0.410831 0.659250 0.571461 0.287147
C69   C     C_2   0.991114 0.235123 0.667418 0.651921
H59   H     H_    0.090411 0.199902 0.667067 -0.091321
O28   O     O_2   0.923899 0.241834 0.610481 -0.510726
C70   C     C_2   0.748187 0.164266 0.746266 0.684737
H60   H     H_    0.696940 0.127753 0.777328 -0.008934
O29   O     O_2   0.701491 0.158353 0.682946 -0.531142
C71   C     C_3   0.370748 0.218250 0.791380 -0.861444
H61   H     H_    0.409824 0.173835 0.749334 0.288327
H62   H     H_    0.408100 0.207471 0.845338 0.247596
H63   H     H_    0.239137 0.218683 0.786289 0.228692
C72   C     C_3   0.239739 0.340492 0.454657 -0.578520
H64   H     H_    0.175779 0.348547 0.404914 0.214768
H65   H     H_    0.240068 0.391995 0.494037 0.256790
H66   H     H_    0.364031 0.327997 0.441774 0.232575
C73   C     C_2   0.017531 0.844056 0.650929 0.493372
H67   H     H_    0.913067 0.819693 0.668961 0.032983
O30   O     O_2   0.117184 0.877541 0.696377 -0.615721
C74   C     C_3   0.765236 0.567968 0.122788 -0.866390
H68   H     H_    0.755442 0.530188 0.069487 0.241706
H69   H     H_    0.734862 0.623248 0.116465 0.237798
H70   H     H_    0.892906 0.569679 0.141302 0.280018
C75   C     C_2   0.174126 0.435261 0.631900 0.624974
H71   H     H_    0.148632 0.471894 0.596297 0.062893
O31   O     O_2   0.152093 0.370621 0.608710 -0.637616
C76   C     C_3   0.751526 0.354489 0.232995 -1.034966
H72   H     H_    0.825379 0.406063 0.247077 0.262002
H73   H     H_    0.818747 0.314155 0.196991 0.260594
H74   H     H_    0.639397 0.364176 0.203186 0.219292

loop_
_geom_bond_atom_site_label_1
_geom_bond_atom_site_label_2
_geom_bond_distance
_ccdc_geom_bond_type
C9    H16   1.108703 S    
C25   C26   1.424503 A    
C28   C72   1.497659 S    
N4    C53   1.362509 A    
C2    C3    1.520413 S    
C20   H30   1.083793 S    
P4    O12   1.532652 D    
P2    C52   1.851151 S    
C70   H60   1.084766 S    
C57   C60   1.411295 A    
C31   C38   1.409631 A    
C19   C20   1.399285 A    
C28   C29   1.416285 A    
C51   C52   1.333782 D    
C16   H28   1.106174 S    
C70   O29   1.220546 D    
C13   C69   1.500076 S    
C5    H8    1.107681 S    
C36   C37   1.407670 A    
C19   H29   1.083426 S    
O3    P6    1.746421 S    
C21   C22   1.407809 A    
C4    O15   1.396404 S    
C43   H35   1.078165 S    
C66   H50   1.109856 S    
C8    H14   1.111273 S    
Ba1   Ba2   4.611640 S    
C4    C5    1.536285 S    
O6    P6    1.756404 S    
C17   C31   1.404972 A    
C64   O27   1.220957 D    
O10   C8    1.415594 S    
C23   C24   1.412617 A    
C9    H15   1.107045 S    
C12   H19   1.106414 S    
P2    O7    1.533327 D    
C11   C12   1.491525 S    
C75   O31   1.213355 D    
P1    O1    1.532289 D    
P7    O22   1.773669 S    
C73   H67   1.079813 S    
C35   C36   1.404507 A    
C3    H21   1.109200 S    
C71   H61   1.109294 S    
O17   Ba2   2.772385 S    
C8    H13   1.103077 S    
P2    Ba1   3.410122 S    
C1    H1    1.112056 S    
C13   C14   1.544494 S    
C47   C52   1.323835 D    
P3    O11   1.751151 S    
P8    O24   1.757241 S    
N3    C54   1.359227 A    
C42   C43   1.412881 A    
C6    C7    1.567466 S    
O4    P6    1.544510 D    
O14   P8    1.758177 S    
C18   C34   1.418962 A    
C2    H4    1.110864 S    
P7    O21   1.573967 D    
O12   Ba2   2.843671 S    
C69   O28   1.217276 D    
O5    C6    1.403633 S    
P3    C48   1.872986 S    
C3    H5    1.107825 S    
P4    O13   1.567892 S    
C62   H44   1.096538 S    
C56   C60   1.411909 A    
Ba2   O21   2.826167 S    
N2    C54   1.359792 A    
O8    Ba1   2.771716 S    
C9    C65   1.526551 S    
C39   C40   1.399090 A    
O19   C13   1.413498 S    
C72   H64   1.095220 S    
C63   O26   1.222106 D    
C66   H52   1.109025 S    
P5    O17   1.775669 S    
C32   C42   1.415104 A    
N1    N2    1.330819 A    
C14   H23   1.108883 S    
C67   H55   1.100419 S    
C53   C59   1.484588 S    
C40   H34   1.083612 S    
C8    C9    1.537423 S    
C4    H7    1.104990 S    
C34   C73   1.481162 S    
C29   C30   1.434120 A    
O2    Ba2   2.805749 S    
C24   C25   1.420925 A    
C2    H3    1.111848 S    
C12   H20   1.087445 S    
O16   Ba2   2.954030 S    
C14   C70   1.509240 S    
C58   H39   1.082934 S    
C10   H17   1.109079 S    
C60   C75   1.451218 S    
C45   C46   1.405226 A    
C51   H37   1.081609 S    
P1    O2    1.567890 S    
C67   H54   1.111130 S    
O2    Ba1   2.950992 S    
C76   H74   1.106985 S    
C12   H18   1.110905 S    
C42   C44   1.414596 A    
C23   H31   1.081156 S    
C55   H38   1.082761 S    
P2    O10   1.762830 S    
Ba1   O16   2.789260 S    
C26   C37   1.408630 A    
C6    H11   1.093210 S    
P5    O18   1.548298 D    
C65   H49   1.111061 S    
C47   C48   1.510742 S    
P8    O23   1.541979 D    
O11   C2    1.408846 S    
C11   O22   1.414339 S    
C32   C33   1.427999 A    
C4    C76   1.530158 S    
C31   C32   1.423299 A    
H27   C16   1.111313 S    
N1    C53   1.354993 A    
C71   H63   1.103026 S    
C49   C50   1.367842 D    
P7    C56   1.884613 S    
C55   C59   1.418731 A    
O14   Ba2   2.777491 S    
C69   H59   1.084515 S    
C21   C23   1.403481 A    
C65   H48   1.110919 S    
C39   H33   1.083850 S    
C35   H32   1.070395 S    
C36   C39   1.404730 A    
C3    H6    1.109822 S    
N3    N4    1.336893 A    
C62   H43   1.097079 S    
Ba1   O13   2.805095 S    
P8    C27   1.880180 S    
O6    C10   1.413798 S    
C57   C58   1.399202 A    
C45   H36   1.082056 S    
C15   C16   1.529936 S    
P2    O20   1.555952 S    
C48   C49   1.522367 S    
C30   C35   1.409573 A    
C63   H45   1.078895 S    
Ba1   O20   2.954960 S    
C75   H71   1.075829 S    
P5    O19   1.760585 S    
C68   H56   1.107243 S    
P1    O5    1.773678 S    
C73   O30   1.221649 D    
P4    C29   1.915904 S    
C10   C61   1.501062 S    
C47   H40   1.085351 S    
C68   H58   1.103491 S    
C22   C26   1.412271 A    
P3    O8    1.731034 S    
C18   C19   1.408035 A    
C74   H70   1.103481 S    
C24   C27   1.414423 A    
C1    C10   1.541096 S    
O16   P7    1.796219 S    
C15   O24   1.405953 S    
C72   H65   1.100060 S    
C61   H41   1.083580 S    
C40   C41   1.403992 A    
C11   C68   1.532186 S    
C5    H9    1.108200 S    
O1    Ba1   2.843105 S    
C76   H72   1.109733 S    
C6    C62   1.516749 S    
C66   H51   1.110242 S    
P3    O9    1.545907 D    
C55   C56   1.404838 A    
C15   H25   1.103898 S    
C11   C67   1.537469 S    
C33   C46   1.445161 A    
C64   H46   1.084779 S    
P1    C46   1.910082 S    
C15   H26   1.110742 S    
C61   O25   1.218781 D    
O13   Ba2   2.951922 S    
C74   H68   1.109951 S    
C17   C22   1.420113 A    
C41   C43   1.403081 A    
P6    C44   1.864737 S    
P5    C57   1.890206 S    
C68   H57   1.101404 S    
P1    Ba1   3.417722 S    
C7    H12   1.114491 S    
C58   C59   1.410278 A    
C38   C41   1.407112 A    
Ba2   O20   2.788603 S    
C13   H22   1.108712 S    
C16   C71   1.525643 S    
C50   C54   1.498478 S    
C37   C38   1.419473 A    
C1    C66   1.527979 S    
C67   H53   1.112816 S    
C71   H62   1.110176 S    
C72   H66   1.109153 S    
C74   H69   1.110110 S    
C7    C63   1.509770 S    
C49   C74   1.519187 S    
C17   C18   1.408027 A    
O7    Ba1   2.826042 S    
C5    H10   1.111243 S    
C1    H2    1.110559 S    
C20   C21   1.403935 A    
C44   C45   1.406865 A    
C33   C34   1.419113 A    
C50   C51   1.505810 S    
P4    O15   1.755320 S    
C62   H42   1.098805 S    
C7    C64   1.513077 S    
C65   H47   1.110509 S    
C14   H24   1.110710 S    
C27   C28   1.414897 A    
C25   C30   1.430574 A    
P4    Ba2   3.418349 S    
O3    Ba1   2.778159 S    
C76   H73   1.111401 S    
