data_mof_unit_29502.cif
_audit_creation_date              2013-03-05T16:10:47-0500
_audit_creation_method            fapswitch 2.2
_symmetry_space_group_name_H-M    P1
_symmetry_Int_Tables_number       1
_space_group_crystal_system       triclinic
_cell_length_a                    22.33561
_cell_length_b                    7.084594
_cell_length_c                    19.600185
_cell_angle_alpha                 90.5727
_cell_angle_beta                  99.174427
_cell_angle_gamma                 90.29046
_cell_volume                      3061.60969448

loop_
_atom_site_label
_atom_site_type_symbol
_atom_site_description
_atom_site_fract_x
_atom_site_fract_y
_atom_site_fract_z
_atom_type_partial_charge
O1    O     O_R   0.443980 0.494320 0.557430 -0.583108
O2    O     O_R   0.556020 0.994320 0.442570 -0.570945
O3    O     O_R   0.441210 0.822520 0.414610 -0.589218
O4    O     O_R   0.558790 0.322520 0.585390 -0.600387
C1    C     C_R   0.426366 0.653441 0.389541 1.081269
C2    C     C_R   0.573493 0.156339 0.610529 1.066289
O5    O     O_R   0.436920 0.823940 0.555180 -0.573719
O6    O     O_R   0.563080 0.323940 0.444820 -0.570190
O7    O     O_R   0.551700 0.995760 0.584140 -0.565873
O8    O     O_R   0.448300 0.495760 0.415860 -0.590272
C3    C     C_R   0.421549 0.655636 0.574825 0.975377
C4    C     C_R   0.578289 0.155225 0.424950 0.963889
O9    O     O_3   0.537660 0.661290 0.509340 -0.268537
O10   O     O_3   0.462340 0.161290 0.490660 -0.281879
V1    V     V_3+5 0.493010 0.935560 0.498270 1.273941
V2    V     V_3+5 0.506990 0.435560 0.501730 1.272376
C5    C     C_R   0.756596 0.932685 0.213686 0.210175
C6    C     C_R   0.256521 0.472445 0.802441 0.191224
C7    C     C_R   0.796220 0.086516 0.208271 -0.134246
C8    C     C_R   0.204054 0.585791 0.791894 -0.101484
C9    C     C_R   0.790320 0.253372 0.245573 -0.324669
C10   C     C_R   0.195998 0.714212 0.737237 -0.380120
H1    H     H_    0.820039 0.370774 0.239449 0.205211
H2    H     H_    0.154876 0.796614 0.730081 0.171884
C11   C     C_R   0.746450 0.270296 0.290058 0.613927
C12   C     C_R   0.240145 0.736051 0.692847 0.586568
C13   C     C_R   0.705856 0.119742 0.294117 -0.244739
C14   C     C_R   0.291932 0.620245 0.703024 -0.238274
C15   C     C_R   0.709754 0.953321 0.254526 0.373897
C16   C     C_R   0.299672 0.487328 0.756861 0.396879
C17   C     C_1   0.841700 0.079132 0.162414 0.244215
C18   C     C_1   0.158702 0.577013 0.837924 0.217903
C19   C     C_1   0.660955 0.134289 0.340689 0.246400
C20   C     C_1   0.337549 0.635956 0.657410 0.242232
C21   C     C_1   0.623506 0.145133 0.379330 -0.192477
C22   C     C_1   0.375673 0.646508 0.619628 -0.206253
C23   C     C_1   0.879310 0.071430 0.123950 -0.148919
C24   C     C_1   0.121071 0.569702 0.876395 -0.164357
C25   C     C_R   0.627414 0.191909 0.802437 0.479152
C26   C     C_R   0.374776 0.514064 0.203603 0.475602
H3    H     H_    0.707178 0.163291 0.917110 0.205725
H4    H     H_    0.295485 0.495934 0.087856 0.219508
C27   C     C_R   0.613103 0.151355 0.678121 -0.362161
C28   C     C_R   0.387383 0.634019 0.321578 -0.365201
C29   C     C_R   0.906730 0.023668 0.764887 -0.318094
C30   C     C_R   0.090809 0.599040 0.235447 -0.322658
C31   C     C_R   0.870450 0.983574 0.701806 0.326740
C32   C     C_R   0.124714 0.590576 0.301449 0.322869
C33   C     C_R   0.806748 0.997883 0.695211 0.209416
C34   C     C_R   0.188460 0.574565 0.309829 0.207534
C35   C     C_R   0.779345 0.067959 0.751726 -0.060461
C36   C     C_R   0.218883 0.578494 0.250838 -0.067251
C37   C     C_R   0.817169 0.084910 0.818450 -0.081069
C38   C     C_R   0.182502 0.568579 0.183109 -0.078422
C39   C     C_R   0.715458 0.113695 0.745439 0.118420
C40   C     C_R   0.284255 0.585064 0.256496 0.123734
C41   C     C_R   0.689951 0.151146 0.806002 -0.131513
C42   C     C_R   0.311173 0.535685 0.198155 -0.138023
C43   C     C_R   0.726636 0.145716 0.870215 -0.196694
C44   C     C_R   0.274898 0.517972 0.133760 -0.195973
C45   C     C_R   0.788599 0.116966 0.877059 0.341385
C46   C     C_R   0.212647 0.545346 0.125134 0.334496
C47   C     C_R   0.676051 0.131342 0.681395 -0.167960
C48   C     C_R   0.324007 0.645721 0.316799 -0.195965
C49   C     C_R   0.588265 0.177509 0.738959 0.213344
C50   C     C_R   0.413046 0.567545 0.264855 0.215859
C51   C     C_R   0.881710 0.063969 0.824023 -0.203042
C52   C     C_R   0.117627 0.578985 0.176328 -0.201197
H5    H     H_    0.692872 0.135917 0.632995 0.175584
H6    H     H_    0.307102 0.706459 0.360529 0.180310
H7    H     H_    0.955438 0.006774 0.769247 0.164578
H8    H     H_    0.041811 0.607726 0.230163 0.171138
O11   O     O_R   0.051730 0.724670 0.084120 -0.580930
O12   O     O_R   0.948270 0.224670 0.915880 -0.592165
O13   O     O_R   0.063080 0.393540 0.944820 -0.567229
O14   O     O_R   0.936920 0.893540 0.055180 -0.560032
C53   C     C_R   0.076312 0.561343 0.922632 1.032510
C54   C     C_R   0.923978 0.061944 0.077676 1.035182
O15   O     O_R   0.058800 0.395030 0.085390 -0.595225
O16   O     O_R   0.941200 0.895030 0.914610 -0.584748
O17   O     O_R   0.943980 0.223310 0.057440 -0.575748
O18   O     O_R   0.056020 0.723310 0.942560 -0.578275
C55   C     C_R   0.074628 0.565297 0.109912 1.013718
C56   C     C_R   0.925337 0.062666 0.890070 1.007923
O19   O     O_3   0.962360 0.556290 0.990650 -0.265476
O20   O     O_3   0.037640 0.056290 0.009350 -0.268385
V3    V     V_3+5 0.006980 0.281990 0.001730 1.270724
V4    V     V_3+5 0.993020 0.781990 0.998270 1.279730
O21   O     O_3   0.670187 0.804849 0.259095 -0.560038
C57   C     C_3   0.615786 0.838078 0.213348 0.118473
H9    H     H_    0.623909 0.880221 0.160927 0.095044
H10   H     H_    0.588098 0.946900 0.234757 0.105856
H11   H     H_    0.589021 0.705105 0.206843 0.204389
O22   O     O_3   0.351060 0.376216 0.766401 -0.545344
C58   C     C_3   0.336638 0.200461 0.733238 0.039266
H12   H     H_    0.378196 0.113489 0.738957 0.209228
H13   H     H_    0.320413 0.217319 0.676907 0.092953
H14   H     H_    0.302597 0.121665 0.757663 0.105509
N1    N     N_R   0.770899 0.919898 0.634120 0.239062
O23   O     O_R   0.734349 0.778704 0.638901 -0.378074
O24   O     O_R   0.777042 0.982670 0.573404 -0.360220
N2    N     N_R   0.220550 0.533793 0.377409 0.239066
O25   O     O_R   0.251044 0.377908 0.387992 -0.374969
O26   O     O_R   0.217184 0.647847 0.429129 -0.340296
N3    N     N_R   0.899121 0.914586 0.645853 0.261974
O27   O     O_R   0.950756 0.986220 0.635884 -0.357650
O28   O     O_R   0.879391 0.761157 0.612438 -0.307268
N4    N     N_R   0.092987 0.586119 0.359768 0.264474
O29   O     O_R   0.044937 0.689109 0.360025 -0.352528
O30   O     O_R   0.105822 0.458572 0.407087 -0.293544
N5    N     N_R   0.820043 0.104901 0.945771 0.189450
O31   O     O_R   0.822270 0.940436 0.974900 -0.407238
O32   O     O_R   0.823983 0.256083 0.984484 -0.401859
N6    N     N_R   0.182135 0.557801 0.055871 0.193259
O33   O     O_R   0.170136 0.725126 0.030806 -0.405798
O34   O     O_R   0.186816 0.417767 0.013640 -0.376794
N7    N     N_R   0.763910 0.756189 0.178455 0.260665
O35   O     O_R   0.817710 0.696205 0.171988 -0.412651
O36   O     O_R   0.717326 0.649939 0.155111 -0.345188
N8    N     N_R   0.266489 0.342352 0.859012 0.258707
O37   O     O_R   0.222460 0.235903 0.872983 -0.368161
O38   O     O_R   0.320472 0.322035 0.894434 -0.299357
O39   O     O_3   0.738338 0.436714 0.325784 -0.578250
C59   C     C_3   0.794139 0.517061 0.356894 -0.028608
H15   H     H_    0.814006 0.603747 0.319144 0.139676
H16   H     H_    0.826933 0.408888 0.380449 0.120568
H17   H     H_    0.785432 0.613524 0.399102 0.186799
O40   O     O_3   0.234434 0.859998 0.637103 -0.605478
C60   C     C_3   0.192600 0.006769 0.641046 -0.095887
H18   H     H_    0.199971 0.078161 0.692563 0.090890
H19   H     H_    0.145340 0.953025 0.627355 0.176321
H20   H     H_    0.199338 0.115015 0.602416 0.188729
N9    N     N_R   0.523523 0.189491 0.736365 0.245323
O41   O     O_R   0.487654 0.069369 0.699135 -0.423331
O42   O     O_R   0.500110 0.313701 0.773526 -0.334195
N10   N     N_R   0.478056 0.559152 0.268877 0.239711
O43   O     O_R   0.512457 0.692187 0.300586 -0.430670
O44   O     O_R   0.503355 0.420266 0.240487 -0.395240
O45   O     O_3   0.603409 0.231529 0.861883 -0.593317
C61   C     C_3   0.611352 0.426325 0.877189 -0.021278
H21   H     H_    0.660054 0.464143 0.892298 0.110777
H22   H     H_    0.588108 0.460937 0.921648 0.184828
H23   H     H_    0.591019 0.515336 0.833088 0.141979
O46   O     O_3   0.400321 0.452990 0.147412 -0.592711
C62   C     C_3   0.395599 0.254068 0.142839 -0.019854
H24   H     H_    0.421046 0.204044 0.102015 0.183901
H25   H     H_    0.347726 0.206920 0.127947 0.116913
H26   H     H_    0.415743 0.185513 0.192011 0.126727

loop_
_geom_bond_atom_site_label_1
_geom_bond_atom_site_label_2
_geom_bond_distance
_ccdc_geom_bond_type
C13   C15   1.415677 A    
C39   C41   1.419494 A    
C5    C15   1.422348 A    
C28   C50   1.407799 A    
C58   H12   1.108065 S    
O1    C3    1.313727 A    
C61   H23   1.113416 S    
O16   C56   1.314800 A    
C7    C17   1.460565 S    
O40   C60   1.411216 S    
C2    O7    1.304228 A    
C15   O21   1.383162 S    
N6    O33   1.300500 A    
C58   H14   1.111761 S    
C27   C47   1.405131 A    
O39   C59   1.411656 S    
C31   C33   1.412263 A    
C13   C19   1.463125 S    
O5    C3    1.317215 A    
N3    O28   1.301361 A    
C3    C22   1.453488 S    
C7    C9    1.401535 A    
O14   C54   1.317201 A    
C46   N6    1.422383 S    
N7    O36   1.300731 A    
O20   V4    2.172497 S    
C41   C43   1.389007 A    
C38   C52   1.436195 A    
C42   C44   1.391041 A    
C25   C41   1.418692 A    
N4    O29   1.301458 A    
C44   C46   1.388493 A    
C29   C31   1.391817 A    
C5    C7    1.415878 A    
C37   C45   1.417186 A    
C47   H5    1.075306 S    
C36   C38   1.442579 A    
C14   C16   1.411888 A    
C33   C35   1.434019 A    
C39   C47   1.420570 A    
C29   C51   1.392424 A    
C34   C36   1.431906 A    
C40   C48   1.421746 A    
C6    C16   1.418997 A    
C48   H6    1.076957 S    
O12   V3    1.998297 S    
O14   V4    1.969000 S    
C6    C8    1.412964 A    
C5    N7    1.444921 S    
C60   H20   1.109423 S    
C32   C34   1.412280 A    
O2    C4    1.312640 A    
C51   C56   1.491134 S    
O6    V2    1.969035 S    
C26   C50   1.405667 A    
C25   C49   1.404509 A    
O22   C58   1.410547 S    
O15   V3    2.007217 S    
C62   H25   1.111312 S    
N8    O38   1.301296 A    
C62   H24   1.109193 S    
C25   O45   1.384935 S    
O19   V3    2.185381 S    
C30   C32   1.392916 A    
C43   C45   1.385318 A    
C26   C42   1.416728 A    
C27   C49   1.404142 A    
C61   H21   1.111542 S    
H3    C43   1.083921 S    
N10   O44   1.300791 A    
H4    C44   1.084042 S    
O20   V3    1.741066 S    
N10   O43   1.301389 A    
C38   C46   1.418808 A    
C35   C39   1.451122 A    
C31   N3    1.438088 S    
C40   C42   1.415902 A    
C28   C48   1.406590 A    
C17   C23   1.215999 T    
C35   C37   1.442911 A    
O4    V2    2.024703 S    
O11   V4    2.007814 S    
C30   C52   1.393040 A    
C33   N1    1.434112 S    
O13   C53   1.318152 A    
C57   H10   1.110858 S    
N1    O23   1.301473 A    
O6    C4    1.316342 A    
N5    O32   1.300844 A    
O1    V2    1.957719 S    
C12   O40   1.398930 S    
C4    C21   1.453303 S    
N2    O26   1.301814 A    
O2    V1    1.959323 S    
C11   O39   1.392601 S    
O17   V3    1.959151 S    
C59   H17   1.109330 S    
C50   N10   1.443118 S    
O13   V3    1.972848 S    
N1    O24   1.301862 A    
C1    C28   1.475388 S    
C8    C10   1.402674 A    
C34   N2    1.434825 S    
C18   C24   1.216604 T    
C2    C27   1.471943 S    
C9    H1    1.081038 S    
N9    O41   1.301082 A    
C10   H2    1.081713 S    
O4    C2    1.304083 A    
C45   N5    1.419716 S    
C6    N8    1.439531 S    
C62   H26   1.113773 S    
O3    V1    2.007021 S    
N8    O37   1.301277 A    
C57   H11   1.108464 S    
C59   H16   1.114409 S    
C60   H18   1.112862 S    
C8    C18   1.461458 S    
O19   V4    1.731923 S    
C9    C11   1.416439 A    
N5    O31   1.300345 A    
C52   C55   1.491392 S    
C30   H8    1.084845 S    
O12   C56   1.317340 A    
O46   C62   1.413571 S    
O3    C1    1.310909 A    
N6    O34   1.300969 A    
O45   C61   1.413602 S    
C58   H13   1.113598 S    
C61   H22   1.109189 S    
C24   C53   1.453827 S    
C11   C13   1.407471 A    
N3    O27   1.301432 A    
C12   C14   1.410732 A    
C26   O46   1.385325 S    
O7    V1    2.002359 S    
C1    O8    1.300200 A    
C16   O22   1.384086 S    
O8    V2    2.012333 S    
N7    O35   1.301272 A    
O15   C55   1.319464 A    
C54   O17   1.313099 A    
C57   H9    1.114805 S    
C32   N4    1.438246 S    
C53   O18   1.314320 A    
O18   V4    1.957550 S    
O5    V1    1.972887 S    
C19   C21   1.216815 T    
N4    O30   1.301352 A    
C20   C22   1.216815 T    
N2    O25   1.301434 A    
C37   C51   1.436788 A    
C14   C20   1.463261 S    
O16   V4    2.024902 S    
C10   C12   1.424049 A    
O9    V2    1.732199 S    
N9    O42   1.300625 A    
O10   V1    1.741341 S    
C29   H7    1.084925 S    
O21   C57   1.412640 S    
C23   C54   1.452755 S    
O11   C55   1.314079 A    
C49   N9    1.441790 S    
C36   C40   1.447079 A    
C59   H15   1.110197 S    
C60   H19   1.111207 S    
