data_mof_unit_20698.cif
_audit_creation_date              2012-10-26T20:17:14-0400
_audit_creation_method            fapswitch 2.2
_symmetry_space_group_name_H-M    P1
_symmetry_Int_Tables_number       1
_space_group_crystal_system       triclinic
_cell_length_a                    10.640606
_cell_length_b                    11.043315
_cell_length_c                    9.877117
_cell_angle_alpha                 111.365424
_cell_angle_beta                  98.141944
_cell_angle_gamma                 91.454183
_cell_volume                      1066.24105609

loop_
_atom_site_label
_atom_site_type_symbol
_atom_type_description
_atom_site_fract_x
_atom_site_fract_y
_atom_site_fract_z
_atom_type_partial_charge
C1    C     C_R   0.490718 0.254067 0.440434 0.543611
C2    C     C_3   0.123104 0.498743 0.501605 0.025703
C3    C     C_3   0.976910 0.582164 0.632733 -0.115156
C4    C     C_3   0.022463 0.419869 0.366248 -0.113925
C5    C     C_2   0.485774 0.114355 0.406954 -0.139258
C6    C     C_2   0.514527 0.885637 0.593042 -0.135768
C7    C     C_2   0.502542 0.069656 0.516237 -0.163795
C8    C     C_2   0.498030 0.930339 0.483750 -0.166644
C9    C     C_2   0.506936 0.514547 0.082569 0.124738
C10   C     C_2   0.486215 0.493026 0.919660 0.119681
C11   C     C_3   0.012549 0.381930 0.795101 -0.296044
C12   C     C_R   0.509369 0.745931 0.559565 0.542506
C13   C     C_3   0.977720 0.615896 0.197289 -0.291940
C14   C     C_3   0.690596 0.732969 0.942095 -0.047738
C15   C     C_3   0.272003 0.304977 0.069961 -0.036908
C16   C     C_R   0.259542 0.497845 0.500522 0.541618
C17   C     C_R   0.740340 0.503015 0.499529 0.539794
C18   C     C_3   0.048920 0.458551 0.601785 0.148022
C19   C     C_3   0.950182 0.543401 0.397261 0.147521
C20   C     C_3   0.947831 0.378795 0.469243 -0.135031
C21   C     C_3   0.051553 0.623253 0.529654 -0.144771
C22   C     C_3   0.876493 0.503135 0.497799 0.026846
Cu1   Cu    Cu3+1 0.522260 0.521810 0.644920 0.962657
Cu2   Cu    Cu3+1 0.477740 0.478190 0.355080 0.966790
H1    H     H_    0.903734 0.279725 0.446486 0.103461
H2    H     H_    0.570274 0.597260 0.158422 0.128158
H3    H     H_    0.161987 0.337278 0.675294 0.249070
H4    H     H_    0.062322 0.352107 0.882578 0.116884
H5    H     H_    0.942296 0.300641 0.720655 0.144582
H6    H     H_    0.961854 0.469258 0.848045 0.175000
H7    H     H_    0.835211 0.665332 0.326848 0.247848
H8    H     H_    0.923384 0.644325 0.110617 0.163753
H9    H     H_    0.025660 0.527120 0.142443 0.145253
H10   H     H_    0.050459 0.696721 0.266723 0.129296
H11   H     H_    0.603352 0.787199 0.952031 0.123577
H12   H     H_    0.095545 0.722274 0.552011 0.104246
H13   H     H_    0.729673 0.726571 0.841796 0.156954
H14   H     H_    0.763472 0.790612 0.037895 0.077104
H15   H     H_    0.217839 0.393379 0.096565 0.113266
H16   H     H_    0.279366 0.266332 0.159301 0.159492
H17   H     H_    0.216684 0.228392 0.970741 0.083923
H18   H     H_    0.956552 0.647227 0.741745 0.107418
H19   H     H_    0.042617 0.354656 0.257235 0.094570
H20   H     H_    0.480907 0.863902 0.369065 0.151171
H21   H     H_    0.519763 0.136093 0.630919 0.170183
H22   H     H_    0.531727 0.952328 0.707543 0.105638
H23   H     H_    0.468493 0.047652 0.292459 0.099366
H24   H     H_    0.404145 0.429997 0.848961 0.135138
N1    N     N_2   0.444270 0.445410 0.137360 -0.067902
N2    N     N_2   0.555730 0.554590 0.862640 -0.068293
N3    N     N_2   0.103938 0.411468 0.713863 -0.508421
N4    N     N_2   0.891587 0.590040 0.286120 -0.483152
O1    O     O_R   0.511880 0.332340 0.577400 -0.504964
O2    O     O_3   0.392687 0.328292 0.038083 -0.506137
O3    O     O_R   0.488120 0.667660 0.422600 -0.521465
O4    O     O_R   0.474280 0.295500 0.332650 -0.483051
O5    O     O_R   0.525720 0.704500 0.667350 -0.521899
O6    O     O_R   0.335640 0.518390 0.622350 -0.503164
O7    O     O_R   0.664360 0.481610 0.377650 -0.484472
O8    O     O_R   0.298050 0.481550 0.377590 -0.531463
O9    O     O_R   0.701950 0.518450 0.622410 -0.492707
O10   O     O_3   0.669434 0.608452 0.946352 -0.510772

loop_
_geom_bond_atom_site_label_1
_geom_bond_atom_site_label_2
_ccdc_geom_bond_type
C18   N3    S    
Cu1   O6    S    
C2    C4    S    
Cu1   Cu2   S    
C3    H18   S    
C13   H9    S    
C4    H19   S    
Cu2   O4    S    
C13   N4    S    
C2    C16   S    
C9    C10   S    
C13   H8    S    
C17   C22   S    
Cu1   O9    S    
H7    N4    S    
Cu2   O8    S    
C2    C21   S    
C13   H10   S    
C21   H12   S    
C16   O6    A    
Cu2   O3    S    
C6    C12   S    
C5    H23   S    
C15   H15   S    
Cu1   N2    S    
C11   H4    S    
C17   O7    A    
Cu2   O7    S    
C1    C5    S    
C12   O5    A    
C7    H21   S    
C19   C21   S    
C1    O4    A    
C20   C22   S    
C9    H2    S    
Cu1   O1    S    
C18   C20   S    
C4    C20   S    
C10   H24   S    
N2    O10   S    
C15   H16   S    
C3    C21   S    
C12   O3    A    
C11   N3    S    
C20   H1    S    
C15   H17   S    
C14   H14   S    
C10   N2    D    
C15   O2    S    
C8    H20   S    
C7    C8    S    
C19   C22   S    
C9    N1    D    
C11   H5    S    
C3    C18   S    
C5    C7    D    
C16   O8    A    
Cu2   N1    S    
Cu1   O5    S    
C1    O1    A    
C3    C22   S    
C6    C8    D    
C6    H22   S    
C17   O9    A    
C4    C19   S    
C19   N4    S    
C14   H11   S    
N1    O2    S    
C11   H6    S    
H3    N3    S    
C2    C18   S    
C14   H13   S    
C14   O10   S    
