data_mof_unit_56360.cif
_audit_creation_date              2013-03-05T15:57:39-0500
_audit_creation_method            fapswitch 2.2
_symmetry_space_group_name_H-M    P1
_symmetry_Int_Tables_number       1
_space_group_crystal_system       triclinic
_cell_length_a                    19.628518
_cell_length_b                    17.755037
_cell_length_c                    12.602186
_cell_angle_alpha                 89.60906
_cell_angle_beta                  98.809096
_cell_angle_gamma                 90.322897
_cell_volume                      4339.97097352

loop_
_atom_site_label
_atom_site_type_symbol
_atom_site_description
_atom_site_fract_x
_atom_site_fract_y
_atom_site_fract_z
_atom_type_partial_charge
O1    O     O_R   0.448200 0.076800 0.373930 -0.611898
O2    O     O_R   0.448200 0.923200 0.373930 -0.608230
O3    O     O_R   0.948200 0.576800 0.373930 -0.613825
O4    O     O_R   0.948200 0.423200 0.373930 -0.600663
O5    O     O_R   0.414750 0.076790 0.542400 -0.629681
O6    O     O_R   0.414750 0.923210 0.542400 -0.607814
O7    O     O_R   0.914750 0.576790 0.542400 -0.620717
O8    O     O_R   0.914750 0.423210 0.542400 -0.622469
C1    C     C_R   0.411542 0.103014 0.443962 0.859534
C2    C     C_R   0.409296 0.899641 0.442745 0.877615
C3    C     C_R   0.911253 0.602796 0.443752 0.863463
C4    C     C_R   0.912238 0.396069 0.445093 0.880334
Zn1   Zn    Zn3+2 0.522330 1.000000 0.387520 0.983071
Zn2   Zn    Zn3+2 0.022330 0.500000 0.387520 0.976723
Zn3   Zn    Zn3+2 0.477660 0.000000 0.612480 0.938607
Zn4   Zn    Zn3+2 0.977660 0.500000 0.612480 0.932887
O9    O     O_R   0.585240 0.923200 0.457600 -0.606795
O10   O     O_R   0.585240 0.076800 0.457600 -0.622857
O11   O     O_R   0.085240 0.423200 0.457600 -0.599213
O12   O     O_R   0.085240 0.576800 0.457600 -0.642814
O13   O     O_R   0.551780 0.923190 0.626070 -0.629936
O14   O     O_R   0.551780 0.076810 0.626070 -0.636538
O15   O     O_R   0.051780 0.423190 0.626070 -0.642355
O16   O     O_R   0.051780 0.576810 0.626070 -0.627202
C5    C     C_R   0.589205 0.897644 0.556924 0.896189
C6    C     C_R   0.591386 0.100716 0.557548 0.873089
C7    C     C_R   0.089539 0.397943 0.557145 0.890109
C8    C     C_R   0.088200 0.603197 0.555865 0.867766
C9    C     C_R   0.747262 0.185016 0.731627 -0.103063
C10   C     C_R   0.726760 0.785036 0.727581 -0.100371
C11   C     C_R   0.160127 0.787405 0.673005 -0.111067
C12   C     C_R   0.228458 0.286947 0.728475 -0.094284
H1    H     H_    0.768689 0.189934 0.815814 0.225709
H2    H     H_    0.748002 0.777940 0.811602 0.221925
H3    H     H_    0.147609 0.830555 0.727216 0.222034
H4    H     H_    0.249740 0.280044 0.812511 0.221607
C13   C     C_R   0.651625 0.148806 0.595452 -0.199051
C14   C     C_R   0.640727 0.839935 0.591994 -0.196823
C15   C     C_R   0.133175 0.667415 0.586341 -0.178331
C16   C     C_R   0.141934 0.341118 0.592699 -0.197773
C17   C     C_R   0.384552 0.779504 0.350404 -0.220502
C18   C     C_R   0.326886 0.157542 0.300737 -0.232900
C19   C     C_R   0.840678 0.321910 0.305155 -0.224530
C20   C     C_R   0.825952 0.656232 0.300077 -0.232080
C21   C     C_R   0.360492 0.706673 0.360122 -0.159025
C22   C     C_R   0.260691 0.185144 0.272631 -0.160730
C23   C     C_R   0.796176 0.262652 0.273008 -0.157844
C24   C     C_R   0.759619 0.683506 0.271697 -0.164643
C25   C     C_R   0.314983 0.690420 0.432517 0.293688
C26   C     C_R   0.224700 0.213024 0.351370 0.310155
C27   C     C_R   0.772621 0.216005 0.349573 0.309062
C28   C     C_R   0.723372 0.711431 0.350157 0.317975
C29   C     C_R   0.282936 0.751185 0.480557 -0.014817
C30   C     C_R   0.260774 0.226392 0.457516 -0.013703
C31   C     C_R   0.791130 0.232590 0.460686 -0.007871
C32   C     C_R   0.759192 0.724856 0.456415 -0.013182
C33   C     C_R   0.307207 0.825124 0.468781 0.017198
C34   C     C_R   0.328893 0.199904 0.484413 0.012650
C35   C     C_R   0.846799 0.281873 0.491750 0.009855
C36   C     C_R   0.827426 0.698805 0.483422 0.012233
C37   C     C_R   0.755170 0.204376 0.541929 0.030713
C38   C     C_R   0.729814 0.761694 0.537786 0.014762
C39   C     C_R   0.228256 0.741652 0.540528 0.027773
C40   C     C_R   0.231588 0.263446 0.538827 0.013995
C41   C     C_R   0.784694 0.210053 0.651561 0.016524
C42   C     C_R   0.762015 0.758772 0.646518 0.005688
C43   C     C_R   0.208917 0.800890 0.604722 0.015753
C44   C     C_R   0.263759 0.260478 0.647511 0.009946
C45   C     C_R   0.233251 0.873923 0.591754 0.443713
C46   C     C_R   0.331667 0.235421 0.672348 0.445118
C47   C     C_R   0.849907 0.243354 0.679391 0.444917
C48   C     C_R   0.830012 0.734239 0.671274 0.446424
C49   C     C_R   0.278322 0.886056 0.517842 -0.266154
C50   C     C_R   0.365369 0.211704 0.588758 -0.260974
C51   C     C_R   0.880297 0.279585 0.599173 -0.264471
C52   C     C_R   0.863705 0.710989 0.587591 -0.254442
C53   C     C_R   0.687747 0.177357 0.516712 -0.213315
C54   C     C_R   0.673233 0.808264 0.512437 -0.150769
C55   C     C_R   0.186821 0.677943 0.527693 -0.189002
C56   C     C_R   0.174964 0.309963 0.513368 -0.142139
C57   C     C_R   0.680494 0.156425 0.705078 0.394319
C58   C     C_R   0.663753 0.821334 0.701071 0.395783
C59   C     C_R   0.121784 0.721069 0.664720 0.411814
C60   C     C_R   0.165231 0.322945 0.701881 0.397463
C61   C     C_R   0.362747 0.836896 0.412620 -0.088670
C62   C     C_R   0.358359 0.158630 0.408089 -0.090708
C63   C     C_R   0.867133 0.331534 0.414073 -0.085073
C64   C     C_R   0.857393 0.657750 0.407426 -0.088801
H5    H     H_    0.661870 0.179116 0.434683 0.196272
H6    H     H_    0.657262 0.824516 0.429821 0.223663
H7    H     H_    0.192594 0.638437 0.465067 0.195224
H8    H     H_    0.159179 0.326317 0.430736 0.222474
H9    H     H_    0.426522 0.788726 0.305005 0.202432
H10   H     H_    0.349990 0.127685 0.240618 0.192255
H11   H     H_    0.856071 0.358902 0.244285 0.195584
H12   H     H_    0.849304 0.626458 0.240152 0.190044
H13   H     H_    0.383762 0.661614 0.320807 0.208380
H14   H     H_    0.234602 0.176588 0.191434 0.198840
H15   H     H_    0.781570 0.251849 0.188081 0.203155
H16   H     H_    0.733686 0.674800 0.190447 0.197329
H17   H     H_    0.292308 0.943531 0.501004 0.145328
H18   H     H_    0.420048 0.200292 0.606780 0.158111
H19   H     H_    0.930451 0.305228 0.621655 0.163560
H20   H     H_    0.918246 0.700234 0.605195 0.142382
C65   C     C_R   0.639475 0.974881 0.130318 -0.093285
C66   C     C_R   0.140490 0.481249 0.129717 -0.148096
H21   H     H_    0.693272 0.963933 0.126127 0.229589
H22   H     H_    0.194754 0.473752 0.125255 0.231689
N1    N     N_R   0.552340 1.000000 0.237260 -0.170817
N2    N     N_R   0.052340 0.500000 0.237260 -0.164844
C67   C     C_R   0.379230 0.003489 0.762263 -0.056126
C68   C     C_R   0.879091 0.500325 0.762256 -0.068536
C69   C     C_R   0.352688 0.995363 0.857526 -0.190904
C70   C     C_R   0.852904 0.489995 0.857455 -0.202371
C71   C     C_R   0.397401 0.984450 0.953390 0.451860
C72   C     C_R   0.897987 0.479875 0.953107 0.465698
C73   C     C_R   0.470096 0.990563 0.953874 -0.083525
C74   C     C_R   0.970425 0.489084 0.953679 -0.087105
C75   C     C_R   0.493847 0.994737 0.853617 0.104775
C76   C     C_R   0.994007 0.495266 0.853456 0.119251
C77   C     C_R   0.520129 0.992080 0.047562 -0.080334
C78   C     C_R   0.020372 0.491751 0.047411 -0.072066
C79   C     C_R   0.590985 0.982687 0.038491 -0.011780
C80   C     C_R   0.091535 0.486036 0.038103 0.009336
C81   C     C_R   0.612949 0.983173 0.938359 0.513309
C82   C     C_R   0.113387 0.487276 0.937870 0.470517
C83   C     C_R   0.564117 0.992651 0.847469 -0.213498
C84   C     C_R   0.064286 0.495153 0.847077 -0.218782
C85   C     C_R   0.503442 0.006023 0.150001 -0.095142
C86   C     C_R   0.003139 0.503658 0.150084 -0.096222
C87   C     C_R   0.619286 0.982379 0.229477 0.596348
C88   C     C_R   0.120350 0.487406 0.229037 0.544593
N3    N     N_R   0.448170 1.000000 0.762060 -0.123092
N4    N     N_R   0.948170 0.500000 0.762060 -0.124716
H23   H     H_    0.452427 0.022010 0.162669 0.195471
H24   H     H_    0.951509 0.516773 0.162996 0.193202
H25   H     H_    0.344803 0.009101 0.687176 0.156199
H26   H     H_    0.844258 0.504461 0.687161 0.171513
H27   H     H_    0.297404 0.992790 0.855932 0.202626
H28   H     H_    0.797760 0.484806 0.855858 0.183853
H29   H     H_    0.582279 0.997806 0.772429 0.228168
H30   H     H_    0.082303 0.500076 0.771937 0.219558
O17   O     O_3   0.645777 0.137139 0.788269 -0.756258
H31   H     H_    0.597604 0.154441 0.768706 0.348247
O18   O     O_3   0.628949 0.840803 0.783510 -0.753347
H32   H     H_    0.579330 0.831167 0.758897 0.358414
O19   O     O_3   0.071196 0.714111 0.728724 -0.741905
H33   H     H_    0.028925 0.696063 0.683353 0.332890
O20   O     O_3   0.130497 0.342613 0.784332 -0.748396
H34   H     H_    0.080922 0.332407 0.760147 0.347112
O21   O     O_3   0.682458 0.977772 0.931351 -0.712741
H35   H     H_    0.688983 0.980089 0.854889 0.368246
O22   O     O_3   0.182985 0.483951 0.930622 -0.729733
H36   H     H_    0.189341 0.486090 0.854077 0.360865
O23   O     O_3   0.368175 0.960568 0.040396 -0.767110
H37   H     H_    0.398555 0.921128 0.077911 0.339110
O24   O     O_3   0.869647 0.453384 0.039588 -0.779512
H38   H     H_    0.901399 0.414753 0.076091 0.335088
O25   O     O_3   0.208567 0.933004 0.645672 -0.772924
H39   H     H_    0.227218 0.981117 0.621618 0.332612
O26   O     O_3   0.365188 0.238238 0.777085 -0.759433
H40   H     H_    0.412172 0.217172 0.780445 0.340064
O27   O     O_3   0.881139 0.243631 0.785482 -0.754051
H41   H     H_    0.925837 0.270787 0.791187 0.340950
O28   O     O_3   0.863672 0.737347 0.775917 -0.755382
H42   H     H_    0.910813 0.716736 0.779118 0.352471
N5    N     N_R   0.741395 0.145462 0.314988 0.189390
O29   O     O_R   0.763127 0.084320 0.366399 -0.350342
O30   O     O_R   0.702009 0.140186 0.222356 -0.404218
N6    N     N_R   0.649580 0.714955 0.323817 0.184171
O31   O     O_R   0.611003 0.682771 0.386417 -0.377704
O32   O     O_R   0.621175 0.739321 0.229847 -0.383833
N7    N     N_R   0.310689 0.613469 0.467373 0.189288
O33   O     O_R   0.316734 0.597675 0.569405 -0.361228
O34   O     O_R   0.312035 0.558767 0.399482 -0.349279
N8    N     N_R   0.150877 0.216403 0.325517 0.186729
O35   O     O_R   0.112568 0.184099 0.388422 -0.368362
O36   O     O_R   0.122179 0.240727 0.231672 -0.367497
O37   O     O_3   0.668487 0.970720 0.317560 -0.714307
H43   H     H_    0.656815 0.002502 0.375482 0.396026
O38   O     O_3   0.171133 0.479584 0.316324 -0.727729
H44   H     H_    0.156642 0.505699 0.377054 0.384198

loop_
_geom_bond_atom_site_label_1
_geom_bond_atom_site_label_2
_geom_bond_distance
_ccdc_geom_bond_type
C52   H20   1.077388 S    
C20   C24   1.385561 A    
C2    C61   1.451931 S    
C10   C58   1.391378 A    
O28   H42   0.991912 S    
C31   C35   1.405637 A    
C48   O28   1.382871 S    
C16   C60   1.417493 A    
C88   O38   1.373507 S    
C27   N5    1.432242 S    
O27   H41   0.991852 S    
O10   C6    1.319676 A    
C48   C52   1.393763 A    
Zn4   N4    2.054902 S    
C68   C70   1.386348 A    
O18   H32   0.990136 S    
C36   C64   1.407642 A    
C11   C59   1.390024 A    
C65   C87   1.375073 A    
C39   C55   1.385273 A    
O38   H44   0.977053 S    
C54   H6    1.078183 S    
O7    C3    1.315222 A    
C65   H21   1.084054 S    
C53   H5    1.080050 S    
O24   H38   0.991559 S    
C47   O27   1.382882 S    
Zn1   O10   1.956420 S    
C12   H4    1.083701 S    
C78   C86   1.404246 A    
O12   C8    1.319903 A    
C73   C75   1.413478 A    
C18   C22   1.384818 A    
C1    C62   1.459514 S    
C25   C29   1.435062 A    
C79   C81   1.394527 A    
N6    O31   1.301614 A    
O17   H31   0.990000 S    
C9    H1    1.083651 S    
C23   H15   1.082889 S    
C65   C79   1.387887 A    
C26   N8    1.437216 S    
C83   H29   1.063700 S    
C33   C49   1.413331 A    
O2    Zn1   1.977475 S    
C73   C77   1.415687 A    
Zn1   N1    2.067454 S    
C81   O21   1.384542 S    
O6    Zn3   1.956299 S    
C85   H23   1.077758 S    
Zn3   O14   1.977453 S    
C17   H9    1.083681 S    
O19   H33   0.986009 S    
C37   C53   1.395955 A    
C71   C73   1.429488 A    
C46   C50   1.395444 A    
C19   H11   1.083046 S    
O21   H35   0.991865 S    
C16   C56   1.391370 A    
C45   C49   1.394336 A    
C18   C62   1.398748 A    
O15   C7    1.308038 A    
O4    C4    1.311010 A    
O11   C7    1.319957 A    
C7    C16   1.463132 S    
C55   H7    1.078688 S    
C12   C44   1.403129 A    
C32   C38   1.416473 A    
C60   O20   1.375148 S    
N8    O36   1.301612 A    
C22   H14   1.083113 S    
O8    Zn4   1.956299 S    
C14   C58   1.417074 A    
C51   H19   1.080736 S    
C40   C56   1.384885 A    
C13   C57   1.417724 A    
C35   C51   1.411940 A    
C24   H16   1.083081 S    
C34   C62   1.407655 A    
C25   N7    1.438269 S    
O26   H40   0.991904 S    
C39   C43   1.419503 A    
N7    O34   1.301747 A    
C12   C60   1.392709 A    
C42   C48   1.394857 A    
O5    Zn3   1.957598 S    
C10   H2    1.083719 S    
Zn2   O12   1.956420 S    
O1    C1    1.310403 A    
C35   C63   1.413825 A    
N5    O30   1.301333 A    
C28   N6    1.437195 S    
N5    O29   1.300452 A    
C38   C42   1.419138 A    
C67   N3    1.355350 A    
C23   C27   1.397180 A    
C14   C54   1.391472 A    
C8    C15   1.455214 S    
N7    O33   1.301842 A    
C13   C53   1.396024 A    
C36   C52   1.411749 A    
C32   C36   1.410243 A    
C43   C45   1.396535 A    
C15   C55   1.387179 A    
C56   H8    1.078313 S    
C66   C88   1.374311 A    
O5    C1    1.314616 A    
N1    C87   1.370686 A    
C20   H12   1.083536 S    
C68   H26   1.081620 S    
C5    C14   1.461681 S    
O25   H39   0.991237 S    
C24   C28   1.398500 A    
C3    C64   1.461684 S    
O8    C4    1.314410 A    
C69   H27   1.082967 S    
C21   C25   1.398809 A    
C67   C69   1.386302 A    
C75   N3    1.351477 A    
N2    C88   1.374358 A    
C10   C42   1.402350 A    
O3    Zn2   1.987149 S    
C59   O19   1.376382 S    
C44   C46   1.396281 A    
O7    Zn4   1.957598 S    
C9    C57   1.395592 A    
Zn4   O15   1.987128 S    
C70   H28   1.082926 S    
N1    C85   1.348390 A    
C9    C41   1.404567 A    
O1    Zn1   1.987149 S    
C78   C80   1.423779 A    
O2    C2    1.305543 A    
C46   O26   1.382809 S    
C40   C44   1.418437 A    
C58   O18   1.374933 S    
C34   C50   1.413994 A    
C80   C82   1.394808 A    
C30   C34   1.410658 A    
Zn2   N2    2.067454 S    
O13   C5    1.307619 A    
N8    O35   1.301672 A    
C82   C84   1.385355 A    
C49   H17   1.083272 S    
C4    C63   1.462281 S    
C71   O23   1.376490 S    
C18   H10   1.083560 S    
Zn2   O11   1.957721 S    
C38   C54   1.384643 A    
C86   H24   1.077679 S    
O16   C8    1.302907 A    
C77   C85   1.403533 A    
C19   C23   1.386066 A    
C76   N4    1.351035 A    
C29   C33   1.408682 A    
O6    C2    1.315013 A    
C70   C72   1.393024 A    
C76   C84   1.394056 A    
C6    C13   1.475290 S    
Zn3   N3    2.054902 S    
C17   C61   1.398181 A    
C22   C26   1.397874 A    
Zn1   O9    1.957721 S    
C50   H18   1.082457 S    
O9    C5    1.319665 A    
C19   C63   1.402417 A    
C72   O24   1.376303 S    
C26   C30   1.435058 A    
C41   C47   1.402811 A    
O20   H34   0.990236 S    
C47   C51   1.401105 A    
C29   C39   1.412928 A    
Zn3   O13   1.987128 S    
C66   H22   1.084158 S    
C67   H25   1.079623 S    
C74   C78   1.415708 A    
C87   O37   1.370570 S    
C31   C37   1.416951 A    
C11   H3    1.083850 S    
C68   N4    1.356342 A    
C45   O25   1.383152 S    
C72   C74   1.429234 A    
N2    C86   1.348547 A    
C27   C31   1.424103 A    
O4    Zn2   1.977475 S    
C74   C76   1.413550 A    
C77   C79   1.423643 A    
O3    C3    1.310716 A    
C11   C43   1.400700 A    
C15   C59   1.419862 A    
O37   H43   0.980826 S    
C82   O22   1.384658 S    
C37   C41   1.418038 A    
C57   O17   1.375505 S    
C30   C40   1.415719 A    
Zn4   O16   1.977453 S    
O14   C6    1.314191 A    
C66   C80   1.386835 A    
O23   H37   0.991612 S    
C81   C83   1.386342 A    
C17   C21   1.385215 A    
C21   H13   1.083046 S    
N6    O32   1.301514 A    
O22   H36   0.991871 S    
C20   C64   1.398695 A    
C84   H30   1.063248 S    
C33   C61   1.401714 A    
C28   C32   1.434712 A    
C69   C71   1.393307 A    
C75   C83   1.393983 A    
