data_mof_unit_53925.cif
_audit_creation_date              2012-12-11T15:13:44-0500
_audit_creation_method            fapswitch 2.2
_symmetry_space_group_name_H-M    P1
_symmetry_Int_Tables_number       1
_space_group_crystal_system       triclinic
_cell_length_a                    6.95262
_cell_length_b                    13.477843
_cell_length_c                    20.121311
_cell_angle_alpha                 104.102902
_cell_angle_beta                  90.274173
_cell_angle_gamma                 90.355974
_cell_volume                      1828.59075742

loop_
_atom_site_label
_atom_site_type_symbol
_atom_type_description
_atom_site_fract_x
_atom_site_fract_y
_atom_site_fract_z
_atom_type_partial_charge
O1    O     O_R   0.506780 0.600060 0.449950 -0.539139
O2    O     O_R   0.179840 0.597110 0.589410 -0.543312
O3    O     O_R   0.004570 0.399940 0.550050 -0.537415
C1    C     C_R   0.348998 0.620302 0.616377 0.677229
O4    O     O_R   0.177380 0.612160 0.452890 -0.540249
O5    O     O_R   0.002100 0.415100 0.412560 -0.540793
C2    C     C_R   0.346266 0.639327 0.436635 0.690809
O6    O     O_R   0.509250 0.584900 0.587440 -0.538780
O7    O     O_3   0.337570 0.435330 0.486930 -0.369322
V1    V     V_3+5 0.064650 0.512000 0.502430 1.412322
O8    O     O_R   0.672090 0.402890 0.410590 -0.543070
C3    C     C_R   0.840382 0.380984 0.383101 0.676271
O9    O     O_R   0.674540 0.387840 0.547110 -0.541165
C4    C     C_R   0.843576 0.360866 0.563527 0.695590
V2    V     V_3+5 0.564040 0.488000 0.497570 1.409605
O10   O     O_3   0.840990 0.564670 0.513070 -0.366746
C5    C     C_R   0.923855 0.110250 0.608784 -0.163493
H1    H     H_    0.916680 0.159688 0.515210 0.102199
H2    H     H_    0.971063 0.987378 0.692079 0.128690
H3    H     H_    0.958050 0.032206 0.582548 0.113003
C6    C     C_R   0.854958 0.283221 0.602890 -0.032382
C7    C     C_R   0.817045 0.317134 0.932122 -0.168534
C8    C     C_R   0.794429 0.392881 0.896771 -0.121540
C9    C     C_R   0.809539 0.369501 0.825636 -0.163930
C10   C     C_R   0.849234 0.268549 0.787713 0.078552
C11   C     C_R   0.875954 0.191565 0.824524 0.068155
C12   C     C_R   0.862904 0.241382 0.714648 0.072780
C13   C     C_R   0.906962 0.138744 0.680421 0.143200
C14   C     C_R   0.935322 0.065325 0.717792 -0.220531
C15   C     C_R   0.918633 0.090854 0.788567 -0.202232
C16   C     C_R   0.835692 0.312534 0.674125 -0.218910
C17   C     C_R   0.899451 0.182328 0.570323 -0.175288
C18   C     C_R   0.857961 0.216867 0.896798 -0.077025
H4    H     H_    0.802771 0.391711 0.696106 0.092251
H5    H     H_    0.801672 0.336631 0.987355 0.099837
H6    H     H_    0.789374 0.432414 0.802129 0.102692
H7    H     H_    0.763289 0.470424 0.924694 0.117223
H8    H     H_    0.940784 0.030690 0.814910 0.123105
C19   C     C_3   0.677222 0.220930 0.228184 -0.115284
C20   C     C_3   0.773557 0.199717 0.292886 -0.141010
H9    H     H_    0.705090 0.158979 0.328475 0.099707
H10   H     H_    0.529096 0.197099 0.209943 0.107375
C21   C     C_3   0.849102 0.310683 0.312472 -0.006375
C22   C     C_3   0.752851 0.332689 0.248566 -0.138693
C23   C     C_3   0.939234 0.299373 0.207385 -0.145114
C24   C     C_3   0.035570 0.278123 0.272069 -0.119069
C25   C     C_3   0.959926 0.166365 0.251669 -0.139871
C26   C     C_3   0.863704 0.188451 0.187776 -0.005494
H11   H     H_    0.667120 0.401603 0.247714 0.099971
H12   H     H_    0.007684 0.340074 0.171771 0.099482
H13   H     H_    0.183745 0.301783 0.290326 0.109117
H14   H     H_    0.045623 0.097431 0.252489 0.110249
C27   C     C_3   0.526676 0.758737 0.720702 0.193252
C28   C     C_3   0.390408 0.849502 0.746881 -0.145526
H15   H     H_    0.416994 0.930203 0.745265 0.112224
C29   C     C_3   0.356855 0.812002 0.812336 -0.027470
C30   C     C_3   0.496064 0.722229 0.786949 -0.183414
C31   C     C_3   0.323602 0.655173 0.752391 -0.174720
C32   C     C_3   0.184854 0.745883 0.778449 -0.118328
C33   C     C_3   0.219410 0.782073 0.711911 -0.171964
C34   C     C_3   0.357405 0.691798 0.686494 -0.014991
H16   H     H_    0.610973 0.697707 0.817855 0.102966
H17   H     H_    0.296199 0.574737 0.754437 0.110625
H18   H     H_    0.043148 0.740818 0.802648 0.104780
H19   H     H_    0.113051 0.807840 0.678843 0.115079
C35   C     C_R   0.377283 0.893835 0.392553 -0.159932
H20   H     H_    0.372786 0.844179 0.486107 0.100697
H21   H     H_    0.391000 0.019926 0.310045 0.116819
H22   H     H_    0.387566 0.973867 0.419383 0.111866
C36   C     C_R   0.355580 0.716946 0.397254 -0.028994
C37   C     C_R   0.345337 0.680827 0.067444 -0.169760
C38   C     C_R   0.336921 0.604068 0.102527 -0.122288
C39   C     C_R   0.341146 0.628363 0.173908 -0.162865
C40   C     C_R   0.354104 0.731422 0.212412 0.078967
C41   C     C_R   0.362704 0.809837 0.176002 0.070383
C42   C     C_R   0.358910 0.759255 0.285658 0.071893
C43   C     C_R   0.372355 0.864447 0.320618 0.145389
C44   C     C_R   0.380754 0.939651 0.283716 -0.217113
C45   C     C_R   0.375995 0.913003 0.212624 -0.203273
C46   C     C_R   0.350756 0.686442 0.325700 -0.215514
C47   C     C_R   0.368900 0.820413 0.430640 -0.179255
C48   C     C_R   0.358059 0.783317 0.103397 -0.074997
H23   H     H_    0.340385 0.605408 0.303207 0.090536
H24   H     H_    0.341969 0.660272 0.011910 0.100050
H25   H     H_    0.334125 0.564445 0.197124 0.101879
H26   H     H_    0.327080 0.524838 0.074152 0.117240
H27   H     H_    0.382903 0.974382 0.186572 0.116987
O11   O     O_R   0.203580 0.914920 0.912610 -0.542015
O12   O     O_R   0.535710 0.887810 0.047120 -0.540089
O13   O     O_R   0.710730 0.084950 0.087430 -0.541443
C49   C     C_R   0.367036 0.861236 0.063916 0.688985
O14   O     O_R   0.533010 0.902850 0.910600 -0.543959
O15   O     O_R   0.708010 0.100090 0.949930 -0.536653
C50   C     C_R   0.364140 0.881157 0.883137 0.686943
O16   O     O_R   0.206300 0.899780 0.050100 -0.538037
O17   O     O_3   0.375170 0.064580 0.013100 -0.370222
V3    V     V_3+5 0.648200 0.988020 0.997570 1.413592
O18   O     O_R   0.038030 0.112330 0.952840 -0.541623
C51   C     C_R   0.869031 0.138797 0.936127 0.687955
O19   O     O_R   0.040730 0.097300 0.089360 -0.543597
C52   C     C_R   0.872475 0.118683 0.117002 0.679345
V4    V     V_3+5 0.148780 0.012220 0.002360 1.410718
O20   O     O_3   0.871930 0.935430 0.986900 -0.370140
C53   C     C_3   0.721661 0.770686 0.689245 -0.373286
C54   C     C_3   0.703470 0.817840 0.627642 -0.739007
H28   H     H_    0.606639 0.771513 0.587897 0.225214
H29   H     H_    0.645983 0.896673 0.643881 0.216023
H30   H     H_    0.846885 0.821529 0.604373 0.203665
H31   H     H_    0.811434 0.821854 0.729185 0.169399
H32   H     H_    0.791861 0.694835 0.673498 0.192359

loop_
_geom_bond_atom_site_label_1
_geom_bond_atom_site_label_2
_ccdc_geom_bond_type
C22   H11   S    
C20   C25   S    
O17   V4    S    
C39   C40   A    
C1    O6    A    
C2    C36   S    
C45   H27   S    
C30   H16   S    
C28   C33   S    
C27   C28   S    
C29   C50   S    
C7    H5    S    
C54   H29   S    
C32   H18   S    
C9    H6    S    
C40   C42   A    
C4    C6    S    
C13   C14   A    
C3    C21   S    
O5    C3    A    
C53   H31   S    
C35   H22   S    
C27   C53   S    
V2    O10   S    
C5    H3    S    
C29   C30   S    
C15   H8    S    
C35   C43   A    
C36   C47   A    
C24   C25   S    
C27   C34   S    
C20   C21   S    
C8    C9    A    
O1    V2    S    
O12   C49   A    
O7    V1    S    
O15   C51   A    
O13   V3    S    
O16   V4    S    
C43   C44   A    
C37   C48   A    
C31   C34   S    
C32   C33   S    
O9    C4    A    
O8    V2    S    
C46   H23   S    
O19   V4    S    
C53   C54   S    
C54   H30   S    
O14   V3    S    
C19   H10   S    
O11   C50   A    
H21   C44   S    
C6    C17   A    
C28   C29   S    
C40   C41   A    
C36   C46   A    
C42   C43   A    
C19   C20   S    
O4    C2    A    
C27   C30   S    
C44   C45   A    
C10   C11   A    
C23   C24   S    
C12   C16   A    
C1    C34   S    
C48   C49   S    
O12   V3    S    
C33   C34   S    
C18   C51   S    
C25   H14   S    
O2    C1    A    
C21   C22   S    
O13   C52   A    
C14   C15   A    
C8    H7    S    
C6    C16   A    
C11   C18   A    
O11   V4    S    
C25   C26   S    
O17   V3    S    
O14   C50   A    
C16   H4    S    
C9    C10   A    
C39   H25   S    
V3    O20   S    
O3    C4    A    
C20   H9    S    
C33   H19   S    
C11   C15   A    
O6    V2    S    
O9    V2    S    
H1    C17   S    
O2    V1    S    
O15   V3    S    
C22   C23   S    
C37   H24   S    
C23   C26   S    
C31   H17   S    
C7    C18   A    
C28   H15   S    
O1    C2    A    
C5    C13   A    
C42   C46   A    
C38   C39   A    
O5    V1    S    
C38   H26   S    
O8    C3    A    
C41   C48   A    
H20   C47   S    
C19   C22   S    
C10   C12   A    
C54   H28   S    
C29   C32   S    
C31   C32   S    
O4    V1    S    
O3    V1    S    
O18   V4    S    
C35   C47   A    
C53   H32   S    
C30   C31   S    
C23   H12   S    
C26   C52   S    
C24   H13   S    
O19   C52   A    
O7    V2    S    
V4    O20   S    
C21   C24   S    
C49   O16   A    
C37   C38   A    
O18   C51   A    
C12   C13   A    
C5    C17   A    
C7    C8    A    
V1    O10   S    
C41   C45   A    
C19   C26   S    
H2    C14   S    
