data_mof_unit_49319.cif
_audit_creation_date              2012-12-11T14:08:38-0500
_audit_creation_method            fapswitch 2.2
_symmetry_space_group_name_H-M    P1
_symmetry_Int_Tables_number       1
_space_group_crystal_system       triclinic
_cell_length_a                    28.27338
_cell_length_b                    7.184091
_cell_length_c                    17.186321
_cell_angle_alpha                 89.999846
_cell_angle_beta                  102.082663
_cell_angle_gamma                 89.999962
_cell_volume                      3413.52598443

loop_
_atom_site_label
_atom_site_type_symbol
_atom_type_description
_atom_site_fract_x
_atom_site_fract_y
_atom_site_fract_z
_atom_type_partial_charge
O1    O     O_R   0.000700 0.436510 0.857920 -0.532427
O2    O     O_R   0.999300 0.563490 0.142080 -0.532763
O3    O     O_R   0.999300 0.936510 0.642080 -0.532757
O4    O     O_R   0.000700 0.063490 0.357920 -0.532428
O5    O     O_R   0.930080 0.766380 0.721890 -0.533816
O6    O     O_R   0.069920 0.233620 0.278110 -0.533434
O7    O     O_R   0.069920 0.266380 0.778110 -0.533429
O8    O     O_R   0.930080 0.733620 0.221890 -0.533832
C1    C     C_R   0.910611 0.597343 0.707374 0.690023
C2    C     C_R   0.089422 0.402522 0.292487 0.690202
C3    C     C_R   0.089422 0.097477 0.792487 0.690202
C4    C     C_R   0.910611 0.902657 0.207373 0.690018
O9    O     O_R   0.996180 0.766230 0.862310 -0.545718
O10   O     O_R   0.003820 0.233770 0.137690 -0.545646
O11   O     O_R   0.003820 0.266230 0.637690 -0.545651
O12   O     O_R   0.996180 0.733770 0.362310 -0.545718
O13   O     O_R   0.065870 0.936460 0.783500 -0.536264
O14   O     O_R   0.934130 0.063540 0.216500 -0.536393
O15   O     O_R   0.934130 0.436460 0.716500 -0.536393
O16   O     O_R   0.065870 0.563540 0.283500 -0.536264
C5    C     C_R   0.998454 0.596450 0.894498 0.785675
C6    C     C_R   0.001572 0.403555 0.105511 0.787135
C7    C     C_R   0.001572 0.096445 0.605511 0.787113
C8    C     C_R   0.998454 0.903550 0.394498 0.785684
O17   O     O_3   0.022790 0.603020 0.723980 -0.376742
O18   O     O_3   0.977210 0.396980 0.276020 -0.377068
O19   O     O_3   0.977210 0.103020 0.776020 -0.377055
O20   O     O_3   0.022790 0.896980 0.223980 -0.376744
V1    V     V_3+5 0.995770 0.877900 0.754830 1.466297
V2    V     V_3+5 0.004230 0.122100 0.245170 1.467010
V3    V     V_3+5 0.004230 0.377900 0.745170 1.467028
V4    V     V_3+5 0.995770 0.622100 0.254830 1.466258
C9    C     C_2   0.001731 0.082736 0.519570 -0.314785
C10   C     C_2   0.998297 0.917259 0.480440 -0.316589
C11   C     C_2   0.998298 0.582740 0.980440 -0.316598
C12   C     C_2   0.001731 0.417264 0.019570 -0.314747
H1    H     H_    0.004505 0.211771 0.487888 0.148430
H2    H     H_    0.995522 0.788225 0.512122 0.148585
H3    H     H_    0.995522 0.711774 0.012122 0.148586
H4    H     H_    0.004506 0.288229 0.987888 0.148426
C13   C     C_R   0.682788 0.929495 0.022270 0.577456
C14   C     C_R   0.316793 0.065102 0.980019 0.577704
C15   C     C_R   0.316794 0.434902 0.480014 0.577701
C16   C     C_R   0.682788 0.570524 0.522256 0.577462
O21   O     O_2   0.712239 0.908298 0.970513 -0.504364
O22   O     O_2   0.286776 0.066945 0.031507 -0.504533
O23   O     O_2   0.286778 0.433042 0.531503 -0.504535
O24   O     O_2   0.712240 0.591703 0.470500 -0.504360
N1    N     N_R   0.702771 0.931386 0.102095 -0.558817
N2    N     N_R   0.297363 0.081080 0.900248 -0.557577
N3    N     N_R   0.297363 0.418927 0.400243 -0.557571
N4    N     N_R   0.702771 0.568650 0.602081 -0.558827
C17   C     C_R   0.674510 0.949377 0.157126 0.600978
C18   C     C_R   0.326358 0.086718 0.845864 0.597454
C19   C     C_R   0.326358 0.413293 0.345858 0.597453
C20   C     C_R   0.674510 0.550669 0.657113 0.600979
C21   C     C_R   0.777432 0.768627 0.169146 -0.074194
C22   C     C_R   0.221974 0.240895 0.834232 -0.074556
C23   C     C_R   0.221975 0.259129 0.334207 -0.074552
C24   C     C_R   0.777434 0.731445 0.669091 -0.074206
C25   C     C_R   0.827865 0.763056 0.194096 -0.178037
C26   C     C_R   0.171625 0.242805 0.808273 -0.175111
C27   C     C_R   0.171625 0.257216 0.308251 -0.175132
C28   C     C_R   0.827866 0.737002 0.694047 -0.177977
C29   C     C_R   0.833453 0.070282 0.137246 -0.084256
C30   C     C_R   0.167280 0.930020 0.860373 -0.084579
C31   C     C_R   0.167278 0.569960 0.360393 -0.084592
C32   C     C_R   0.833448 0.429676 0.637287 -0.084236
C33   C     C_R   0.782974 0.073803 0.112724 -0.124532
C34   C     C_R   0.217764 0.929659 0.885494 -0.122048
C35   C     C_R   0.217762 0.570323 0.385512 -0.122042
C36   C     C_R   0.782969 0.426170 0.612759 -0.124554
C37   C     C_R   0.754729 0.924091 0.128329 0.363597
C38   C     C_R   0.245383 0.084316 0.873010 0.361009
C39   C     C_R   0.245382 0.415689 0.373005 0.360986
C40   C     C_R   0.754728 0.575938 0.628316 0.363642
C41   C     C_R   0.602357 0.968384 0.051023 -0.049593
C42   C     C_R   0.397939 0.051582 0.952149 -0.049138
C43   C     C_R   0.397940 0.448434 0.452142 -0.049138
C44   C     C_R   0.602357 0.531646 0.551010 -0.049594
C45   C     C_R   0.631973 0.949360 0.994379 -0.075785
C46   C     C_R   0.367654 0.047826 0.008210 -0.074982
C47   C     C_R   0.367655 0.452191 0.508203 -0.074982
C48   C     C_R   0.631973 0.550660 0.494365 -0.075788
C49   C     C_R   0.609621 0.951068 0.912488 -0.053817
C50   C     C_R   0.389354 0.024438 0.089749 -0.054962
C51   C     C_R   0.389356 0.475591 0.589741 -0.054963
C52   C     C_R   0.609621 0.548940 0.412473 -0.053816
C53   C     C_R   0.624039 0.966942 0.132825 -0.026669
C54   C     C_R   0.376883 0.073446 0.870659 -0.026429
C55   C     C_R   0.376883 0.426562 0.370652 -0.026425
C56   C     C_R   0.624039 0.533100 0.632813 -0.026677
C57   C     C_R   0.856853 0.913359 0.179247 -0.093038
C58   C     C_R   0.143243 0.088247 0.820494 -0.094585
C59   C     C_R   0.143242 0.411752 0.320494 -0.094574
C60   C     C_R   0.856852 0.586644 0.679246 -0.093057
H5    H     H_    0.765267 0.193658 0.080904 0.131870
H6    H     H_    0.235933 0.808576 0.915561 0.132714
H7    H     H_    0.235929 0.691390 0.415596 0.132734
H8    H     H_    0.765258 0.306281 0.580973 0.131829
C61   C     C_R   0.478787 0.030136 0.919505 0.043663
C62   C     C_R   0.521885 0.003452 0.084127 0.043669
C63   C     C_R   0.521885 0.496583 0.584116 0.043669
C64   C     C_R   0.478787 0.469874 0.419496 0.043662
C65   C     C_R   0.470507 0.015486 0.059142 0.032726
C66   C     C_R   0.529602 0.998998 0.944094 0.032157
C67   C     C_R   0.529602 0.501017 0.444082 0.032156
C68   C     C_R   0.470507 0.484546 0.559133 0.032725
C69   C     C_R   0.449235 0.032554 0.977087 0.066898
C70   C     C_R   0.551123 0.990144 0.026281 0.066943
C71   C     C_R   0.551124 0.509883 0.526269 0.066944
C72   C     C_R   0.449235 0.467466 0.477079 0.066898
C73   C     C_R   0.456325 0.060709 0.838877 -0.189641
C74   C     C_R   0.545309 0.005595 0.165429 -0.190294
C75   C     C_R   0.545309 0.494449 0.665418 -0.190293
C76   C     C_R   0.456326 0.439285 0.338869 -0.189644
C77   C     C_R   0.406552 0.080677 0.815156 -0.125758
C78   C     C_R   0.595141 0.987134 0.189006 -0.125059
C79   C     C_R   0.595141 0.512914 0.688994 -0.125059
C80   C     C_R   0.406552 0.419320 0.315149 -0.125758
O25   O     O_2   0.306287 0.101769 0.767636 -0.503681
O26   O     O_2   0.695306 0.953350 0.235320 -0.502326
O27   O     O_2   0.695306 0.546712 0.735307 -0.502312
O28   O     O_2   0.306287 0.398247 0.267629 -0.503687
C81   C     C_R   0.559649 0.974047 0.888802 -0.222055
C82   C     C_R   0.439510 0.008378 0.113745 -0.223164
C83   C     C_R   0.439511 0.491664 0.613736 -0.223162
C84   C     C_R   0.559649 0.525960 0.388789 -0.222059
H9    H     H_    0.154921 0.366084 0.778184 0.152675
H10   H     H_    0.844156 0.640958 0.225765 0.149657
H11   H     H_    0.844159 0.859136 0.725682 0.149698
H12   H     H_    0.154923 0.133953 0.278145 0.152651
H13   H     H_    0.242813 0.361863 0.824388 0.141142
H14   H     H_    0.755982 0.651563 0.181378 0.140485
H15   H     H_    0.755986 0.848552 0.681284 0.140429
H16   H     H_    0.242815 0.138180 0.324344 0.141170
H17   H     H_    0.391373 0.101771 0.752465 0.168531
H18   H     H_    0.611001 0.989711 0.252123 0.170262
H19   H     H_    0.611002 0.510344 0.752111 0.170265
H20   H     H_    0.391373 0.398215 0.252459 0.168529
H21   H     H_    0.476213 0.073758 0.792144 0.121503
H22   H     H_    0.526401 0.025942 0.212999 0.121321
H23   H     H_    0.526401 0.474104 0.712988 0.121322
H24   H     H_    0.476213 0.426220 0.292138 0.121504
H25   H     H_    0.545035 0.967709 0.825688 0.117856
H26   H     H_    0.453229 0.984847 0.176328 0.117528
H27   H     H_    0.453230 0.515209 0.676317 0.117528
H28   H     H_    0.545034 0.532291 0.325676 0.117860
C85   C     C_1   0.859665 0.228343 0.115842 0.328301
N5    N     N_1   0.880435 0.355407 0.098535 -0.353509
C86   C     C_1   0.141697 0.767634 0.879258 0.325720
N6    N     N_1   0.121389 0.637266 0.894603 -0.353483
C87   C     C_1   0.141693 0.732325 0.379296 0.325740
N7    N     N_1   0.121385 0.862676 0.394656 -0.353476
C88   C     C_1   0.859654 0.271544 0.615936 0.328255
N8    N     N_1   0.880421 0.144422 0.598673 -0.353498
C89   C     C_1   0.636251 0.931903 0.849596 0.409938
N9    N     N_1   0.657305 0.917184 0.798959 -0.289253
C90   C     C_1   0.361841 0.012411 0.151766 0.412382
N10   N     N_1   0.340093 0.002448 0.201684 -0.288011
C91   C     C_1   0.361842 0.487622 0.651759 0.412380
N11   N     N_1   0.340095 0.497586 0.701677 -0.288005
C92   C     C_1   0.636251 0.568088 0.349581 0.409952
N12   N     N_1   0.657304 0.582789 0.298942 -0.289289

loop_
_geom_bond_atom_site_label_1
_geom_bond_atom_site_label_2
_ccdc_geom_bond_type
O17   V3    S    
C47   C51   A    
N1    C17   A    
C22   C26   A    
C89   N9    T    
C50   C82   A    
O13   V1    S    
O1    C5    A    
O3    C7    A    
C92   N12   T    
C14   C46   A    
C44   C48   A    
C32   C88   S    
O15   V3    S    
C51   C83   A    
C91   N11   T    
C82   H26   S    
O4    V2    S    
C42   C54   A    
O7    C3    A    
C66   C81   A    
C41   C53   A    
C32   C60   A    
C43   C72   A    
C74   H22   S    
C63   C71   A    
C56   C79   A    
N3    C39   S    
C67   C84   A    
C18   C54   A    
C17   O26   S    
N2    C38   S    
C66   C70   A    
O4    C8    A    
C25   C57   A    
C31   C35   A    
O19   V1    S    
C61   C69   A    
C27   C59   A    
C23   H16   S    
O1    V3    S    
C61   C73   A    
C62   C65   A    
O2    V4    S    
C14   O22   S    
C21   C37   A    
O3    V1    S    
C34   C38   A    
C19   C55   A    
C64   C76   A    
C49   C81   A    
C1    O15   A    
C11   C12   D    
C2    O16   A    
C7    C9    S    
O2    C6    A    
C86   N6    T    
C33   C37   A    
C63   C68   A    
C80   H20   S    
C50   C90   S    
C43   C55   A    
C36   C40   A    
C30   C58   A    
C68   C72   A    
C16   N4    A    
O11   C7    A    
O12   C8    A    
C76   H24   S    
C31   C59   A    
C26   H9    S    
C49   C89   S    
O10   V2    S    
C13   N1    A    
O5    V1    S    
C22   H13   S    
C75   H23   S    
O7    V3    S    
O8    V4    S    
C20   O27   S    
C12   H4    S    
C28   C60   A    
C64   C72   A    
O18   V4    S    
C84   H28   S    
N4    C40   S    
C46   C50   A    
C35   H7    S    
C24   C40   A    
C8    C10   S    
C76   C80   A    
C32   C36   A    
C44   C56   A    
C11   H3    S    
C54   C77   A    
O5    C1    A    
C63   C75   A    
C62   C74   A    
C42   C46   A    
C90   N10   T    
C1    C60   S    
C28   H11   S    
C41   C45   A    
O8    C4    A    
C13   C45   A    
C9    C10   D    
O9    C5    A    
N2    C18   A    
C27   H12   S    
O11   V3    S    
C24   H15   S    
C74   C78   A    
C25   H10   S    
C14   N2    A    
C73   C77   A    
C65   C82   A    
C3    C58   S    
C51   C91   S    
C18   O25   S    
C75   C79   A    
C26   C58   A    
C17   C53   A    
O14   V2    S    
N1    C37   S    
C4    C57   S    
C62   C70   A    
C23   C39   A    
C22   C38   A    
O16   V4    S    
O9    V1    S    
C61   C66   A    
C65   C69   A    
C19   O28   S    
C3    O13   A    
O6    V2    S    
C10   H2    S    
C67   C71   A    
C77   H17   S    
C48   C52   A    
C16   C48   A    
C36   H8    S    
C21   C25   A    
C5    C11   S    
O12   V4    S    
C52   C92   S    
C6    C12   S    
C23   C27   A    
C31   C87   S    
C24   C28   A    
C79   H19   S    
O10   C6    A    
O20   V2    S    
C30   C86   S    
C52   C84   A    
C81   H25   S    
C85   N5    T    
C35   C39   A    
C15   C47   A    
C15   N3    A    
C30   C34   A    
N4    C20   A    
C2    C59   S    
C29   C33   A    
C44   C71   A    
C29   C57   A    
C73   H21   S    
C42   C69   A    
N3    C19   A    
C68   C83   A    
C29   C85   S    
C41   C70   A    
C21   H14   S    
C9    H1    S    
O6    C2    A    
C43   C47   A    
C34   H6    S    
C20   C56   A    
C53   C78   A    
C4    O14   A    
C88   N8    T    
C13   O21   S    
C55   C80   A    
C87   N7    T    
C78   H18   S    
C15   O23   S    
C64   C67   A    
C45   C49   A    
C16   O24   S    
C83   H27   S    
C33   H5    S    
