data_mof_unit_61765.cif
_audit_creation_date              2012-10-26T18:18:41-0400
_audit_creation_method            fapswitch 2.2
_symmetry_space_group_name_H-M    P1
_symmetry_Int_Tables_number       1
_space_group_crystal_system       triclinic
_cell_length_a                    30.878409
_cell_length_b                    29.380663
_cell_length_c                    30.59629
_cell_angle_alpha                 90.052696
_cell_angle_beta                  90.023446
_cell_angle_gamma                 90.001273
_cell_volume                      27757.800854

loop_
_atom_site_label
_atom_site_type_symbol
_atom_type_description
_atom_site_fract_x
_atom_site_fract_y
_atom_site_fract_z
_atom_type_partial_charge
C1    C     C_R   0.309093 0.000018 0.690624 0.550067
C2    C     C_R   0.628871 0.030284 0.589211 -0.152183
C3    C     C_R   0.749960 0.084622 0.250056 0.540239
C4    C     C_R   0.249983 0.415378 0.249997 0.532845
C5    C     C_R   0.750005 0.584617 0.250012 0.535611
C6    C     C_R   0.750046 0.415384 0.250032 0.542296
C7    C     C_R   0.249988 0.584622 0.250018 0.556924
C8    C     C_R   0.100134 0.962471 0.880493 0.017109
C9    C     C_R   0.872741 0.030276 0.908387 0.006387
C10   C     C_R   0.600478 0.462285 0.880824 0.017392
C11   C     C_R   0.372890 0.530483 0.908224 0.006623
C12   C     C_R   0.600011 0.962546 0.380374 0.017533
C13   C     C_R   0.871448 0.469276 0.589505 -0.152739
C14   C     C_R   0.372827 0.030391 0.408294 0.006776
C15   C     C_R   0.126696 0.468916 0.407709 0.008121
C16   C     C_R   0.899861 0.537484 0.380565 0.017701
C17   C     C_3   0.067767 0.939900 0.851374 -0.268031
C18   C     C_3   0.873901 0.081027 0.909497 -0.257750
C19   C     C_3   0.568311 0.439116 0.851910 -0.267380
C20   C     C_3   0.374322 0.581232 0.909065 -0.257658
C21   C     C_3   0.567570 0.940189 0.351186 -0.268002
C22   C     C_3   0.374137 0.081141 0.409253 -0.257951
C23   C     C_3   0.124542 0.418186 0.407709 -0.256167
C24   C     C_R   0.128362 0.531042 0.589777 -0.154025
C25   C     C_3   0.932213 0.560070 0.351505 -0.267996
C26   C     C_3   0.102084 0.940683 0.815808 -0.274550
C27   C     C_3   0.838143 0.080137 0.875374 -0.282845
C28   C     C_3   0.602624 0.439882 0.816338 -0.274915
C29   C     C_3   0.338563 0.580358 0.874943 -0.283125
C30   C     C_3   0.601885 0.940983 0.315618 -0.274429
C31   C     C_3   0.338377 0.080259 0.375132 -0.283336
C32   C     C_3   0.160294 0.419032 0.373613 -0.284137
C33   C     C_3   0.897877 0.559296 0.315928 -0.274759
C34   C     C_R   0.940452 0.999883 0.939504 0.564930
C35   C     C_R   0.870466 0.029191 0.088465 -0.153126
C36   C     C_R   0.059938 0.999965 0.939863 0.563817
C37   C     C_R   0.440455 0.499883 0.939497 0.564628
C38   C     C_R   0.559954 0.499966 0.939875 0.563329
C39   C     C_R   0.440457 0.999884 0.439497 0.564601
C40   C     C_R   0.559939 0.999964 0.439867 0.563349
C41   C     C_R   0.940060 0.500011 0.439866 0.563746
C42   C     C_R   0.059548 0.500091 0.439491 0.564756
C43   C     C_R   0.440017 0.000047 0.559853 0.565886
C44   C     C_R   0.559745 0.999948 0.560260 0.563007
C45   C     C_R   0.940260 0.500074 0.560273 0.561036
C46   C     C_R   0.124667 0.035707 0.093925 -0.152319
C47   C     C_R   0.059750 0.499951 0.560265 0.562001
C48   C     C_R   0.940287 0.999948 0.060281 0.563320
C49   C     C_R   0.059940 0.999964 0.060161 0.561098
C50   C     C_R   0.440017 0.500047 0.059853 0.565899
C51   C     C_R   0.559744 0.499948 0.060261 0.563052
C52   C     C_R   0.190875 0.000211 0.809447 0.576759
C53   C     C_R   0.809150 0.999939 0.809448 0.587882
C54   C     C_R   0.690878 0.500203 0.809444 0.576974
C55   C     C_R   0.309148 0.499950 0.809446 0.588386
C56   C     C_R   0.690874 0.000219 0.309448 0.576770
C57   C     C_R   0.373032 0.533326 0.091118 -0.152724
C58   C     C_R   0.309149 0.999943 0.309447 0.587947
C59   C     C_R   0.190852 0.500014 0.309447 0.588793
C60   C     C_R   0.809120 0.499769 0.309441 0.576712
C61   C     C_1   0.249981 0.864103 0.749972 -0.039919
C62   C     C_1   0.750010 0.135892 0.750052 -0.040816
C63   C     C_1   0.750043 0.864105 0.750012 -0.023632
C64   C     C_1   0.249925 0.135894 0.750123 -0.043663
C65   C     C_1   0.749946 0.364101 0.749997 -0.038476
C66   C     C_1   0.250018 0.635893 0.750051 -0.041313
C67   C     C_1   0.250038 0.364106 0.750011 -0.024383
C68   C     C_R   0.628865 0.530291 0.089218 -0.152107
C69   C     C_1   0.749942 0.635892 0.750113 -0.042904
C70   C     C_1   0.749964 0.864103 0.249979 -0.037414
C71   C     C_1   0.250015 0.135893 0.250056 -0.041577
C72   C     C_1   0.250033 0.864109 0.249977 -0.023956
C73   C     C_1   0.749930 0.135897 0.250150 -0.044626
C74   C     C_1   0.249962 0.364104 0.250003 -0.042965
C75   C     C_1   0.749998 0.635893 0.250023 -0.037495
C76   C     C_1   0.750105 0.364110 0.250104 -0.044112
C77   C     C_1   0.249987 0.635898 0.250032 -0.023387
C78   C     C_1   0.249987 0.821626 0.749986 -0.039648
C79   C     C_R   0.406283 0.000376 0.592157 0.015086
C80   C     C_1   0.750000 0.178368 0.750060 -0.039634
C81   C     C_1   0.750028 0.821627 0.750050 -0.031265
C82   C     C_1   0.249915 0.178369 0.750154 -0.043253
C83   C     C_1   0.749945 0.321624 0.750012 -0.038424
C84   C     C_1   0.250018 0.678369 0.750053 -0.040155
C85   C     C_1   0.250018 0.321628 0.750051 -0.032153
C86   C     C_1   0.749935 0.678367 0.750145 -0.042662
C87   C     C_1   0.749962 0.821626 0.249986 -0.037442
C88   C     C_1   0.250011 0.178370 0.250067 -0.040527
C89   C     C_1   0.250031 0.821633 0.249983 -0.030934
C90   C     C_R   0.594404 0.999238 0.591918 0.014187
C91   C     C_1   0.749941 0.178373 0.250214 -0.044609
C92   C     C_1   0.249967 0.321628 0.250024 -0.041647
C93   C     C_1   0.749993 0.678370 0.250021 -0.037269
C94   C     C_1   0.750101 0.321635 0.250177 -0.044532
C95   C     C_1   0.249989 0.678375 0.250028 -0.030482
C96   C     C_1   0.250000 0.771237 0.750013 -0.002800
C97   C     C_1   0.749979 0.228757 0.750051 -0.002395
C98   C     C_1   0.749990 0.771235 0.750103 0.001051
C99   C     C_1   0.249938 0.228758 0.750143 -0.002181
C100  C     C_1   0.749961 0.271235 0.750035 -0.002126
C101  C     C_R   0.905560 0.500802 0.591897 0.012500
C102  C     C_1   0.250011 0.728759 0.750035 -0.002919
C103  C     C_1   0.249974 0.271237 0.750107 0.000207
C104  C     C_1   0.749958 0.728757 0.750136 -0.001419
C105  C     C_1   0.749972 0.771237 0.249999 -0.000878
C106  C     C_1   0.249998 0.228760 0.250062 -0.003623
C107  C     C_1   0.250016 0.771243 0.249999 0.002758
C108  C     C_1   0.749994 0.228765 0.250245 -0.004568
C109  C     C_1   0.249983 0.271238 0.250048 -0.003903
C110  C     C_1   0.749982 0.728760 0.250011 -0.000830
C111  C     C_1   0.750050 0.271244 0.250233 -0.004542
C112  C     C_R   0.690840 0.000303 0.690500 0.549198
C113  C     C_R   0.094454 0.499262 0.591894 0.011605
C114  C     C_1   0.250001 0.728765 0.250013 0.002854
C115  C     C_R   0.375188 0.969493 0.657237 0.016517
C116  C     C_R   0.626603 0.966061 0.656142 0.014523
C117  C     C_R   0.873003 0.534322 0.655817 0.014743
C118  C     C_R   0.127242 0.465496 0.655530 0.012454
C119  C     C_R   0.874295 0.966905 0.157006 0.015957
C120  C     C_R   0.132436 0.961972 0.150580 0.011668
C121  C     C_R   0.375185 0.469488 0.157234 0.016945
C122  C     C_R   0.626609 0.466054 0.156136 0.015078
C123  C     C_R   0.341626 0.000705 0.657233 0.022100
C124  C     C_R   0.905706 0.999225 0.091999 0.014939
C125  C     C_R   0.658512 0.999595 0.656479 0.017860
C126  C     C_R   0.841493 0.500381 0.656492 0.017703
C127  C     C_R   0.158518 0.499662 0.656502 0.018327
C128  C     C_R   0.841499 0.999489 0.156444 0.017227
C129  C     C_R   0.158697 0.999980 0.156539 0.021713
C130  C     C_R   0.341626 0.500704 0.157233 0.022261
C131  C     C_R   0.658512 0.499594 0.156479 0.017632
C132  C     C_R   0.340314 0.032984 0.623194 -0.151340
C133  C     C_R   0.661361 0.029908 0.621099 -0.148726
C134  C     C_R   0.838974 0.469615 0.621394 -0.149406
C135  C     C_R   0.095057 0.999438 0.091504 0.010004
C136  C     C_R   0.160842 0.530699 0.621677 -0.150748
C137  C     C_R   0.837952 0.028758 0.120306 -0.150466
C138  C     C_R   0.156935 0.035602 0.126051 -0.148828
C139  C     C_R   0.340318 0.532988 0.123199 -0.151954
C140  C     C_R   0.661356 0.529915 0.121105 -0.148835
C141  C     C_3   0.168951 0.107099 0.848785 -0.114470
C142  C     C_3   0.907990 0.931535 0.785109 -0.104669
C143  C     C_3   0.668132 0.607235 0.847885 -0.114877
C144  C     C_3   0.407592 0.430937 0.785397 -0.104701
C145  C     C_3   0.669290 0.107037 0.349116 -0.114802
C146  C     C_R   0.406284 0.500376 0.092158 0.015032
C147  C     C_3   0.407780 0.931220 0.285258 -0.104599
C148  C     C_3   0.093380 0.570519 0.286248 -0.105512
C149  C     C_3   0.831023 0.392857 0.348569 -0.114864
C150  C     C_R   0.594404 0.499238 0.091919 0.014073
C151  C     C_R   0.405534 0.968713 0.625653 0.015480
C152  C     C_R   0.595317 0.965501 0.623950 0.026397
C153  C     C_R   0.904250 0.534918 0.623609 0.025286
C154  C     C_R   0.095989 0.464922 0.623312 0.023227
C155  C     C_R   0.905651 0.966389 0.124889 0.025485
C156  C     C_R   0.809164 0.499702 0.690500 0.549495
C157  C     C_R   0.101279 0.961530 0.118273 0.028150
C158  C     C_R   0.405531 0.468709 0.125649 0.015362
C159  C     C_R   0.595322 0.465495 0.123945 0.026228
C160  C     C_3   0.428829 0.929173 0.644966 -0.271593
C161  C     C_3   0.560738 0.951733 0.655384 -0.282274
C162  C     C_3   0.938668 0.549670 0.654874 -0.276492
C163  C     C_3   0.061679 0.449701 0.654436 -0.275873
C164  C     C_3   0.940535 0.954715 0.156787 -0.282967
C165  C     C_3   0.069631 0.937074 0.146725 -0.273553
C166  C     C_3   0.428821 0.429163 0.144957 -0.271767
C167  C     C_R   0.190843 0.500304 0.690508 0.549251
C168  C     C_3   0.560746 0.451714 0.155377 -0.282423
C169  C     C_3   0.393828 0.929811 0.680877 -0.271122
C170  C     C_3   0.595212 0.952420 0.690813 -0.267375
C171  C     C_3   0.904243 0.548871 0.690336 -0.268121
C172  C     C_3   0.096114 0.450477 0.689915 -0.268564
C173  C     C_3   0.905975 0.955221 0.192087 -0.265640
C174  C     C_3   0.103999 0.937623 0.182276 -0.273724
C175  C     C_3   0.393821 0.429800 0.180868 -0.270906
C176  C     C_3   0.595221 0.452400 0.190806 -0.267194
C177  C     C_R   0.131270 0.963086 0.848235 -0.032150
C178  C     C_R   0.809168 0.000300 0.190486 0.549627
C179  C     C_R   0.840399 0.029391 0.877339 -0.023689
C180  C     C_R   0.631608 0.462888 0.848561 -0.032275
C181  C     C_R   0.340548 0.529613 0.877176 -0.023924
C182  C     C_R   0.631146 0.963169 0.348115 -0.031876
C183  C     C_R   0.340483 0.029513 0.377248 -0.023616
C184  C     C_R   0.159038 0.469759 0.376671 -0.024731
C185  C     C_R   0.868713 0.536879 0.348304 -0.031784
C186  C     C_R   0.158573 0.000450 0.843385 0.021630
C187  C     C_R   0.841626 0.997949 0.843224 0.029135
C188  C     C_R   0.658582 0.500464 0.843379 0.021982
C189  C     C_R   0.190890 0.000271 0.190536 0.548998
C190  C     C_R   0.341618 0.497977 0.843223 0.029176
C191  C     C_R   0.658571 0.000453 0.343389 0.021670
C192  C     C_R   0.341623 0.997964 0.343222 0.029192
C193  C     C_R   0.158391 0.501916 0.343219 0.029389
C194  C     C_R   0.841421 0.499511 0.343378 0.021927
C195  C     C_R   0.157205 0.035881 0.874502 0.249469
C196  C     C_R   0.873188 0.963330 0.843360 0.248203
C197  C     C_R   0.656939 0.536154 0.874203 0.249367
C198  C     C_R   0.372995 0.463179 0.843538 0.248097
C199  C     C_R   0.657313 0.035779 0.374623 0.249458
C200  C     C_R   0.309093 0.500016 0.190624 0.549683
C201  C     C_R   0.373087 0.963249 0.343453 0.248196
C202  C     C_R   0.127473 0.537148 0.344054 0.247934
C203  C     C_R   0.842794 0.464071 0.374421 0.249429
C204  C     C_R   0.125185 0.035236 0.907057 -0.135367
C205  C     C_R   0.904726 0.963103 0.876554 -0.142837
C206  C     C_R   0.624945 0.535501 0.906786 -0.136045
C207  C     C_R   0.404531 0.462954 0.876732 -0.142945
C208  C     C_R   0.625291 0.035128 0.407177 -0.136051
C209  C     C_R   0.404625 0.963024 0.376646 -0.142956
C210  C     C_R   0.095952 0.537356 0.377239 -0.143989
C211  C     C_R   0.690840 0.500302 0.190501 0.549507
C212  C     C_R   0.874825 0.464709 0.406986 -0.135965
C213  C     C_R   0.094909 0.999564 0.908449 -0.036488
C214  C     C_R   0.906426 0.998789 0.907121 -0.035458
C215  C     C_R   0.594948 0.499579 0.908476 -0.036704
C216  C     C_R   0.406411 0.498793 0.907126 -0.035593
C217  C     C_R   0.594905 0.999558 0.408451 -0.036405
C218  C     C_R   0.406422 0.998792 0.407119 -0.035563
C219  C     C_R   0.093610 0.501132 0.407122 -0.036866
C220  C     C_R   0.905098 0.500380 0.408441 -0.036450
C221  C     C_R   0.249993 0.915378 0.749983 0.535668
C222  C     C_R   0.373028 0.033322 0.591113 -0.152766
C223  C     C_R   0.750014 0.084616 0.750024 0.532635
C224  C     C_R   0.750020 0.915383 0.749998 0.558465
C225  C     C_R   0.249962 0.084621 0.750050 0.540370
C226  C     C_R   0.749977 0.415378 0.749998 0.535291
C227  C     C_R   0.250016 0.584617 0.750024 0.532718
C228  C     C_R   0.250019 0.415383 0.749998 0.558543
C229  C     C_R   0.749970 0.584621 0.750043 0.542908
C230  C     C_R   0.749986 0.915378 0.249989 0.538172
C231  C     C_R   0.250014 0.084617 0.250024 0.531842
C232  C     C_R   0.250013 0.915384 0.249988 0.557747
Cu1   Cu    Cu3+1 0.280900 1.000000 0.780900 0.973926
Cu2   Cu    Cu3+1 0.780910 0.000000 0.719100 0.947466
Cu3   Cu    Cu3+1 0.719090 0.500000 0.719100 0.930753
Cu4   Cu    Cu3+1 0.280910 0.500000 0.719100 0.944422
Cu5   Cu    Cu3+1 0.719090 0.000000 0.219100 0.928009
Cu6   Cu    Cu3+1 0.280910 0.000000 0.219100 0.948354
Cu7   Cu    Cu3+1 0.219090 0.500000 0.219100 0.943023
Cu8   Cu    Cu3+1 0.780910 0.500000 0.219100 0.930342
Cu9   Cu    Cu3+1 0.000000 0.957530 0.999990 0.939010
Cu10  Cu    Cu3+1 0.000000 0.042470 0.999990 0.919143
Cu11  Cu    Cu3+1 0.500000 0.457530 0.999990 0.936491
Cu12  Cu    Cu3+1 0.719100 1.000000 0.780900 0.942974
Cu13  Cu    Cu3+1 0.500000 0.542470 0.999990 0.920532
Cu14  Cu    Cu3+1 0.500000 0.957530 0.499990 0.937212
Cu15  Cu    Cu3+1 0.500000 0.042470 0.499990 0.920128
Cu16  Cu    Cu3+1 0.000000 0.457530 0.499990 0.920674
Cu17  Cu    Cu3+1 0.000000 0.542470 0.499990 0.936625
Cu18  Cu    Cu3+1 0.780900 0.500000 0.780900 0.969396
Cu19  Cu    Cu3+1 0.219100 0.500000 0.780900 0.942190
Cu20  Cu    Cu3+1 0.780900 1.000000 0.280900 0.969237
Cu21  Cu    Cu3+1 0.219100 1.000000 0.280900 0.944243
Cu22  Cu    Cu3+1 0.280900 0.500000 0.280900 0.947440
Cu23  Cu    Cu3+1 0.719100 0.500000 0.280900 0.969846
Cu24  Cu    Cu3+1 0.219090 0.000000 0.719100 0.926603
H1    H     H_    0.314697 0.058136 0.621865 0.125445
H2    H     H_    0.630170 0.055162 0.563135 0.129832
H3    H     H_    0.437375 0.419849 0.802788 0.100837
H4    H     H_    0.661808 0.096451 0.314981 0.112493
H5    H     H_    0.693522 0.134852 0.347356 0.149168
H6    H     H_    0.639804 0.120963 0.365216 0.109220
H7    H     H_    0.412159 0.966041 0.271542 0.117341
H8    H     H_    0.402870 0.907692 0.257317 0.147773
H9    H     H_    0.437570 0.920129 0.302635 0.100847
H10   H     H_    0.088787 0.536016 0.271817 0.118144
H11   H     H_    0.098582 0.594556 0.258810 0.146924
H12   H     H_    0.063607 0.581515 0.303708 0.100625
H13   H     H_    0.870419 0.444054 0.563678 0.130145
H14   H     H_    0.838484 0.403574 0.314493 0.112761
H15   H     H_    0.806870 0.364973 0.346654 0.149100
H16   H     H_    0.860544 0.378971 0.364635 0.109604
H17   H     H_    0.129224 0.556457 0.564165 0.132189
H18   H     H_    0.868564 0.053287 0.061752 0.125985
H19   H     H_    0.122195 0.064406 0.071868 0.133606
H20   H     H_    0.372045 0.558684 0.065457 0.127356
H21   H     H_    0.630160 0.555175 0.063146 0.130105
H22   H     H_    0.427426 0.898577 0.623622 0.146846
H23   H     H_    0.535547 0.978425 0.659671 0.129389
H24   H     H_    0.548113 0.917049 0.648400 0.138266
H25   H     H_    0.687326 0.054642 0.619386 0.128781
H26   H     H_    0.461568 0.938520 0.657054 0.127677
H27   H     H_    0.964303 0.523509 0.659419 0.124534
H28   H     H_    0.035882 0.475649 0.659195 0.125055
H29   H     H_    0.049828 0.414869 0.646783 0.143548
H30   H     H_    0.950734 0.584474 0.647524 0.145177
H31   H     H_    0.954315 0.920326 0.150765 0.139368
H32   H     H_    0.040830 0.958147 0.154732 0.125569
H33   H     H_    0.062317 0.902329 0.134358 0.142675
H34   H     H_    0.964779 0.982441 0.160467 0.126169
H35   H     H_    0.427415 0.398570 0.123609 0.146848
H36   H     H_    0.813293 0.444535 0.619916 0.128113
H37   H     H_    0.535551 0.478401 0.159669 0.129394
H38   H     H_    0.548126 0.417029 0.148386 0.138254
H39   H     H_    0.461562 0.438504 0.157046 0.127674
H40   H     H_    0.372004 0.899732 0.680083 0.137679
H41   H     H_    0.589994 0.979511 0.715668 0.153090
H42   H     H_    0.602482 0.918122 0.704247 0.139172
H43   H     H_    0.406463 0.939286 0.713668 0.146640
H44   H     H_    0.909869 0.522160 0.715435 0.151320
H45   H     H_    0.090334 0.476962 0.715241 0.151926
H46   H     H_    0.104077 0.416097 0.702742 0.138818
H47   H     H_    0.186367 0.555965 0.620430 0.127407
H48   H     H_    0.896504 0.583210 0.703455 0.141532
H49   H     H_    0.899679 0.921071 0.206338 0.140374
H50   H     H_    0.095078 0.958995 0.210909 0.151582
H51   H     H_    0.116582 0.903196 0.190348 0.138528
H52   H     H_    0.910341 0.983116 0.216285 0.152417
H53   H     H_    0.371993 0.399723 0.180070 0.137908
H54   H     H_    0.589999 0.479485 0.215665 0.152871
H55   H     H_    0.602497 0.418101 0.204233 0.139856
H56   H     H_    0.406456 0.439268 0.213660 0.146633
H57   H     H_    0.123377 0.063031 0.930284 0.140659
H58   H     H_    0.811385 0.052713 0.117932 0.127603
H59   H     H_    0.928807 0.936308 0.877349 0.130398
H60   H     H_    0.622926 0.563484 0.929783 0.140244
H61   H     H_    0.428475 0.436027 0.877653 0.130705
H62   H     H_    0.623571 0.062843 0.430498 0.139737
H63   H     H_    0.428633 0.936158 0.377508 0.130637
H64   H     H_    0.072369 0.564618 0.378531 0.131247
H65   H     H_    0.876641 0.436917 0.430168 0.139844
H66   H     H_    0.059661 0.904965 0.862633 0.144736
H67   H     H_    0.863104 0.094796 0.941540 0.140805
H68   H     H_    0.904932 0.095171 0.897028 0.144594
H69   H     H_    0.178998 0.064171 0.128454 0.123202
H70   H     H_    0.039388 0.961979 0.844159 0.123810
H71   H     H_    0.560508 0.404214 0.863477 0.145065
H72   H     H_    0.363595 0.595247 0.941034 0.140831
H73   H     H_    0.405430 0.595119 0.896526 0.144378
H74   H     H_    0.539740 0.460846 0.844494 0.123979
H75   H     H_    0.559357 0.905241 0.362328 0.145148
H76   H     H_    0.363381 0.095049 0.441255 0.140505
H77   H     H_    0.405210 0.095143 0.396742 0.144283
H78   H     H_    0.539258 0.962390 0.344047 0.123799
H79   H     H_    0.135080 0.403487 0.439441 0.144900
H80   H     H_    0.314704 0.558143 0.121872 0.124543
H81   H     H_    0.940322 0.595001 0.362839 0.144749
H82   H     H_    0.960589 0.537996 0.344250 0.124079
H83   H     H_    0.093232 0.404995 0.394939 0.143844
H84   H     H_    0.113723 0.906200 0.806540 0.143243
H85   H     H_    0.806725 0.093347 0.887766 0.148071
H86   H     H_    0.848325 0.093907 0.843120 0.130774
H87   H     H_    0.093674 0.963289 0.787932 0.147142
H88   H     H_    0.614558 0.405421 0.807384 0.143253
H89   H     H_    0.307215 0.593822 0.887261 0.147846
H90   H     H_    0.348822 0.593883 0.842618 0.130741
H91   H     H_    0.687317 0.554654 0.119397 0.128990
H92   H     H_    0.594017 0.462124 0.788254 0.147087
H93   H     H_    0.613412 0.906493 0.306233 0.143585
H94   H     H_    0.306998 0.093610 0.387486 0.147459
H95   H     H_    0.348599 0.093892 0.342839 0.130569
H96   H     H_    0.593540 0.963716 0.287818 0.147126
H97   H     H_    0.191451 0.404880 0.385715 0.147726
H98   H     H_    0.886231 0.593782 0.306730 0.143132
H99   H     H_    0.906275 0.536703 0.288006 0.147223
H100  H     H_    0.149829 0.406180 0.341071 0.131219
H101  H     H_    0.161469 0.096380 0.814689 0.112161
H102  H     H_    0.372038 0.058676 0.565449 0.127228
H103  H     H_    0.193102 0.134983 0.846922 0.150031
H104  H     H_    0.139440 0.120983 0.864870 0.109159
H105  H     H_    0.912331 0.966410 0.771507 0.117339
H106  H     H_    0.903133 0.908096 0.757090 0.147755
H107  H     H_    0.937781 0.920428 0.802473 0.100648
H108  H     H_    0.660796 0.596151 0.813863 0.112715
H109  H     H_    0.692041 0.635336 0.845833 0.149599
H110  H     H_    0.638476 0.620977 0.863813 0.109302
H111  H     H_    0.412014 0.465711 0.771585 0.117382
H112  H     H_    0.402631 0.407335 0.757523 0.147671
O1    O     O_R   0.321180 0.000000 0.731010 -0.506486
O2    O     O_R   0.731020 0.000000 0.678820 -0.505056
O3    O     O_3   0.371008 0.428506 0.812905 -0.550575
O4    O     O_3   0.687123 0.070855 0.373425 -0.548062
O5    O     O_3   0.371183 0.928649 0.312738 -0.550424
O6    O     O_3   0.129887 0.572219 0.313942 -0.551320
O7    O     O_3   0.813083 0.428906 0.373028 -0.548318
O8    O     O_R   0.768980 0.500000 0.678820 -0.501957
O9    O     O_R   0.231020 0.500000 0.678820 -0.505723
O10   O     O_R   0.768980 1.000000 0.178820 -0.503405
O11   O     O_R   0.231020 1.000000 0.178820 -0.503041
O12   O     O_R   0.268980 0.500000 0.178820 -0.507235
O13   O     O_R   0.731020 0.500000 0.178820 -0.502445
O14   O     O_R   0.276100 0.938030 0.776090 -0.495358
O15   O     O_R   0.723900 0.061970 0.776090 -0.492547
O16   O     O_R   0.723900 0.938030 0.776090 -0.491448
O17   O     O_R   0.678820 0.000000 0.731010 -0.509714
O18   O     O_R   0.276100 0.061970 0.776090 -0.476982
O19   O     O_R   0.776100 0.438030 0.776090 -0.492918
O20   O     O_R   0.223900 0.561970 0.776090 -0.492654
O21   O     O_R   0.223900 0.438030 0.776090 -0.491138
O22   O     O_R   0.776100 0.561970 0.776090 -0.479625
O23   O     O_R   0.776100 0.938030 0.276090 -0.494132
O24   O     O_R   0.223900 0.061970 0.276090 -0.492920
O25   O     O_R   0.223900 0.938030 0.276090 -0.490870
O26   O     O_R   0.776100 0.061970 0.276090 -0.478498
O27   O     O_R   0.276100 0.438030 0.276090 -0.495675
O28   O     O_R   0.821180 0.500000 0.731010 -0.511318
O29   O     O_R   0.723900 0.561970 0.276090 -0.492063
O30   O     O_R   0.723900 0.438030 0.276090 -0.480601
O31   O     O_R   0.276100 0.561970 0.276090 -0.487696
O32   O     O_R   0.223900 0.938040 0.723900 -0.491094
O33   O     O_R   0.776100 0.061960 0.723900 -0.497078
O34   O     O_R   0.776100 0.938040 0.723900 -0.481549
O35   O     O_R   0.223900 0.061960 0.723900 -0.498159
O36   O     O_R   0.723900 0.438040 0.723900 -0.494183
O37   O     O_R   0.276100 0.561960 0.723900 -0.497079
O38   O     O_R   0.276100 0.438040 0.723900 -0.482256
O39   O     O_R   0.178820 0.500000 0.731010 -0.509695
O40   O     O_R   0.723900 0.561960 0.723900 -0.493820
O41   O     O_R   0.723900 0.938040 0.223900 -0.490637
O42   O     O_R   0.276100 0.061960 0.223900 -0.496778
O43   O     O_R   0.276100 0.938040 0.223900 -0.482355
O44   O     O_R   0.723900 0.061960 0.223900 -0.497542
O45   O     O_R   0.223900 0.438040 0.223900 -0.493762
O46   O     O_R   0.776100 0.561960 0.223900 -0.494300
O47   O     O_R   0.776100 0.438040 0.223900 -0.493537
O48   O     O_R   0.223900 0.561960 0.223900 -0.486698
O49   O     O_R   0.231010 0.000000 0.821180 -0.464418
O50   O     O_R   0.821180 0.000000 0.231010 -0.511086
O51   O     O_R   0.768990 0.000000 0.821180 -0.501737
O52   O     O_R   0.731010 0.500000 0.821180 -0.464920
O53   O     O_R   0.268990 0.500000 0.821180 -0.501500
O54   O     O_R   0.731010 0.000000 0.321180 -0.464158
O55   O     O_R   0.268990 0.000000 0.321180 -0.501599
O56   O     O_R   0.231010 0.500000 0.321180 -0.501288
O57   O     O_R   0.768990 0.500000 0.321180 -0.464369
O58   O     O_R   0.178810 1.000000 0.768990 -0.524573
O59   O     O_R   0.821190 1.000000 0.768990 -0.492387
O60   O     O_R   0.678810 0.500000 0.768990 -0.524677
O61   O     O_R   0.178820 0.000000 0.231010 -0.509603
O62   O     O_R   0.321190 0.500000 0.768990 -0.492670
O63   O     O_R   0.678810 0.000000 0.268990 -0.524594
O64   O     O_R   0.321190 0.000000 0.268990 -0.492711
O65   O     O_R   0.178810 0.500000 0.268990 -0.493695
O66   O     O_R   0.821190 0.500000 0.268990 -0.524660
O67   O     O_R   0.954900 0.964110 0.954900 -0.508670
O68   O     O_R   0.045100 0.035890 0.954900 -0.516775
O69   O     O_R   0.045100 0.964110 0.954900 -0.499506
O70   O     O_R   0.954900 0.035890 0.954900 -0.508453
O71   O     O_R   0.454900 0.464110 0.954900 -0.509348
O72   O     O_R   0.321180 0.500000 0.231010 -0.505436
O73   O     O_R   0.545100 0.535890 0.954900 -0.517091
O74   O     O_R   0.545100 0.464110 0.954900 -0.499403
O75   O     O_R   0.454900 0.535890 0.954900 -0.508655
O76   O     O_R   0.454900 0.964110 0.454900 -0.509241
O77   O     O_R   0.545100 0.035890 0.454900 -0.517134
O78   O     O_R   0.545100 0.964110 0.454900 -0.499164
O79   O     O_R   0.454900 0.035890 0.454900 -0.508766
O80   O     O_R   0.954900 0.464110 0.454900 -0.517149
O81   O     O_R   0.045100 0.535890 0.454900 -0.511309
O82   O     O_R   0.045100 0.464110 0.454900 -0.506183
O83   O     O_R   0.678820 0.500000 0.231010 -0.510970
O84   O     O_R   0.954900 0.535890 0.454900 -0.498855
O85   O     O_R   0.454900 0.964130 0.545070 -0.505430
O86   O     O_R   0.545100 0.035870 0.545070 -0.510420
O87   O     O_R   0.545100 0.964130 0.545070 -0.502844
O88   O     O_R   0.454900 0.035870 0.545070 -0.511023
O89   O     O_R   0.954900 0.464130 0.545070 -0.513688
O90   O     O_R   0.045100 0.535870 0.545070 -0.510723
O91   O     O_R   0.045100 0.464130 0.545070 -0.502991
O92   O     O_R   0.954900 0.535870 0.545070 -0.500638
O93   O     O_R   0.954900 0.964130 0.045070 -0.501711
O94   O     O_R   0.268980 0.000000 0.678820 -0.504779
O95   O     O_R   0.045100 0.035870 0.045070 -0.512263
O96   O     O_R   0.045100 0.964130 0.045070 -0.503709
O97   O     O_R   0.954900 0.035870 0.045070 -0.510465
O98   O     O_R   0.454900 0.464130 0.045070 -0.505433
O99   O     O_R   0.545100 0.535870 0.045070 -0.510298
O100  O     O_R   0.545100 0.464130 0.045070 -0.502963
O101  O     O_R   0.454900 0.535870 0.045070 -0.510974
O102  O     O_3   0.186908 0.071053 0.873186 -0.547429
O103  O     O_3   0.871376 0.928812 0.812554 -0.550501
O104  O     O_3   0.686364 0.571570 0.872595 -0.548082

loop_
_geom_bond_atom_site_label_1
_geom_bond_atom_site_label_2
_ccdc_geom_bond_type
C99   C103  T    
C105  C110  T    
C96   C102  T    
C198  O3    S    
Cu5   O41   S    
C39   C218  S    
C4    O45   A    
C11   C181  A    
C49   O96   A    
C147  H9    S    
C149  O7    S    
C190  C198  A    
C160  H26   S    
C39   O76   A    
C165  H32   S    
C35   C124  A    
C25   H82   S    
C187  C196  A    
C92   C109  S    
C184  C193  A    
C138  H69   S    
C94   C111  S    
Cu13  O99   S    
C222  H102  S    
Cu7   O65   S    
Cu12  O16   S    
C74   C92   T    
C2    C90   A    
C131  C140  A    
Cu21  O25   S    
C207  H61   S    
C19   H74   S    
C162  C171  S    
C145  O4    S    
C78   C96   S    
C66   C227  S    
C208  C217  A    
C31   H94   S    
C117  C126  A    
C21   H75   S    
C85   C103  S    
C11   C216  A    
C20   C29   S    
C119  C128  A    
C56   C191  S    
C4    O27   A    
C30   C182  S    
C197  C206  A    
C45   O92   A    
Cu4   O38   S    
Cu21  O24   S    
Cu1   O1    S    
C166  H39   S    
C11   C20   S    
C67   C85   T    
C115  C123  A    
C150  C159  A    
C53   O59   A    
C169  H43   S    
C160  H22   S    
C127  C136  A    
C90   C152  A    
C20   H72   S    
C212  C220  A    
C177  C186  A    
Cu17  O92   S    
C48   O93   A    
C201  O5    S    
C181  C190  A    
C154  C163  S    
C229  O40   A    
Cu2   O34   S    
C212  H65   S    
C175  H53   S    
C15   C184  A    
Cu7   O45   S    
C164  C173  S    
Cu13  O73   S    
C163  C172  S    
Cu14  O78   S    
C73   C91   T    
C112  C125  S    
C23   H83   S    
C162  H30   S    
Cu8   O66   S    
C205  C214  A    
C83   C100  S    
C117  C153  A    
C112  O17   A    
C68   C140  A    
C157  C165  S    
C41   C220  S    
C75   C93   T    
C79   C222  A    
C33   H98   S    
C156  O8    A    
C57   H20   S    
C16   C25   S    
C42   O82   A    
C173  H52   S    
C174  H51   S    
C40   O77   A    
C134  H36   S    
C161  H24   S    
C21   H78   S    
C28   H88   S    
C171  H44   S    
Cu24  O58   S    
Cu6   O11   S    
C6    O30   A    
Cu12  O51   S    
Cu22  O72   S    
C8    C17   S    
C156  O28   A    
C108  C111  T    
Cu21  O61   S    
C17   H70   S    
C229  O22   A    
C35   C137  A    
C164  H34   S    
C121  C175  S    
Cu8   O46   S    
C227  O20   A    
Cu19  O21   S    
C122  C176  S    
C12   C21   S    
Cu20  O26   S    
C29   H90   S    
Cu15  O79   S    
Cu16  O80   S    
C10   C215  A    
C71   C88   T    
C144  O3    S    
Cu3   O8    S    
C59   O65   A    
C179  C187  A    
C126  C134  A    
C139  H80   S    
C115  C151  A    
C144  H111  S    
C71   C231  S    
C14   C218  A    
C7    O48   A    
C18   H67   S    
Cu2   Cu12  S    
Cu4   O62   S    
C55   O62   A    
C135  C157  A    
C80   C97   S    
C84   C102  S    
C121  C130  A    
C189  O11   A    
C86   C104  S    
C112  O2    A    
C136  H47   S    
C47   O91   A    
C28   H92   S    
C162  H27   S    
C59   C193  S    
Cu16  O89   S    
C57   C139  A    
C168  H37   S    
Cu14  O87   S    
C188  C197  A    
C148  H11   S    
C62   C80   T    
C199  O4    S    
C13   H13   S    
Cu3   O60   S    
Cu19  O39   S    
C141  H103  S    
C55   O53   A    
Cu9   O96   S    
C189  O61   A    
C200  O72   A    
Cu9   Cu10  S    
Cu13  O75   S    
Cu14  O76   S    
C209  H63   S    
C170  H42   S    
Cu16  O82   S    
C51   C150  S    
Cu23  O30   S    
C129  C189  S    
C65   C226  S    
Cu6   O42   S    
C101  C153  A    
C37   C216  S    
C152  C161  S    
Cu1   Cu24  S    
C7    C77   S    
C76   C94   T    
C24   C136  A    
C49   C135  S    
C52   C186  S    
C31   H95   S    
C70   C87   T    
C201  C209  A    
C64   C225  S    
Cu9   O67   S    
C34   O70   A    
Cu10  O68   S    
C120  C129  A    
C51   O99   A    
C228  O21   A    
C224  O16   A    
C44   O87   A    
C45   O89   A    
C192  C201  A    
C56   O54   A    
C221  O14   A    
C54   O52   A    
C165  C174  S    
C142  H105  S    
C210  C219  A    
Cu15  O77   S    
C143  O104  S    
Cu11  O71   S    
C69   C229  S    
C87   C105  S    
C122  C159  A    
C6    O47   A    
C116  C170  S    
C22   H77   S    
C19   C28   S    
C226  O36   A    
C120  C174  S    
C166  H35   S    
C30   H93   S    
C116  C125  A    
C145  H5    S    
C202  O6    S    
C118  C127  A    
C15   C219  A    
C169  H40   S    
C122  C131  A    
C97   C100  T    
C32   H97   S    
C1    O94   A    
C26   C177  S    
C168  C176  S    
Cu16  O91   S    
C143  H109  S    
Cu14  Cu15  S    
C72   C232  S    
C198  C207  A    
Cu14  O85   S    
C38   C215  S    
C49   O95   A    
C149  H16   S    
C6    C76   S    
C146  C158  A    
C41   O84   A    
C93   C110  S    
C46   H19   S    
C173  H49   S    
C52   O49   A    
C121  C158  A    
C14   C22   S    
C141  H104  S    
C131  C211  S    
C34   O67   A    
C1    O1    A    
C199  C208  A    
C16   C220  A    
C3    C73   S    
C68   C150  A    
C56   O63   A    
C9    C18   S    
Cu18  O52   S    
C172  H45   S    
C124  C155  A    
C52   O58   A    
C53   O51   A    
Cu3   Cu18  S    
C13   C101  A    
Cu9   O69   S    
Cu12  O17   S    
C25   C33   S    
C106  C109  T    
C206  C215  A    
C27   H86   S    
C40   C217  S    
C82   C99   S    
Cu17  O84   S    
C5    O29   A    
C113  C154  A    
C183  C192  A    
C14   C183  A    
C44   C90   S    
C43   O85   A    
C3    O26   A    
C225  O35   A    
C166  C175  S    
Cu24  O94   S    
C132  C222  A    
C27   C179  S    
C16   C185  A    
C123  C132  A    
C206  H60   S    
C81   C98   S    
C130  C139  A    
C95   C114  S    
Cu15  O88   S    
C223  O15   A    
C147  O5    S    
C148  H10   S    
C144  H3    S    
C180  C188  A    
C41   O80   A    
C210  H64   S    
C46   C135  A    
C8    C177  A    
C185  C194  A    
C12   C182  A    
C175  H56   S    
Cu8   Cu23  S    
Cu9   O93   S    
C176  H55   S    
C119  C155  A    
C160  C169  S    
Cu5   Cu20  S    
Cu23  O83   S    
C38   O73   A    
C178  O10   A    
Cu4   O9    S    
C50   C146  S    
C54   C188  S    
C57   C146  A    
Cu13  O101  S    
Cu24  O32   S    
C230  O41   A    
Cu1   O14   S    
Cu2   O2    S    
Cu20  O54   S    
Cu3   O40   S    
C51   O100  A    
C3    O44   A    
Cu1   O49   S    
C2    C133  A    
Cu6   Cu21  S    
Cu18  O19   S    
C40   O78   A    
C137  H58   S    
C34   C214  S    
C195  C204  A    
C23   H79   S    
C193  C202  A    
Cu12  O15   S    
C5    C75   S    
C1    C123  S    
C107  C114  T    
C44   O86   A    
Cu1   O18   S    
C58   O55   A    
Cu6   O64   S    
C224  O34   A    
C117  C171  S    
C19   H71   S    
C118  C172  S    
C10   C19   S    
C89   C107  S    
C29   H89   S    
Cu18  O28   S    
C48   O97   A    
C143  H110  S    
C45   C101  S    
C211  O13   A    
C60   O57   A    
Cu8   O47   S    
C142  O103  S    
C42   C219  S    
C232  O43   A    
C161  H23   S    
C120  C157  A    
Cu19  O20   S    
C182  C191  A    
C209  C218  A    
C18   H68   S    
Cu4   O37   S    
Cu19  O53   S    
C12   C217  A    
Cu16  Cu17  S    
C158  C166  S    
C165  H33   S    
C47   C113  S    
C30   H96   S    
C91   C108  S    
C26   H87   S    
C164  H31   S    
C149  H14   S    
C132  H1    S    
C36   O69   A    
C9    C214  A    
C178  O50   A    
Cu15  O86   S    
C21   C30   S    
C168  H38   S    
C68   H21   S    
C153  C162  S    
C10   C180  A    
C23   C32   S    
C148  H12   S    
C119  C173  S    
Cu10  O95   S    
C227  O37   A    
Cu2   O33   S    
Cu11  O100  S    
Cu10  O97   S    
C225  O18   A    
C61   C221  S    
C59   O56   A    
C141  H101  S    
C143  H108  S    
C232  O25   A    
C144  H112  S    
Cu23  O29   S    
C196  O103  S    
C230  O23   A    
C33   C185  S    
Cu6   O43   S    
C50   O101  A    
C147  H8    S    
C204  H57   S    
Cu20  O23   S    
C33   H99   S    
C226  O19   A    
C42   O81   A    
C25   H81   S    
C163  H29   S    
C39   O79   A    
C13   C134  A    
C174  H50   S    
C28   C180  S    
C115  C169  S    
Cu5   O63   S    
C60   C194  S    
Cu24  O35   S    
C167  O9    A    
C197  O104  S    
C29   C181  S    
C63   C81   T    
C17   C26   S    
Cu17  O81   S    
C191  C199  A    
Cu20  O50   S    
C98   C104  T    
Cu22  O27   S    
C65   C83   T    
C43   C79   S    
C142  H106  S    
C159  C168  S    
C196  C205  A    
Cu11  O74   S    
C26   H84   S    
C163  H28   S    
Cu10  O70   S    
C129  C138  A    
Cu11  Cu13  S    
C35   H18   S    
C141  O102  S    
C231  O24   A    
C118  C154  A    
C140  H91   S    
C4    C74   S    
C46   C138  A    
C15   C23   S    
C24   C113  A    
C145  H4    S    
C176  H54   S    
C37   O75   A    
C221  O32   A    
C202  C210  A    
C130  C200  S    
C20   H73   S    
C24   H17   S    
C58   O64   A    
Cu5   O10   S    
C22   C31   S    
C55   C190  S    
C186  C195  A    
C50   O98   A    
C5    O46   A    
C149  H15   S    
Cu11  O98   S    
C204  C213  A    
C77   C95   T    
C128  C137  A    
C70   C230  S    
C170  H41   S    
C167  O39   A    
C36   C213  S    
Cu23  O57   S    
C88   C106  S    
C171  H48   S    
Cu22  O31   S    
C36   O68   A    
C22   H76   S    
C61   C78   T    
C207  C216  A    
Cu7   Cu22  S    
C7    O31   A    
C62   C223  S    
C200  O12   A    
Cu3   O36   S    
C64   C82   T    
C17   H66   S    
C161  C170  S    
C2    H2    S    
C172  H46   S    
C211  O83   A    
C203  C212  A    
C128  C178  S    
Cu4   Cu19  S    
C60   O66   A    
C37   O71   A    
C116  C152  A    
C203  O7    S    
C79   C151  A    
C125  C133  A    
C27   H85   S    
C195  O102  S    
C228  O38   A    
C231  O42   A    
C31   C183  S    
C208  H62   S    
C63   C224  S    
C32   C184  S    
Cu18  O22   S    
C18   C27   S    
C9    C179  A    
C48   C124  S    
C43   O88   A    
Cu7   O48   S    
C155  C164  S    
Cu2   O59   S    
C223  O33   A    
C142  H107  S    
C151  C160  S    
C53   C187  S    
C58   C192  S    
C72   C89   T    
C8    C213  A    
Cu8   O13   S    
C67   C228  S    
C205  H59   S    
C133  H25   S    
C194  C203  A    
C148  O6    S    
Cu21  O55   S    
Cu17  O90   S    
Cu22  O56   S    
C66   C84   T    
C54   O60   A    
C127  C167  S    
C145  H6    S    
Cu5   O44   S    
Cu7   O12   S    
C38   O74   A    
C147  H7    S    
C69   C86   T    
C32   H100  S    
C47   O90   A    
C126  C156  S    
