data_mof_unit_61041.cif
_audit_creation_date              2013-03-05T15:58:00-0500
_audit_creation_method            fapswitch 2.2
_symmetry_space_group_name_H-M    P1
_symmetry_Int_Tables_number       1
_space_group_crystal_system       triclinic
_cell_length_a                    18.623165
_cell_length_b                    18.708113
_cell_length_c                    18.719356
_cell_angle_alpha                 109.455561
_cell_angle_beta                  109.257355
_cell_angle_gamma                 109.349863
_cell_volume                      5042.17612073

loop_
_atom_site_label
_atom_site_type_symbol
_atom_site_description
_atom_site_fract_x
_atom_site_fract_y
_atom_site_fract_z
_atom_type_partial_charge
O1    O     O_R   0.408680 0.356690 0.448540 -0.593634
O2    O     O_R   0.408060 0.460070 0.551440 -0.628449
C1    C     C_R   0.379580 0.379898 0.500031 0.857454
O3    O     O_R   0.592410 0.448290 0.540650 -0.559808
O4    O     O_R   0.591790 0.551670 0.643550 -0.607083
C2    C     C_R   0.622719 0.501889 0.620496 0.924353
Zn1   Zn    Zn3+2 0.500420 0.430970 0.431290 1.080689
Zn2   Zn    Zn3+2 0.499580 0.569030 0.568710 1.029318
O5    O     O_R   0.591940 0.539930 0.448560 -0.588011
O6    O     O_R   0.591320 0.643310 0.551460 -0.627458
O7    O     O_R   0.408210 0.448330 0.356450 -0.628047
O8    O     O_R   0.407590 0.551710 0.459350 -0.621216
C3    C     C_R   0.619407 0.620145 0.499028 0.902420
C4    C     C_R   0.379071 0.500057 0.379132 0.832054
C5    C     C_3   0.646937 0.408128 0.682545 0.079605
C6    C     C_3   0.717498 0.409599 0.758307 0.123147
H1    H     H_    0.700229 0.418720 0.811205 0.125175
H2    H     H_    0.738862 0.452222 0.601028 0.224954
C7    C     C_3   0.767579 0.508616 0.665757 0.073816
C8    C     C_3   0.727987 0.575897 0.781668 -0.196279
C9    C     C_3   0.690606 0.500075 0.686793 -0.313756
H3    H     H_    0.674937 0.563476 0.798691 0.181915
C10   C     C_3   0.809538 0.492860 0.802250 -0.182864
C11   C     C_3   0.839232 0.505472 0.735605 0.088217
C12   C     C_3   0.801504 0.573786 0.847862 -0.621235
H4    H     H_    0.787107 0.572305 0.900807 0.198972
H5    H     H_    0.865424 0.634622 0.880615 0.211092
H6    H     H_    0.899935 0.569828 0.774910 0.183023
C13   C     C_R   0.242615 0.323549 0.502760 -0.160356
H7    H     H_    0.236870 0.379600 0.503720 0.158306
C14   C     C_R   0.177944 0.259085 0.501716 -0.180845
H8    H     H_    0.122379 0.265433 0.502419 0.157657
C15   C     C_R   0.186351 0.187543 0.501492 -0.020431
C16   C     C_R   0.257982 0.179193 0.501145 -0.075637
H9    H     H_    0.264187 0.123501 0.500789 0.182921
C17   C     C_R   0.320657 0.241767 0.498663 -0.124177
H10   H     H_    0.375045 0.234239 0.496482 0.214654
C18   C     C_R   0.313319 0.314144 0.500437 -0.043335
C19   C     C_R   0.319925 0.579492 0.320457 -0.171389
H11   H     H_    0.375228 0.641045 0.375689 0.151726
C20   C     C_R   0.256606 0.579460 0.255589 -0.164031
H12   H     H_    0.262717 0.640997 0.261180 0.154448
C21   C     C_R   0.184791 0.500023 0.184805 -0.013038
C22   C     C_R   0.176641 0.420621 0.177821 -0.171026
H13   H     H_    0.121150 0.359059 0.122791 0.151484
C23   C     C_R   0.241417 0.420645 0.241232 -0.165468
H14   H     H_    0.235520 0.359105 0.235426 0.155317
C24   C     C_R   0.312517 0.500079 0.312714 -0.012331
C25   C     C_R   0.755421 0.758775 0.578587 -0.093540
H15   H     H_    0.759924 0.765601 0.639962 0.165868
C26   C     C_R   0.820348 0.822052 0.578832 -0.160929
H16   H     H_    0.874628 0.878291 0.640316 0.152636
C27   C     C_R   0.813769 0.813311 0.499540 -0.012962
C28   C     C_R   0.743927 0.741113 0.420041 -0.162837
H17   H     H_    0.739523 0.734417 0.358738 0.147030
C29   C     C_R   0.680348 0.676505 0.419874 -0.166533
H18   H     H_    0.626280 0.620098 0.358393 0.149022
C30   C     C_R   0.685951 0.686095 0.499114 0.000747
O9    O     O_R   0.946090 0.356640 0.906180 -0.622078
O10   O     O_R   0.049540 0.460010 0.906120 -0.592448
C31   C     C_R   0.998458 0.379658 0.877895 0.924752
O11   O     O_R   0.853500 0.448290 0.905220 -0.611950
O12   O     O_R   0.956960 0.551660 0.905160 -0.612233
C32   C     C_R   0.876985 0.495335 0.872395 0.997845
Zn3   Zn    Zn3+2 0.928250 0.430930 0.997320 1.030836
Zn4   Zn    Zn3+2 0.066410 0.568980 0.997240 1.026603
O13   O     O_R   0.945110 0.539900 0.088450 -0.625643
O14   O     O_R   0.048570 0.643270 0.088390 -0.623373
O15   O     O_R   0.037700 0.448250 0.089410 -0.619861
O16   O     O_R   0.141150 0.551620 0.089350 -0.626884
C33   C     C_R   0.996411 0.620099 0.116928 0.889647
C34   C     C_R   0.118281 0.499965 0.118246 0.841595
O17   O     O_R   0.948590 0.908340 0.356800 -0.596174
O18   O     O_R   0.052580 0.908350 0.460820 -0.615527
C35   C     C_R   0.000678 0.879972 0.380698 0.908972
O19   O     O_R   0.039640 0.091520 0.447910 -0.591637
O20   O     O_R   0.143620 0.091540 0.551930 -0.622356
C36   C     C_R   0.120128 0.121070 0.501005 0.918933
Zn5   Zn    Zn3+2 0.930570 0.999900 0.430450 1.036175
Zn6   Zn    Zn3+2 0.069430 0.999920 0.569370 1.015615
O21   O     O_R   0.947420 0.091470 0.539000 -0.609714
O22   O     O_R   0.051410 0.091490 0.643030 -0.622573
O23   O     O_R   0.856380 0.908290 0.447890 -0.624763
O24   O     O_R   0.960370 0.908300 0.551910 -0.616376
C37   C     C_R   0.999414 0.120095 0.619225 0.840451
C38   C     C_R   0.879866 0.879702 0.499801 0.824841
C39   C     C_R   0.077128 0.328352 0.810725 -0.165617
H19   H     H_    0.137754 0.388896 0.859357 0.154386
C40   C     C_R   0.077552 0.263857 0.747720 -0.168529
H20   H     H_    0.138215 0.274668 0.747184 0.145131
C41   C     C_R   0.999208 0.186266 0.684719 -0.007548
C42   C     C_R   0.920718 0.171661 0.684628 -0.167742
H21   H     H_    0.860270 0.110992 0.635740 0.152841
C43   C     C_R   0.920781 0.234883 0.749273 -0.084528
H22   H     H_    0.860097 0.222911 0.750020 0.199197
C44   C     C_R   0.998811 0.313462 0.811681 -0.017258
C45   C     C_R   0.023210 0.768300 0.191712 -0.233888
H23   H     H_    0.042819 0.782333 0.147311 0.196599
C46   C     C_R   0.026185 0.833367 0.257414 0.330893
C47   C     C_R   0.000949 0.813952 0.314896 -0.223857
C48   C     C_R   0.972081 0.730025 0.306243 -0.080140
C49   C     C_R   0.970597 0.666390 0.240021 -0.128311
H24   H     H_    0.949654 0.601584 0.232267 0.204201
C50   C     C_R   0.996413 0.685869 0.183751 -0.135727
N1    N     N_R   0.614794 0.333931 0.595931 0.253261
O25   O     O_R   0.667019 0.310084 0.576404 -0.290396
O26   O     O_R   0.532153 0.289311 0.537276 -0.366896
N2    N     N_R   0.803438 0.585292 0.655046 0.179235
O27   O     O_R   0.758061 0.583095 0.583905 -0.388734
O28   O     O_R   0.885172 0.646570 0.704773 -0.400308
C51   C     C_2   0.568177 0.394957 0.697168 0.370343
H25   H     H_    0.542202 0.439154 0.699192 0.055485
O29   O     O_2   0.530763 0.331917 0.703463 -0.498644
N3    N     N_R   0.056256 0.918704 0.265783 0.214124
O30   O     O_R   0.039878 0.926925 0.196670 -0.367738
O31   O     O_R   0.110474 0.988087 0.342070 -0.421677
C52   C     C_2   0.940835 0.707180 0.363499 0.445588
H26   H     H_    0.935024 0.753554 0.411303 0.064197
O32   O     O_2   0.920448 0.635466 0.357564 -0.534561
N4    N     N_R   0.716695 0.325605 0.732344 0.265433
O33   O     O_R   0.783073 0.317961 0.730685 -0.350913
O34   O     O_R   0.649009 0.257520 0.714271 -0.297684
N5    N     N_R   0.865390 0.442487 0.697307 0.252798
O35   O     O_R   0.934476 0.444506 0.747673 -0.358753
O36   O     O_R   0.835326 0.400133 0.613665 -0.296336
C53   C     C_2   0.759510 0.666791 0.792836 0.520253
H27   H     H_    0.817946 0.699149 0.790377 0.119688
O37   O     O_2   0.720995 0.706346 0.808240 -0.551855

loop_
_geom_bond_atom_site_label_1
_geom_bond_atom_site_label_2
_geom_bond_distance
_ccdc_geom_bond_type
Zn4   O14   2.013343 S    
C39   H19   1.083568 S    
C53   H27   1.080715 S    
O17   C35   1.278997 A    
C20   H12   1.083653 S    
C51   H25   1.084144 S    
O19   Zn5   2.013049 S    
Zn6   O24   2.012927 S    
C46   N3    1.438737 S    
N3    O30   1.301476 A    
C37   C41   1.425071 S    
C31   C44   1.434634 S    
N5    O35   1.299837 A    
C19   C20   1.385483 A    
O20   C36   1.281121 A    
C29   H18   1.083715 S    
Zn1   O7    2.025546 S    
N1    O26   1.301716 A    
C48   C49   1.388250 A    
C42   H21   1.083896 S    
C17   H10   1.079541 S    
C7    C9    1.580503 S    
O19   C36   1.281567 A    
H2    C7    1.101970 S    
C52   O32   1.221405 D    
O4    C2    1.279479 A    
O7    C4    1.279636 A    
C15   C36   1.426975 S    
N5    O36   1.301587 A    
C8    C12   1.536491 S    
C5    C6    1.568332 S    
N2    O27   1.299032 A    
C16   H9    1.083793 S    
O5    C3    1.278403 A    
C47   C48   1.412181 A    
O11   C32   1.275121 A    
C23   H14   1.083668 S    
C14   H8    1.083739 S    
C1    C18   1.429172 S    
C22   C23   1.385277 A    
C6    H1    1.116660 S    
C25   C26   1.381156 A    
C33   C50   1.432929 S    
C13   C18   1.397444 A    
C10   C11   1.575608 S    
C14   C15   1.396929 A    
C27   C38   1.427152 S    
C40   C41   1.395639 A    
C16   C17   1.378933 A    
C7    N2    1.479503 S    
O12   Zn4   2.025712 S    
O10   Zn4   2.017377 S    
O18   Zn6   2.016544 S    
C20   C21   1.398274 A    
C43   H22   1.082739 S    
O3    Zn1   2.026725 S    
C45   C46   1.382224 A    
N4    O34   1.301326 A    
C45   H23   1.084040 S    
C23   C24   1.398159 A    
C29   C30   1.396979 A    
C28   C29   1.381857 A    
O9    C31   1.277162 A    
O18   C35   1.280184 A    
C26   H16   1.083792 S    
C5    C51   1.535351 S    
Zn6   O22   2.015261 S    
C41   C42   1.394520 A    
Zn5   O21   2.016543 S    
C4    C24   1.437442 S    
C3    C30   1.429050 S    
Zn3   O13   2.017550 S    
C12   H4    1.115160 S    
C27   C28   1.396706 A    
C2    C9    1.470107 S    
C11   N5    1.479106 S    
C25   C30   1.397498 A    
O10   C31   1.278901 A    
O1    C1    1.277874 A    
O15   C34   1.278701 A    
C49   C50   1.395405 A    
C21   C22   1.398174 A    
C8    C53   1.516791 S    
C13   H7    1.083704 S    
C46   C47   1.411194 A    
Zn2   O8    2.026723 S    
C39   C44   1.398734 A    
C42   C43   1.381303 A    
C15   C16   1.395402 A    
O17   Zn5   2.015047 S    
C51   O29   1.221667 D    
C43   C44   1.399323 A    
O3    C2    1.275993 A    
C10   C32   1.461868 S    
C8    H3    1.111962 S    
C6    C10   1.577377 S    
C39   C40   1.382538 A    
C19   H11   1.083655 S    
C22   H13   1.083659 S    
O20   Zn6   2.013558 S    
Zn1   O5    2.014926 S    
C21   C34   1.437626 S    
C28   H17   1.083815 S    
C53   O37   1.221160 D    
O11   Zn3   2.026133 S    
O1    Zn1   2.010926 S    
O2    Zn2   2.014926 S    
C11   H6    1.108236 S    
O24   C38   1.281252 A    
O6    C3    1.276806 A    
O4    Zn2   2.025547 S    
N3    O31   1.299716 A    
C12   H5    1.115441 S    
O22   C37   1.280710 A    
N1    O25   1.300760 A    
C48   C52   1.490552 S    
C5    N1    1.491263 S    
C6    N4    1.475307 S    
O2    C1    1.277362 A    
O8    C4    1.279833 A    
C13   C14   1.382603 A    
C52   H26   1.083543 S    
O9    Zn3   2.013217 S    
Zn5   O23   2.013433 S    
Zn4   O16   2.026174 S    
O14   C33   1.278415 A    
Zn3   O15   2.025800 S    
C17   C18   1.396015 A    
C35   C47   1.427427 S    
N2    O28   1.302232 A    
C7    C11   1.563988 S    
O13   C33   1.276489 A    
C10   C12   1.554600 S    
C49   H24   1.084055 S    
C45   C50   1.391869 A    
O12   C32   1.277381 A    
C5    C9    1.601814 S    
O23   C38   1.281597 A    
C8    C9    1.582030 S    
Zn2   O6    2.010927 S    
C25   H15   1.083950 S    
N4    O33   1.299632 A    
O16   C34   1.278788 A    
C26   C27   1.396407 A    
C40   H20   1.083853 S    
O21   C37   1.281064 A    
C19   C24   1.398143 A    
