data_mof_unit_61901.cif
_audit_creation_date              2012-12-10T18:40:32-0500
_audit_creation_method            fapswitch 2.2
_symmetry_space_group_name_H-M    P1
_symmetry_Int_Tables_number       1
_space_group_crystal_system       triclinic
_cell_length_a                    10.777185
_cell_length_b                    11.574789
_cell_length_c                    16.698435
_cell_angle_alpha                 90.005928
_cell_angle_beta                  84.729785
_cell_angle_gamma                 90.031087
_cell_volume                      2074.21748461

loop_
_atom_site_label
_atom_site_type_symbol
_atom_type_description
_atom_site_fract_x
_atom_site_fract_y
_atom_site_fract_z
_atom_type_partial_charge
C1    C     C_R   0.500024 0.718841 0.499972 0.920543
C2    C     C_R   0.517589 0.506357 0.346344 0.930177
C3    C     C_R   0.470566 0.517867 0.740472 -0.204094
C4    C     C_R   0.531476 0.542989 0.262782 -0.198253
C5    C     C_R   0.561320 0.476630 0.788515 0.395716
C6    C     C_R   0.455224 0.631001 0.235495 0.384589
C7    C     C_R   0.558478 0.512556 0.867822 -0.216688
C8    C     C_R   0.476234 0.669950 0.156889 -0.223529
C9    C     C_R   0.466605 0.589948 0.899927 0.000245
C10   C     C_R   0.571313 0.621619 0.104707 0.006025
C11   C     C_R   0.371378 0.625110 0.853529 0.444728
C12   C     C_R   0.499975 0.281154 0.499988 0.915294
C13   C     C_R   0.652486 0.539412 0.133306 0.440976
C14   C     C_R   0.374025 0.589191 0.773938 -0.279333
C15   C     C_R   0.632198 0.500777 0.212286 -0.275387
C16   C     C_2   0.465191 0.624733 0.984064 -0.118156
C17   C     C_2   0.571450 0.640686 0.018321 -0.142602
C18   C     C_1   0.500054 0.838947 0.499843 -0.128054
C19   C     C_1   0.499937 0.161028 0.499905 -0.142541
C20   C     C_1   0.500013 0.940828 0.499793 0.043785
C21   C     C_1   0.499956 0.059140 0.499830 0.039963
C22   C     C_1   0.930243 0.500007 0.500007 0.097923
C23   C     C_1   0.069758 0.500011 0.499995 0.101808
C24   C     C_R   0.482436 0.499421 0.654057 0.939988
Cl1   Cl    Cl    0.678298 0.378132 0.752649 -0.533837
Cl2   Cl    Cl    0.335625 0.698878 0.297705 -0.562995
Cl3   Cl    Cl    0.251258 0.718506 0.891868 -0.534977
Cl4   Cl    Cl    0.774315 0.476293 0.070489 -0.549900
H1    H     H_    0.693702 0.436105 0.233936 0.203226
H2    H     H_    0.303642 0.621297 0.737243 0.208194
H3    H     H_    0.660037 0.642429 0.981603 0.211277
H4    H     H_    0.376270 0.621275 0.020394 0.204413
H5    H     H_    0.415475 0.735437 0.135461 0.207261
H6    H     H_    0.627692 0.478672 0.904666 0.222374
N1    N     N_1   0.819370 0.500000 0.500010 -0.062308
N2    N     N_1   0.180630 0.500000 0.499990 -0.059060
O1    O     O_R   0.397470 0.665550 0.500010 -0.582451
O2    O     O_R   0.602530 0.334450 0.499990 -0.596379
O3    O     O_R   0.602530 0.665550 0.499990 -0.615344
O4    O     O_R   0.397470 0.334450 0.500010 -0.609674
O5    O     O_R   0.385350 0.500000 0.615800 -0.623690
O6    O     O_R   0.614650 0.500000 0.384200 -0.620196
O7    O     O_R   0.590410 0.500000 0.615800 -0.565149
O8    O     O_R   0.409590 0.500000 0.384200 -0.561572
Zn1   Zn    Zn3+2 0.363080 0.500000 0.500000 1.046886
Zn2   Zn    Zn3+2 0.636920 0.500000 0.500000 1.040779

loop_
_geom_bond_atom_site_label_1
_geom_bond_atom_site_label_2
_ccdc_geom_bond_type
C12   O4    A    
C2    C4    S    
C13   Cl4   S    
C22   N1    T    
C11   Cl3   S    
C16   H4    S    
C1    O1    A    
C4    C15   A    
C3    C24   S    
N2    Zn1   S    
C20   C21   S    
C24   O5    A    
C9    C11   A    
C1    C18   S    
C6    Cl2   S    
C3    C14   A    
C2    O6    A    
O3    Zn2   S    
C5    Cl1   S    
C12   C19   S    
C4    C6    A    
C11   C14   A    
C9    C16   S    
C14   H2    S    
C15   H1    S    
C18   C20   T    
C8    H5    S    
C13   C15   A    
C12   O2    A    
O4    Zn1   S    
C17   H3    S    
O7    Zn2   S    
O2    Zn2   S    
C1    O3    A    
C10   C17   S    
O1    Zn1   S    
C7    C9    A    
O8    Zn1   S    
C8    C10   A    
C23   N2    T    
O6    Zn2   S    
C7    H6    S    
C5    C7    A    
C24   O7    A    
O5    Zn1   S    
C22   C23   S    
C6    C8    A    
C19   C21   T    
N1    Zn2   S    
C2    O8    A    
C16   C17   D    
C3    C5    A    
C10   C13   A    
