data_mof_unit_41669.cif
_audit_creation_date              2012-10-26T21:00:15-0400
_audit_creation_method            fapswitch 2.2
_symmetry_space_group_name_H-M    P1
_symmetry_Int_Tables_number       1
_space_group_crystal_system       triclinic
_cell_length_a                    19.317286
_cell_length_b                    8.690832
_cell_length_c                    7.449508
_cell_angle_alpha                 102.992139
_cell_angle_beta                  94.020045
_cell_angle_gamma                 92.341039
_cell_volume                      1213.57078824

loop_
_atom_site_label
_atom_site_type_symbol
_atom_type_description
_atom_site_fract_x
_atom_site_fract_y
_atom_site_fract_z
_atom_type_partial_charge
C1    C     C_R   0.497921 0.199733 0.453259 0.551494
C2    C     C_R   0.810254 0.427513 0.326833 0.277560
C3    C     C_R   0.146791 0.498397 0.512903 0.045348
C4    C     C_R   0.853210 0.501863 0.487061 0.045431
C5    C     C_R   0.177386 0.420627 0.354404 -0.183447
C6    C     C_R   0.822606 0.579597 0.645562 -0.183501
C7    C     C_R   0.249189 0.420695 0.351599 -0.160759
C8    C     C_R   0.750803 0.579431 0.648387 -0.160869
C9    C     C_R   0.292034 0.496944 0.508106 -0.025996
C10   C     C_R   0.707966 0.503120 0.491895 -0.025987
C11   C     C_R   0.929656 0.500128 0.492981 0.358186
C12   C     C_R   0.502079 0.800267 0.546741 0.551500
C13   C     C_R   0.070347 0.500221 0.506976 0.358091
C14   C     C_3   0.171936 0.584330 0.974753 -0.090190
C15   C     C_3   0.827767 0.415298 0.024875 -0.090235
C16   C     C_2   0.496917 0.031831 0.426995 -0.152854
C17   C     C_2   0.503084 0.968169 0.573005 -0.152861
C18   C     C_R   0.367656 0.499167 0.502638 0.549607
C19   C     C_R   0.632343 0.500840 0.497362 0.549596
C20   C     C_R   0.262267 0.572454 0.668352 -0.115762
C21   C     C_R   0.737740 0.427633 0.331651 -0.115875
C22   C     C_R   0.189758 0.572671 0.673145 0.277481
Cu1   Cu    Cu3+1 0.507710 0.517380 0.684380 0.955162
Cu2   Cu    Cu3+1 0.492290 0.482620 0.315620 0.955193
H1    H     H_    0.295267 0.635521 0.788000 0.134079
H2    H     H_    0.554897 0.620273 0.050901 0.239184
H3    H     H_    0.153637 0.457102 0.934697 0.125276
H4    H     H_    0.141257 0.642540 0.088798 0.174814
H5    H     H_    0.227443 0.597178 0.029126 0.109515
H6    H     H_    0.858704 0.357614 0.911141 0.174826
H7    H     H_    0.845519 0.542869 0.064569 0.124772
H8    H     H_    0.772284 0.401096 0.970218 0.109769
H9    H     H_    0.704736 0.364492 0.212048 0.133899
H10   H     H_    0.145705 0.359522 0.231399 0.143573
H11   H     H_    0.854284 0.640748 0.768554 0.143688
H12   H     H_    0.271213 0.360493 0.226814 0.137854
H13   H     H_    0.728774 0.639612 0.773172 0.137853
H14   H     H_    0.491095 0.960239 0.286275 0.134950
H15   H     H_    0.508905 0.039761 0.713724 0.134938
H16   H     H_    0.445103 0.379727 0.949099 0.239192
N1    N     N_R   0.031728 0.469215 0.342187 -0.241305
N2    N     N_R   0.968275 0.531149 0.657769 -0.241266
N3    N     N_R   0.962792 0.469422 0.335348 -0.155826
N4    N     N_R   0.037211 0.530944 0.664606 -0.156115
N5    N     N_2   0.480680 0.456420 0.038530 -0.258535
N6    N     N_2   0.519320 0.543580 0.961470 -0.258541
O1    O     O_R   0.505010 0.286130 0.619770 -0.503176
O2    O     O_3   0.838940 0.340885 0.173418 -0.542582
O3    O     O_R   0.494990 0.713870 0.380230 -0.503164
O4    O     O_R   0.491990 0.256780 0.308370 -0.497289
O5    O     O_R   0.508010 0.743220 0.691630 -0.497288
O6    O     O_R   0.406650 0.514660 0.655750 -0.508516
O7    O     O_R   0.593350 0.485340 0.344250 -0.508518
O8    O     O_R   0.393640 0.485310 0.344340 -0.499858
O9    O     O_R   0.606360 0.514690 0.655660 -0.499900
O10   O     O_3   0.161107 0.659324 0.826594 -0.542611

loop_
_geom_bond_atom_site_label_1
_geom_bond_atom_site_label_2
_ccdc_geom_bond_type
C12   C17   S    
C14   O10   S    
Cu1   Cu2   S    
C11   N3    A    
C1    O4    A    
C14   H3    S    
C7    H12   S    
C9    C18   S    
C9    C20   A    
C2    C4    A    
C3    C13   S    
C22   O10   S    
C10   C19   S    
C14   H4    S    
C5    H10   S    
C19   O7    A    
C2    C21   A    
C13   N1    A    
C12   O3    A    
C18   O6    A    
C15   H8    S    
C1    C16   S    
N5    N6    D    
C4    C11   S    
Cu1   O9    S    
N1    N3    A    
Cu1   O6    S    
N2    N4    A    
C15   O2    S    
C15   H6    S    
Cu2   N5    S    
C4    C6    A    
C20   C22   A    
C5    C7    A    
C10   C21   A    
Cu2   O4    S    
H16   N5    S    
Cu1   O1    S    
C20   H1    S    
H2    N6    S    
C14   H5    S    
Cu2   O8    S    
C8    H13   S    
Cu1   N6    S    
C21   H9    S    
C6    H11   S    
C11   N2    A    
C8    C10   A    
C17   H15   S    
C19   O9    A    
Cu2   O3    S    
C7    C9    A    
C18   O8    A    
C1    O1    A    
C3    C22   A    
C6    C8    A    
C2    O2    S    
Cu2   O7    S    
Cu1   O5    S    
C15   H7    S    
C13   N4    A    
C12   O5    A    
C16   H14   S    
C16   C17   D    
C3    C5    A    
