data_mof_unit_57299.cif
_audit_creation_date              2012-12-11T15:54:45-0500
_audit_creation_method            fapswitch 2.2
_symmetry_space_group_name_H-M    P1
_symmetry_Int_Tables_number       1
_space_group_crystal_system       triclinic
_cell_length_a                    6.930466
_cell_length_b                    14.500402
_cell_length_c                    16.129823
_cell_angle_alpha                 89.926567
_cell_angle_beta                  90.035352
_cell_angle_gamma                 90.113581
_cell_volume                      1620.95436951

loop_
_atom_site_label
_atom_site_type_symbol
_atom_type_description
_atom_site_fract_x
_atom_site_fract_y
_atom_site_fract_z
_atom_type_partial_charge
O1    O     O_R   0.638180 0.333920 0.163320 -0.552010
O2    O     O_R   0.361820 0.666080 0.836680 -0.552009
O3    O     O_R   0.308470 0.344960 0.336080 -0.545161
O4    O     O_R   0.691530 0.655040 0.663920 -0.545161
O5    O     O_R   0.138140 0.166110 0.336680 -0.544346
O6    O     O_R   0.861860 0.833890 0.663320 -0.544346
C1    C     C_R   0.477880 0.366765 0.365357 0.772540
C2    C     C_R   0.522119 0.633235 0.634643 0.772541
O7    O     O_R   0.308460 0.344950 0.163930 -0.552682
O8    O     O_R   0.691540 0.655050 0.836070 -0.552682
O9    O     O_R   0.138140 0.166100 0.163310 -0.549207
O10   O     O_R   0.861860 0.833900 0.836690 -0.549208
C3    C     C_R   0.477552 0.367223 0.135010 0.656034
C4    C     C_R   0.522448 0.632777 0.864990 0.656034
O11   O     O_R   0.638180 0.333930 0.336700 -0.504284
O12   O     O_R   0.361820 0.666070 0.663300 -0.504284
O13   O     O_3   0.471670 0.191340 0.250000 -0.369736
O14   O     O_3   0.528330 0.808660 0.750000 -0.369736
V1    V     V_3+5 0.196830 0.260900 0.250000 1.471776
V2    V     V_3+5 0.803170 0.739100 0.750000 1.471776
O15   O     O_R   0.808420 0.155070 0.163920 -0.532901
O16   O     O_R   0.191580 0.844930 0.836080 -0.532901
C5    C     C_R   0.977356 0.133032 0.134770 0.762898
C6    C     C_R   0.022644 0.866968 0.865230 0.762899
O17   O     O_R   0.808420 0.155080 0.336070 -0.515861
O18   O     O_R   0.191580 0.844920 0.663930 -0.515861
C7    C     C_R   0.977422 0.131870 0.363686 0.833403
C8    C     C_R   0.022578 0.868130 0.636314 0.833403
V3    V     V_3+5 0.696830 0.239130 0.250000 1.527158
V4    V     V_3+5 0.303170 0.760870 0.750000 1.527158
O19   O     O_3   0.971850 0.308690 0.250010 -0.371218
O20   O     O_3   0.028150 0.691310 0.749990 -0.371218
H1    H     H_    0.833219 0.815490 0.265186 0.145728
H2    H     H_    0.166781 0.184510 0.734814 0.145728
C9    C     C_R   0.074515 0.189707 0.528346 -0.148461
C10   C     C_R   0.925485 0.810293 0.471654 -0.148461
C11   C     C_R   0.122177 0.222281 0.606870 0.351561
C12   C     C_R   0.877823 0.777719 0.393130 0.351561
C13   C     C_R   0.131875 0.160237 0.673108 -0.278398
C14   C     C_R   0.868125 0.839762 0.326892 -0.278398
C15   C     C_R   0.095216 0.066654 0.661110 0.555046
C16   C     C_R   0.904784 0.933346 0.338890 0.555046
C17   C     C_R   0.049516 0.031556 0.581079 -0.031468
C18   C     C_R   0.950484 0.968444 0.418921 -0.031468
C19   C     C_R   0.038088 0.094917 0.513510 -0.099381
C20   C     C_R   0.961912 0.905083 0.486490 -0.099381
C21   C     C_R   0.011945 0.936214 0.567227 -0.117922
C22   C     C_R   0.988055 0.063786 0.432773 -0.117922
H3    H     H_    0.065724 0.240406 0.479244 0.175359
H4    H     H_    0.934276 0.759594 0.520756 0.175359
C23   C     C_R   0.179404 0.975738 0.966972 -0.123433
C24   C     C_R   0.820596 0.024262 0.033028 -0.123433
H5    H     H_    0.320103 0.958161 0.942578 0.119691
H6    H     H_    0.679897 0.041839 0.057422 0.119691
C25   C     C_R   0.168125 0.039389 0.032063 -0.154050
C26   C     C_R   0.831875 0.960611 0.967937 -0.154050
H7    H     H_    0.300764 0.069002 0.055632 0.118021
H8    H     H_    0.699235 0.930998 0.944368 0.118021
C27   C     C_R   0.988555 0.064574 0.066039 -0.026850
C28   C     C_R   0.011445 0.935426 0.933961 -0.026850
C29   C     C_R   0.326057 0.484954 0.458271 -0.237943
C30   C     C_R   0.673943 0.515046 0.541729 -0.237943
H9    H     H_    0.189907 0.475060 0.426516 0.223921
H10   H     H_    0.810093 0.524939 0.573484 0.223921
C31   C     C_R   0.335094 0.549299 0.522762 0.661025
C32   C     C_R   0.664906 0.450701 0.477238 0.661025
C33   C     C_R   0.509877 0.565129 0.565663 -0.279850
C34   C     C_R   0.490123 0.434871 0.434337 -0.279851
C35   C     C_R   0.320489 0.474616 0.032449 -0.155163
C36   C     C_R   0.679511 0.525384 0.967551 -0.155164
H11   H     H_    0.179691 0.456085 0.056362 0.115288
H12   H     H_    0.820309 0.543915 0.943638 0.115288
C37   C     C_R   0.331583 0.538178 0.967201 -0.152177
C38   C     C_R   0.668417 0.461822 0.032799 -0.152177
H13   H     H_    0.198791 0.566827 0.943020 0.115571
H14   H     H_    0.801209 0.433172 0.056980 0.115571
C39   C     C_R   0.511249 0.564435 0.933818 -0.037380
C40   C     C_R   0.488751 0.435565 0.066182 -0.037380
O21   O     O_3   0.156938 0.315347 0.616838 -0.619515
H15   H     H_    0.188953 0.327419 0.675778 0.287881
O22   O     O_3   0.843062 0.684653 0.383162 -0.619515
H16   H     H_    0.811047 0.672581 0.324222 0.287881
F1    F     F_    0.102546 0.012202 0.729372 -0.713817
F2    F     F_    0.897454 0.987798 0.270628 -0.713817
F3    F     F_    0.172480 0.596722 0.541900 -0.679685
F4    F     F_    0.827520 0.403278 0.458100 -0.679685

loop_
_geom_bond_atom_site_label_1
_geom_bond_atom_site_label_2
_ccdc_geom_bond_type
C7    C22   S    
C32   C34   A    
C8    C21   S    
C25   C27   A    
O13   V3    S    
O4    C2    A    
V1    O19   S    
O22   H16   S    
C13   C15   A    
C5    C27   S    
C11   O21   S    
O9    V1    S    
C38   H14   S    
C30   C33   A    
C12   C14   A    
O3    C1    A    
O12   V4    S    
C15   F1    S    
C29   H9    S    
C4    C39   S    
C35   H11   S    
O7    C3    A    
C30   H10   S    
C1    C34   S    
C3    C40   S    
O7    V1    S    
O6    C8    A    
O8    V2    S    
C31   C33   A    
C36   C38   A    
C35   C37   A    
O14   V4    S    
C23   C25   A    
C1    O11   A    
C2    O12   A    
O5    C7    A    
C36   C39   A    
C15   C17   A    
C35   C40   A    
C16   C18   A    
C24   H6    S    
O11   V3    S    
O17   V3    S    
H1    C14   S    
C30   C32   A    
H2    C13   S    
C16   F2    S    
O8    C4    A    
C18   C20   A    
O15   V3    S    
C26   C28   A    
C23   H5    S    
C9    H3    S    
C24   C27   A    
C6    C28   S    
O10   V2    S    
O1    V3    S    
O3    V1    S    
C17   C19   A    
O18   V4    S    
C25   H7    S    
C12   O22   S    
O16   C6    A    
O1    C3    A    
C37   H13   S    
C10   C12   A    
C9    C19   A    
C10   H4    S    
V2    O20   S    
C19   C22   A    
C20   C21   A    
O16   V4    S    
C9    C11   A    
C14   C16   A    
C32   F4    S    
C31   F3    S    
O5    V1    S    
O17   C7    A    
O6    V2    S    
O10   C6    A    
O18   C8    A    
O2    V4    S    
O15   C5    A    
C11   C13   A    
C18   C22   A    
V4    O20   S    
C10   C20   A    
C29   C34   A    
O9    C5    A    
O13   V1    S    
C26   H8    S    
O14   V2    S    
O2    C4    A    
O21   H15   S    
O4    V2    S    
C29   C31   A    
C2    C33   S    
V3    O19   S    
C38   C40   A    
C37   C39   A    
C36   H12   S    
C23   C28   A    
C17   C21   A    
C24   C26   A    
