data_mof_unit_43606.cif
_audit_creation_date              2012-12-11T14:36:23-0500
_audit_creation_method            fapswitch 2.2
_symmetry_space_group_name_H-M    P1
_symmetry_Int_Tables_number       1
_space_group_crystal_system       triclinic
_cell_length_a                    13.473783
_cell_length_b                    13.484504
_cell_length_c                    27.528764
_cell_angle_alpha                 90.679482
_cell_angle_beta                  90.218268
_cell_angle_gamma                 59.989643
_cell_volume                      4330.76572361

loop_
_atom_site_label
_atom_site_type_symbol
_atom_type_description
_atom_site_fract_x
_atom_site_fract_y
_atom_site_fract_z
_atom_type_partial_charge
C1    C     C_R   0.620249 0.101265 0.570283 0.546462
C2    C     C_1   0.650831 0.703912 0.658386 -0.063327
C3    C     C_3   0.971641 0.822344 0.299507 -0.005692
C4    C     C_3   0.050965 0.754109 0.257010 -0.265185
C5    C     C_3   0.176309 0.685543 0.272581 -0.486208
C6    C     C_3   0.063201 0.184043 0.736605 -0.152968
C7    C     C_R   0.599827 0.779486 0.568817 0.545248
C8    C     C_3   0.131997 0.086398 0.773210 -0.115009
C9    C     C_1   0.095246 0.202504 0.901546 -0.008326
C10   C     C_1   0.229278 0.138226 0.617443 -0.018651
C11   C     C_3   0.073658 0.270599 0.771134 -0.113430
C12   C     C_3   0.143685 0.172164 0.806713 0.017358
C13   C     C_3   0.187164 0.241371 0.745703 0.318596
C14   C     C_3   0.176732 0.156492 0.711763 0.057758
C15   C     C_1   0.631954 0.731666 0.616416 -0.020998
C16   C     C_3   0.257018 0.144975 0.781965 -0.071533
C17   C     C_3   0.245696 0.059050 0.747693 -0.135825
C18   C     C_1   0.121916 0.184422 0.859227 -0.052430
C19   C     C_R   0.277812 0.121826 0.569703 0.543909
C20   C     C_1   0.200599 0.147657 0.659452 -0.042449
C21   C     C_3   0.606980 0.281686 0.740719 -0.099324
C22   C     C_3   0.549909 0.242422 0.778974 -0.087814
C23   C     C_1   0.690953 0.208363 0.902871 -0.012460
C24   C     C_1   0.635390 0.133153 0.618477 -0.013959
C25   C     C_3   0.719225 0.226286 0.770712 -0.106338
C26   C     C_3   0.647413 0.586033 0.769310 -0.098695
C27   C     C_3   0.662004 0.186746 0.808131 0.046429
C28   C     C_3   0.762210 0.111946 0.742506 -0.104611
C29   C     C_3   0.650251 0.167504 0.713286 0.053838
C30   C     C_3   0.705192 0.072666 0.780626 -0.107797
C31   C     C_R   0.621656 0.098565 0.430735 0.545540
C32   C     C_3   0.592971 0.127997 0.750683 -0.090686
C33   C     C_1   0.673827 0.197520 0.860633 -0.056255
C34   C     C_1   0.643504 0.152187 0.660779 -0.052928
C35   C     C_R   0.734152 0.689748 0.359493 -0.129209
C36   C     C_R   0.747926 0.670967 0.309260 0.038401
C37   C     C_3   0.679998 0.653101 0.805333 0.055624
C38   C     C_R   0.771238 0.641284 0.208311 0.002809
C39   C     C_R   0.868201 0.606900 0.237621 -0.106958
C40   C     C_R   0.856569 0.622739 0.287841 -0.072863
C41   C     C_R   0.783374 0.617938 0.158894 -0.158251
C42   C     C_R   0.687241 0.643150 0.130256 0.008188
C43   C     C_R   0.600204 0.778242 0.429695 0.544531
C44   C     C_R   0.530334 0.758288 0.350582 -0.125278
C45   C     C_R   0.541608 0.746657 0.300802 0.005589
C46   C     C_R   0.650351 0.703297 0.279734 0.064618
C47   C     C_R   0.444637 0.781045 0.271938 -0.138337
C48   C     C_3   0.565399 0.699767 0.743671 -0.097518
C49   C     C_R   0.454475 0.773878 0.221766 -0.110165
C50   C     C_R   0.562685 0.727510 0.199680 0.025522
C51   C     C_R   0.661334 0.691465 0.229170 0.043095
C52   C     C_R   0.575809 0.709392 0.149286 0.072976
C53   C     C_R   0.624895 0.734872 0.379988 -0.001506
C54   C     C_R   0.198090 0.067674 0.359530 -0.142550
C55   C     C_R   0.277835 0.121194 0.430950 0.545933
C56   C     C_R   0.170399 0.081825 0.310049 0.015566
C57   C     C_R   0.132505 0.102386 0.209312 0.016147
C58   C     C_R   0.130014 0.013948 0.234638 -0.133624
C59   C     C_3   0.664930 0.681945 0.710677 0.052414
C60   C     C_R   0.148804 0.003895 0.284739 -0.144125
C61   C     C_R   0.109360 0.116334 0.159625 -0.117308
C62   C     C_R   0.105024 0.209749 0.135491 0.002391
C63   C     C_R   0.205294 0.244353 0.359517 -0.127519
C64   C     C_R   0.185026 0.255613 0.310078 0.010455
C65   C     C_R   0.169034 0.173278 0.284936 0.066548
C66   C     C_R   0.186083 0.345092 0.285163 -0.133406
C67   C     C_3   0.746803 0.568528 0.735570 -0.108103
C68   C     C_R   0.172521 0.352358 0.235060 -0.134007
C69   C     C_R   0.155027 0.271840 0.209678 0.012578
C70   C     C_3   0.598167 0.766416 0.780405 -0.099906
C71   C     C_R   0.152677 0.182124 0.234590 0.065111
C72   C     C_R   0.134039 0.283207 0.160120 -0.131111
C73   C     C_R   0.219967 0.146696 0.383835 -0.003237
C74   C     C_R   0.569004 0.235855 0.362339 -0.134656
C75   C     C_R   0.574437 0.253987 0.312719 0.020723
C76   C     C_R   0.584862 0.287787 0.212753 0.023105
C77   C     C_R   0.510284 0.379424 0.242967 -0.127247
C78   C     C_R   0.504166 0.362314 0.292574 -0.126745
C79   C     C_3   0.779673 0.635136 0.772446 -0.107765
C80   C     C_R   0.597573 0.305080 0.163713 -0.131909
C81   C     C_3   0.697566 0.749003 0.746680 -0.105062
C82   C     C_R   0.677039 0.213153 0.134771 0.000564
C83   C     C_R   0.718478 0.037026 0.351772 -0.117846
C84   C     C_R   0.722314 0.051964 0.302132 0.010786
C85   C     C_R   0.649896 0.161252 0.282471 0.021077
C86   C     C_R   0.794809 0.958788 0.271629 0.270161
C87   C     C_R   0.793332 0.975136 0.221685 -0.103272
C88   C     C_R   0.725626 0.084172 0.202266 -0.034740
C89   C     C_R   0.652835 0.177644 0.232464 0.049250
C90   C     C_R   0.734417 0.102065 0.153359 -0.125210
C91   C     C_1   0.697045 0.607341 0.899974 -0.011670
C92   C     C_1   0.688341 0.632734 0.857730 -0.057204
C93   C     C_R   0.640177 0.127119 0.381791 -0.015544
C94   C     C_R   0.048913 0.236409 0.949665 0.549900
C95   C     C_R   0.711493 0.562868 0.948119 0.551365
C96   C     C_R   0.722035 0.225583 0.950850 0.543904
C97   C     C_R   0.048155 0.245033 0.088453 0.551809
C98   C     C_R   0.707238 0.577445 0.085380 0.569253
C99   C     C_R   0.718155 0.234105 0.089206 0.544508
C100  C     C_3   0.138648 0.427128 0.722676 0.008124
C101  C     C_3   0.072462 0.438307 0.675596 -0.271279
C102  C     C_3   0.991670 0.563604 0.663102 -0.481163
Cr1   Cr    Cr6+3 0.417550 0.169090 0.500530 1.021096
Cr2   Cr    Cr6+3 0.669180 0.913420 0.499920 1.019267
Cr3   Cr    Cr6+3 0.413260 0.917540 0.499520 1.018178
Cr4   Cr    Cr6+3 0.909170 0.177380 0.020380 1.035175
Cr5   Cr    Cr6+3 0.912710 0.429210 0.018220 1.025285
Cr6   Cr    Cr6+3 0.657170 0.432570 0.019030 1.054167
H1    H     H_    0.867772 0.608746 0.784992 0.094363
H2    H     H_    0.869165 0.570198 0.143765 0.135246
H3    H     H_    0.807800 0.487343 0.716735 0.098251
H4    H     H_    0.806899 0.672018 0.382274 0.111839
H5    H     H_    0.953037 0.566621 0.221650 0.094829
H6    H     H_    0.932341 0.596648 0.309863 0.110569
H7    H     H_    0.377133 0.800572 0.201037 0.152648
H8    H     H_    0.361063 0.813454 0.288302 0.108722
H9    H     H_    0.444933 0.794547 0.365916 0.134719
H10   H     H_    0.087386 0.059082 0.140604 0.137420
H11   H     H_    0.208012 0.993027 0.378305 0.111948
H12   H     H_    0.336223 0.130135 0.800817 0.105267
H13   H     H_    0.113495 0.952801 0.215723 0.108585
H14   H     H_    0.718482 0.816059 0.736746 0.102521
H15   H     H_    0.147417 0.934886 0.303740 0.090943
H16   H     H_    0.131527 0.354980 0.141603 0.128508
H17   H     H_    0.173906 0.421874 0.216291 0.102060
H18   H     H_    0.199237 0.408287 0.304309 0.099732
H19   H     H_    0.219583 0.307552 0.378031 0.132254
H20   H     H_    0.552231 0.390971 0.149188 0.136034
H21   H     H_    0.507755 0.304982 0.385465 0.115696
H22   H     H_    0.457461 0.464369 0.228316 0.110378
H23   H     H_    0.001250 0.355905 0.781776 0.090696
H24   H     H_    0.445573 0.434036 0.315264 0.103060
H25   H     H_    0.793899 0.030624 0.130682 0.129735
H26   H     H_    0.537194 0.847680 0.799204 0.102915
H27   H     H_    0.846480 0.902745 0.198161 0.117053
H28   H     H_    0.772156 0.952516 0.366649 0.174629
H29   H     H_    0.477180 0.726136 0.731282 0.102739
H30   H     H_    0.626585 0.518888 0.779200 0.103486
H31   H     H_    0.108998 0.022130 0.785203 0.117353
H32   H     H_    0.984016 0.199565 0.717538 0.103116
H33   H     H_    0.316129 0.972039 0.737725 0.106657
H34   H     H_    0.462607 0.295622 0.794459 0.126856
H35   H     H_    0.178795 0.481432 0.719570 0.156018
H36   H     H_    0.080242 0.461494 0.754564 0.111746
H37   H     H_    0.134049 0.396488 0.645148 0.191425
H38   H     H_    0.021180 0.395152 0.679629 0.148313
H39   H     H_    0.931370 0.608583 0.693526 0.152567
H40   H     H_    0.941351 0.568719 0.630235 0.156824
H41   H     H_    0.041342 0.607208 0.655624 0.149125
H42   H     H_    0.999553 0.768253 0.332450 0.146760
H43   H     H_    0.980108 0.898817 0.308361 0.114210
H44   H     H_    0.025467 0.693515 0.241923 0.175989
H45   H     H_    0.567111 0.367460 0.723808 0.105607
H46   H     H_    0.042728 0.813787 0.227787 0.139870
H47   H     H_    0.205173 0.742781 0.288429 0.138356
H48   H     H_    0.230758 0.640541 0.240503 0.147356
H49   H     H_    0.187775 0.620488 0.299803 0.137381
H50   H     H_    0.540806 0.087374 0.741871 0.116653
H51   H     H_    0.745090 0.986808 0.797468 0.105100
H52   H     H_    0.849537 0.058727 0.727043 0.103442
H53   H     H_    0.771420 0.266900 0.779485 0.103954
I1    I     I_    0.430011 0.782709 0.101683 -0.404335
O1    O     O_R   0.301710 0.195650 0.554160 -0.508407
O2    O     O_R   0.635520 0.542770 0.964420 -0.496010
O3    O     O_R   0.665950 0.325030 0.970100 -0.495377
O4    O     O_R   0.522390 0.158990 0.550460 -0.491926
O5    O     O_R   0.816620 0.158530 0.074540 -0.520884
O6    O     O_R   0.004460 0.188870 0.069750 -0.497434
O7    O     O_R   0.025800 0.341780 0.072300 -0.523583
O8    O     O_R   0.807650 0.528950 0.067500 -0.513000
O9    O     O_R   0.633420 0.550490 0.071810 -0.476456
O10   O     O_R   0.664000 0.332180 0.069640 -0.499449
O11   O     O_3   0.826350 0.346390 0.019210 -0.253659
O12   O     O_R   0.658900 0.818120 0.449760 -0.498955
O13   O     O_R   0.694390 0.003530 0.554040 -0.509316
O14   O     O_R   0.657700 0.819660 0.549320 -0.496798
O15   O     O_R   0.501930 0.803280 0.552920 -0.506302
O16   O     O_R   0.318170 0.023580 0.549580 -0.494983
O17   O     O_R   0.303010 0.193990 0.446760 -0.524360
O18   O     O_R   0.523600 0.157450 0.450900 -0.498440
O19   O     O_R   0.695690 0.001860 0.446640 -0.524918
O20   O     O_3   0.228428 0.313628 0.729773 -0.575233
O21   O     O_3   0.857649 0.849148 0.289766 -0.581196
O22   O     O_R   0.503220 0.801620 0.445520 -0.525677
O23   O     O_R   0.319370 0.022040 0.450020 -0.502704
O24   O     O_3   0.499990 0.000010 0.499990 -0.242954
O25   O     O_R   0.818720 0.150820 0.967160 -0.506476
O26   O     O_R   0.006410 0.181720 0.970200 -0.491008
O27   O     O_R   0.027890 0.334070 0.964920 -0.506502
O28   O     O_R   0.809600 0.521790 0.967960 -0.497316

loop_
_geom_bond_atom_site_label_1
_geom_bond_atom_site_label_2
_ccdc_geom_bond_type
C58   H13   S    
C66   C68   A    
Cr6   O3    S    
C101  C102  S    
C35   C53   A    
C82   C99   S    
C4    H46   S    
C35   C36   A    
C14   C17   S    
Cr3   O16   S    
C87   C88   A    
C59   C81   S    
C47   C49   A    
C77   C78   A    
C27   C33   S    
C25   C28   S    
Cr6   O2    S    
C101  H37   S    
C22   C32   S    
C48   H29   S    
C8    H31   S    
C26   C67   S    
C44   H9    S    
C21   C22   S    
C28   C29   S    
C94   O26   A    
Cr4   O25   S    
C29   C32   S    
C42   C98   S    
C38   C39   A    
C43   O12   A    
C52   I1    S    
C58   C60   A    
C56   C65   A    
C83   C93   A    
C43   O22   A    
C28   H52   S    
C97   O7    A    
C23   C96   S    
C7    O15   A    
C17   H33   S    
Cr1   O18   S    
C41   C42   A    
Cr3   O23   S    
C69   C71   A    
C70   C81   S    
C78   H24   S    
C95   O28   A    
C102  H40   S    
C44   C53   A    
C43   C53   S    
C40   H6    S    
C12   C16   S    
C25   H53   S    
C16   C17   S    
C39   H5    S    
C96   O25   A    
C50   C52   A    
C48   C70   S    
C36   C46   A    
C100  O20   S    
C54   H11   S    
C32   H50   S    
C26   C48   S    
C76   C89   A    
C59   C67   S    
C7    C15   S    
Cr2   O19   S    
C13   C14   S    
Cr6   O11   S    
C27   C30   S    
C74   C93   A    
Cr5   O27   S    
C47   H8    S    
Cr1   O24   S    
C68   H17   S    
C75   C85   A    
Cr2   O13   S    
C99   O5    A    
C45   C47   A    
C30   H51   S    
C4    H44   S    
C54   C56   A    
C101  H38   S    
C74   C75   A    
C79   H1    S    
C39   C40   A    
C14   C20   S    
C36   C40   A    
C67   C79   S    
C76   C77   A    
C38   C41   A    
Cr2   O14   S    
C100  H36   S    
C10   C20   T    
C91   C92   T    
C79   C81   S    
C90   H25   S    
C85   C89   A    
C86   C87   A    
C68   C69   A    
Cr2   O12   S    
C99   O10   A    
C63   C73   A    
C23   C33   T    
C5    H47   S    
C21   C29   S    
C46   C51   A    
C24   C34   T    
C66   H18   S    
Cr1   O1    S    
Cr5   O11   S    
C64   C66   A    
Cr3   O24   S    
C60   H15   S    
C13   O20   S    
C87   H27   S    
C102  H39   S    
C6    C14   S    
C62   C97   S    
C37   C79   S    
C54   C73   A    
C83   C84   A    
C10   C19   S    
C8    C12   S    
C55   C73   S    
C7    O14   A    
C22   H34   S    
C50   C51   A    
C62   C72   A    
C19   O1    A    
C84   C85   A    
C2    C15   T    
C19   O16   A    
C83   H28   S    
Cr1   O4    S    
C98   O9    A    
C80   C82   A    
C49   H7    S    
C88   C90   A    
C49   C50   A    
C5    H49   S    
C41   H2    S    
Cr6   O10   S    
C86   O21   S    
C74   H21   S    
C3    C4    S    
C5    H48   S    
C6    C11   S    
C69   C72   A    
Cr2   O24   S    
C44   C45   A    
C48   C59   S    
Cr5   O7    S    
C67   H3    S    
C21   C25   S    
C42   C52   A    
C1    O13   A    
C3    H42   S    
C37   C92   S    
C61   H10   S    
C2    C59   S    
C55   O17   A    
C76   C80   A    
Cr3   O15   S    
C4    C5    S    
C26   H30   S    
C100  H35   S    
C11   H23   S    
C6    C8    S    
C11   C12   S    
C26   C37   S    
C57   C61   A    
C38   C51   A    
C25   C27   S    
C97   O6    A    
C80   H20   S    
C81   H14   S    
C3    H43   S    
C8    C17   S    
C82   C90   A    
C31   O18   A    
C22   C27   S    
C64   C65   A    
C16   H12   S    
C13   C16   S    
C94   O27   A    
Cr4   O26   S    
C31   C93   S    
C95   O2    A    
Cr4   O5    S    
C30   C32   S    
C11   C13   S    
C57   C58   A    
C1    O4    A    
C72   H16   S    
C29   C34   S    
Cr5   O28   S    
C28   C30   S    
C100  C101  S    
Cr4   O11   S    
Cr1   O17   S    
C77   H22   S    
C55   O23   A    
Cr3   O22   S    
C6    H32   S    
C61   C62   A    
C75   C78   A    
C63   H19   S    
C102  H41   S    
C91   C95   S    
C63   C64   A    
C98   O8    A    
C45   C46   A    
C9    C18   T    
C65   C71   A    
C56   C60   A    
C88   C89   A    
C1    C24   S    
C57   C71   A    
Cr6   O9    S    
C12   C18   S    
C70   H26   S    
C21   H45   S    
C96   O3    A    
C84   C86   A    
C37   C70   S    
C3    O21   S    
C9    C94   S    
C31   O19   A    
C35   H4    S    
Cr4   O6    S    
Cr5   O8    S    
