data_mof_unit_35793.cif
_audit_creation_date              2013-03-05T16:47:54-0500
_audit_creation_method            fapswitch 2.2
_symmetry_space_group_name_H-M    P1
_symmetry_Int_Tables_number       1
_space_group_crystal_system       triclinic
_cell_length_a                    8.170713
_cell_length_b                    8.93929
_cell_length_c                    16.458682
_cell_angle_alpha                 89.539143
_cell_angle_beta                  85.24651
_cell_angle_gamma                 90.212325
_cell_volume                      1197.96314662

loop_
_atom_site_label
_atom_site_type_symbol
_atom_site_description
_atom_site_fract_x
_atom_site_fract_y
_atom_site_fract_z
_atom_type_partial_charge
O1    O     O_R   0.363150 0.714660 0.500000 -0.614846
O2    O     O_R   0.636850 0.285340 0.500000 -0.607509
O3    O     O_R   0.636850 0.714660 0.500000 -0.621180
O4    O     O_R   0.363150 0.285340 0.500000 -0.607218
C1    C     C_R   0.500178 0.781782 0.500105 0.929736
C2    C     C_R   0.499779 0.218218 0.500187 0.926830
O5    O     O_R   0.346950 0.500000 0.615800 -0.605150
O6    O     O_R   0.653050 0.500000 0.384200 -0.616796
O7    O     O_R   0.620700 0.500000 0.615800 -0.634210
O8    O     O_R   0.379300 0.500000 0.384200 -0.576977
C3    C     C_R   0.477669 0.497380 0.654113 0.957593
C4    C     C_R   0.523220 0.500819 0.345180 0.925608
Zn1   Zn    Zn3+2 0.317220 0.500000 0.500010 1.018641
Zn2   Zn    Zn3+2 0.682780 0.500000 0.499990 0.990727
N1    N     N_1   0.926360 0.500000 0.499990 -0.029500
N2    N     N_1   0.073640 0.500000 0.500010 -0.023392
C5    C     C_R   0.467970 0.445166 0.737848 -0.228627
C6    C     C_R   0.545528 0.480457 0.256371 -0.284165
C7    C     C_R   0.519420 0.535781 0.799557 0.411253
C8    C     C_R   0.418567 0.431132 0.210749 0.434891
C9    C     C_R   0.532827 0.474469 0.877304 0.253669
C10   C     C_R   0.456634 0.365493 0.133997 0.207402
C11   C     C_R   0.524456 0.315388 0.888982 -0.199517
C12   C     C_R   0.622212 0.364982 0.097881 -0.221500
C13   C     C_R   0.474855 0.225712 0.824807 0.322127
C14   C     C_R   0.743302 0.430605 0.142532 0.384549
C15   C     C_R   0.440036 0.292738 0.751538 -0.359094
C16   C     C_R   0.704686 0.487111 0.219637 -0.336114
C17   C     C_2   0.565734 0.242867 0.967054 0.456161
C18   C     C_2   0.673500 0.312879 0.012444 0.331251
C19   C     C_1   0.500241 0.934771 0.500276 -0.166869
C20   C     C_1   0.499684 0.065232 0.500307 -0.169561
H1    H     H_    0.803937 0.527502 0.253240 0.200738
H2    H     H_    0.407447 0.222713 0.701762 0.192864
N3    N     N_R   0.472405 0.065614 0.830050 0.270237
O9    O     O_R   0.352748 0.990735 0.801930 -0.334128
O10   O     O_R   0.604466 0.994978 0.846711 -0.378700
N4    N     N_R   0.912374 0.418977 0.116733 0.246496
O11   O     O_R   0.988896 0.533803 0.082379 -0.303626
O12   O     O_R   0.994777 0.314683 0.150054 -0.311759
N5    N     N_R   0.326892 0.290060 0.098132 0.282397
O13   O     O_R   0.271354 0.163922 0.129689 -0.310898
O14   O     O_R   0.258096 0.349596 0.037252 -0.297175
N6    N     N_R   0.549255 0.575479 0.943547 0.247404
O15   O     O_R   0.677754 0.661869 0.943359 -0.330756
O16   O     O_R   0.420767 0.606757 0.992245 -0.349954
O17   O     O_3   0.550183 0.686246 0.784813 -0.540059
C21   C     C_3   0.716116 0.706660 0.754132 -0.069074
H3    H     H_    0.783130 0.602088 0.735449 0.104114
H4    H     H_    0.785141 0.762363 0.800743 0.231229
H5    H     H_    0.719475 0.781814 0.699955 0.164520
O18   O     O_3   0.256585 0.439850 0.241843 -0.546771
C22   C     C_3   0.205106 0.589435 0.233112 -0.086161
H6    H     H_    0.217929 0.626337 0.168152 0.208190
H7    H     H_    0.274017 0.667678 0.270054 0.116539
H8    H     H_    0.074100 0.597535 0.255542 0.169433
O19   O     O_3   0.808735 0.383699 0.971584 -0.567318
C23   C     C_3   0.915639 0.275850 0.934344 -0.117361
H9    H     H_    0.861455 0.222447 0.881960 0.128495
H10   H     H_    0.949491 0.189438 0.979033 0.191389
H11   H     H_    0.030495 0.332934 0.910168 0.229210
O20   O     O_3   0.480536 0.113158 0.993431 -0.553358
C24   C     C_3   0.580439 0.013982 0.034765 -0.053897
H12   H     H_    0.598297 0.054592 0.097016 0.114656
H13   H     H_    0.701246 0.995500 0.999948 0.161137
H14   H     H_    0.517029 0.904163 0.041568 0.243732

loop_
_geom_bond_atom_site_label_1
_geom_bond_atom_site_label_2
_geom_bond_distance
_ccdc_geom_bond_type
C2    C20   1.367567 S    
O7    Zn2   1.931370 S    
C24   H13   1.113094 S    
C17   C18   1.355573 D    
C13   C15   1.393069 A    
C9    N6    1.435695 S    
N5    O14   1.300080 A    
N5    O13   1.301872 A    
C14   C16   1.382145 A    
O17   C21   1.417633 S    
O6    C4    1.284788 A    
C23   H11   1.109376 S    
C22   H7    1.112020 S    
C24   H14   1.108848 S    
C8    O18   1.381594 S    
O2    C2    1.268382 A    
C22   H6    1.112841 S    
N6    O15   1.300839 A    
N4    O12   1.296505 A    
O7    C3    1.281163 A    
O19   C23   1.412494 S    
O20   C24   1.415209 S    
O3    Zn2   1.956624 S    
O8    C4    1.292287 A    
C13   N3    1.433035 S    
O1    C1    1.268437 A    
C11   C17   1.498394 S    
C21   H4    1.109199 S    
C21   H3    1.117458 S    
C7    C9    1.400787 A    
C12   C14   1.409335 A    
C16   H1    1.081322 S    
O5    C3    1.284730 A    
C10   C12   1.431950 A    
C9    C11   1.434091 A    
C15   H2    1.084942 S    
N4    O11   1.300606 A    
O2    Zn2   1.953892 S    
C7    O17   1.383242 S    
Zn1   N2    1.990222 S    
C12   C18   1.511365 S    
O1    Zn1   1.953891 S    
C23   H10   1.113722 S    
N1    N2    1.203410 T    
C10   N5    1.425392 S    
C18   O19   1.392411 S    
O3    C1    1.269534 A    
O5    Zn1   1.941036 S    
C11   C13   1.415865 A    
C6    C16   1.388786 A    
O18   C22   1.413049 S    
N3    O10   1.299820 A    
C6    C8    1.401933 A    
O4    C2    1.269563 A    
C22   H8    1.105812 S    
C4    C6    1.470801 S    
O4    Zn1   1.956624 S    
C17   O20   1.397624 S    
C3    C5    1.447321 S    
O6    Zn2   1.941036 S    
N6    O16   1.299635 A    
C5    C7    1.394956 A    
C23   H9    1.111545 S    
Zn2   N1    1.990222 S    
O8    Zn1   1.931370 S    
C21   H5    1.110571 S    
C14   N4    1.415638 S    
C19   C20   1.166252 T    
C8    C10   1.408877 A    
C24   H12   1.110493 S    
C1    C19   1.367646 S    
N3    O9    1.301244 A    
C5    C15   1.394198 A    
