data_mof_unit_36389.cif
_audit_creation_date              2012-12-11T16:29:22-0500
_audit_creation_method            fapswitch 2.2
_symmetry_space_group_name_H-M    P1
_symmetry_Int_Tables_number       1
_space_group_crystal_system       triclinic
_cell_length_a                    6.953517
_cell_length_b                    17.288799
_cell_length_c                    18.795436
_cell_angle_alpha                 106.31762
_cell_angle_beta                  90.022541
_cell_angle_gamma                 90.688006
_cell_volume                      2168.35884454

loop_
_atom_site_label
_atom_site_type_symbol
_atom_type_description
_atom_site_fract_x
_atom_site_fract_y
_atom_site_fract_z
_atom_type_partial_charge
O1    O     O_R   0.494360 0.415680 0.413760 -0.518181
O2    O     O_R   0.818810 0.432910 0.557230 -0.530422
O3    O     O_R   0.994290 0.584320 0.586240 -0.542059
C1    C     C_R   0.649968 0.415971 0.580622 0.688875
O4    O     O_R   0.823740 0.406440 0.412520 -0.540584
O5    O     O_R   0.999250 0.557660 0.440500 -0.521523
C2    C     C_R   0.654379 0.384137 0.384565 0.827980
O6    O     O_R   0.489400 0.442340 0.559500 -0.529353
O7    O     O_3   0.662500 0.549650 0.509350 -0.362361
V1    V     V_3+5 0.935340 0.490790 0.498270 1.487066
O8    O     O_R   0.329270 0.567090 0.442770 -0.504799
C3    C     C_R   0.161091 0.583536 0.418933 0.807747
O9    O     O_R   0.324340 0.593560 0.587480 -0.537810
C4    C     C_R   0.156544 0.618427 0.613573 0.773764
V2    V     V_3+5 0.435970 0.509210 0.501730 1.504504
O10   O     O_3   0.158940 0.450350 0.490650 -0.370919
H1    H     H_    0.126288 0.882800 0.557054 0.171564
C5    C     C_R   0.189670 0.590958 0.755848 -0.379685
C6    C     C_R   0.193814 0.572954 0.823286 0.556343
C7    C     C_R   0.153310 0.632093 0.888217 0.531047
C8    C     C_R   0.109660 0.710569 0.886552 0.211246
C9    C     C_R   0.126898 0.732846 0.819057 -0.112703
C10   C     C_R   0.155939 0.670326 0.752068 -0.065640
C11   C     C_R   0.112186 0.814280 0.816414 -0.115693
C12   C     C_R   0.109353 0.831614 0.746596 -0.114219
C13   C     C_R   0.139212 0.768468 0.679659 -0.082187
C14   C     C_R   0.152727 0.687169 0.682521 -0.063279
C15   C     C_R   0.076537 0.911144 0.741416 0.567087
C16   C     C_R   0.076424 0.927575 0.673217 -0.222216
C17   C     C_R   0.118682 0.867857 0.609223 -0.278786
C18   C     C_R   0.159537 0.789732 0.611877 0.417955
H2    H     H_    0.217268 0.541951 0.706764 0.167140
H3    H     H_    0.048231 0.988047 0.670220 0.181185
C19   C     C_1   0.111769 0.864401 0.133033 -0.168298
C20   C     C_1   0.119195 0.821749 0.176517 0.018904
C21   C     C_1   0.128553 0.771385 0.228274 0.022666
C22   C     C_1   0.136519 0.728924 0.271936 0.017646
C23   C     C_1   0.145785 0.678465 0.323626 0.020789
C24   C     C_1   0.153153 0.635682 0.367012 -0.139635
C25   C     C_1   0.641596 0.364033 0.632656 -0.156633
C26   C     C_1   0.637378 0.321448 0.676235 0.075845
C27   C     C_1   0.633859 0.271210 0.728131 0.063235
C28   C     C_1   0.631207 0.228884 0.771950 0.038056
C29   C     C_1   0.627692 0.178642 0.823843 0.032963
C30   C     C_1   0.623478 0.136052 0.867419 -0.149607
C31   C     C_R   0.557838 0.407717 0.240166 0.565595
C32   C     C_R   0.509062 0.419142 0.171964 -0.143419
C33   C     C_R   0.497109 0.354153 0.109020 -0.192549
C34   C     C_R   0.534375 0.276851 0.113451 -0.156892
C35   C     C_R   0.582279 0.262346 0.181862 -0.002872
C36   C     C_R   0.593384 0.329004 0.246928 -0.040508
C37   C     C_R   0.622428 0.183004 0.185242 -0.127171
C38   C     C_R   0.674444 0.169448 0.254317 -0.013314
C39   C     C_R   0.683966 0.236493 0.319412 -0.081546
C40   C     C_R   0.642978 0.315644 0.315875 -0.129627
C41   C     C_R   0.714233 0.090775 0.261600 0.349744
C42   C     C_R   0.771813 0.081571 0.330249 -0.273774
C43   C     C_R   0.778891 0.146845 0.392882 0.633653
C44   C     C_R   0.733502 0.223071 0.388017 -0.247725
H4    H     H_    0.482054 0.479271 0.167798 0.163331
H5    H     H_    0.460564 0.363770 0.056179 0.169283
H6    H     H_    0.526391 0.228879 0.062205 0.109043
H7    H     H_    0.810614 0.022726 0.334948 0.159492
H8    H     H_    0.739061 0.271452 0.439023 0.130548
O11   O     O_R   0.775690 0.057750 0.940570 -0.499832
O12   O     O_R   0.441200 0.093570 0.087490 -0.551561
O13   O     O_R   0.265840 0.942320 0.059480 -0.543036
C45   C     C_R   0.610509 0.115266 0.115972 0.773315
O14   O     O_R   0.446270 0.067110 0.942790 -0.525693
O15   O     O_R   0.270950 0.915660 0.913750 -0.538303
C46   C     C_R   0.615114 0.084097 0.919436 0.725712
O16   O     O_R   0.770580 0.084400 0.086300 -0.520946
O17   O     O_3   0.602640 0.950400 0.990690 -0.376772
V3    V     V_3+5 0.329740 0.009200 0.001730 1.483467
O18   O     O_R   0.940900 0.906360 0.912450 -0.519126
C47   C     C_R   0.108683 0.881927 0.886020 0.922472
O19   O     O_R   0.935830 0.932820 0.057160 -0.513867
C48   C     C_R   0.103968 0.916425 0.081025 0.773876
V4    V     V_3+5 0.829130 0.990680 0.998180 1.533600
O20   O     O_3   0.106100 0.049590 0.009310 -0.359367
F1    F     F_    0.573169 0.475016 0.298261 -0.712848
O21   O     O_3   0.712126 0.023009 0.201241 -0.556938
C49   C     C_3   0.552702 0.973778 0.206695 -0.218453
H9    H     H_    0.415480 0.007359 0.211118 0.121189
H10   H     H_    0.568173 0.947625 0.254051 0.133322
H11   H     H_    0.545403 0.922685 0.155509 0.162280
F2    F     F_    0.231544 0.496788 0.825272 -0.630091
F3    F     F_    0.149465 0.612766 0.953389 -0.624138
O22   O     O_3   0.042884 0.763599 0.950903 -0.559094
C50   C     C_3   0.844386 0.747926 0.956935 -0.128936
H12   H     H_    0.816866 0.685705 0.960796 0.173737
H13   H     H_    0.761893 0.758267 0.909709 0.108038
H14   H     H_    0.788710 0.789699 0.008594 0.149679
F4    F     F_    0.039017 0.974138 0.801343 -0.705798
O23   O     O_3   0.226191 0.735763 0.548043 -0.576989
C51   C     C_3   0.423125 0.752892 0.540241 -0.215963
H15   H     H_    0.508903 0.746335 0.588224 0.136494
H16   H     H_    0.445381 0.814083 0.533038 0.135310
H17   H     H_    0.479349 0.709377 0.489708 0.168750
F5    F     F_    0.830397 0.136231 0.459078 -0.671799

loop_
_geom_bond_atom_site_label_1
_geom_bond_atom_site_label_2
_ccdc_geom_bond_type
O12   C45   A    
O18   C47   A    
O11   V4    S    
C30   C46   S    
O17   V3    S    
O23   C51   S    
C2    C40   S    
C1    O6    A    
C50   H12   S    
C8    O22   S    
C38   C39   A    
C29   C30   T    
C12   C15   A    
C44   H8    S    
C16   C17   A    
C15   C16   A    
C5    C6    A    
O16   V4    S    
C6    F2    S    
O5    C3    A    
C17   C18   A    
V2    O10   S    
O12   V3    S    
C51   H17   S    
C16   H3    S    
C41   C42   A    
C15   F4    S    
C19   C20   T    
C26   C27   S    
O14   C46   A    
C32   H4    S    
C39   C40   A    
O8    V2    S    
C1    C25   S    
C51   H16   S    
O15   V3    S    
C35   C37   A    
O1    V2    S    
C10   C14   A    
C4    C14   S    
O7    V1    S    
C37   C45   S    
C13   C18   A    
V3    O20   S    
O9    C4    A    
H1    C17   S    
O13   C48   A    
C42   H7    S    
C39   C44   A    
O19   V4    S    
O17   V4    S    
C5    C10   A    
C32   C33   A    
C43   F5    S    
C11   C12   A    
O4    C2    A    
C11   C47   S    
C12   C13   A    
O19   C48   A    
C31   C36   A    
C20   C21   S    
O2    C1    A    
C28   C29   S    
C22   C23   S    
C31   F1    S    
C50   H13   S    
C49   H9    S    
C45   O16   A    
C51   H15   S    
C35   C36   A    
C13   C14   A    
O14   V3    S    
O13   V3    S    
O3    C4    A    
C33   C34   A    
C49   H10   S    
O21   C49   S    
O6    V2    S    
O9    V2    S    
O15   C47   A    
C9    C11   A    
C5    H2    S    
C27   C28   T    
O2    V1    S    
C37   C38   A    
C50   H14   S    
C38   C41   A    
C31   C32   A    
C25   C26   T    
C34   H6    S    
O1    C2    A    
O5    V1    S    
O8    C3    A    
C41   O21   S    
C6    C7    A    
C43   C44   A    
O4    V1    S    
O3    V1    S    
O11   C46   A    
C19   C48   S    
C42   C43   A    
C23   C24   T    
C3    C24   S    
C18   O23   S    
C7    F3    S    
C36   C40   A    
O7    V2    S    
V4    O20   S    
C49   H11   S    
C7    C8    A    
C21   C22   T    
C34   C35   A    
C33   H5    S    
C9    C10   A    
V1    O10   S    
O22   C50   S    
C8    C9    A    
O18   V4    S    
