data_mof_unit_12194.cif
_audit_creation_date              2012-12-10T17:32:58-0500
_audit_creation_method            fapswitch 2.2
_symmetry_space_group_name_H-M    P1
_symmetry_Int_Tables_number       1
_space_group_crystal_system       triclinic
_cell_length_a                    12.362913
_cell_length_b                    13.214321
_cell_length_c                    14.226472
_cell_angle_alpha                 92.833811
_cell_angle_beta                  107.916567
_cell_angle_gamma                 117.043831
_cell_volume                      1919.86267809

loop_
_atom_site_label
_atom_site_type_symbol
_atom_type_description
_atom_site_fract_x
_atom_site_fract_y
_atom_site_fract_z
_atom_type_partial_charge
C1    C     C_R   0.652174 0.714557 0.510929 0.853787
C2    C     C_R   0.894406 0.560613 0.922113 0.079680
C3    C     C_R   0.877883 0.621689 0.995978 0.098181
C4    C     C_R   0.001905 0.540254 0.949559 0.006464
C5    C     C_R   0.078824 0.563128 0.053759 -0.011095
C6    C     C_R   0.064645 0.629551 0.126950 0.465820
C7    C     C_R   0.965370 0.659130 0.095908 -0.314954
C8    C     C_R   0.037396 0.501292 0.875601 -0.214407
C9    C     C_R   0.136701 0.473745 0.902602 -0.189155
C10   C     C_R   0.200062 0.478477 0.003805 0.044779
C11   C     C_R   0.168637 0.520027 0.079955 0.040602
C12   C     C_R   0.621332 0.520546 0.687030 0.777315
C13   C     C_R   0.293011 0.440394 0.029960 0.483194
C14   C     C_R   0.350716 0.439574 0.131085 -0.281574
C15   C     C_R   0.220809 0.509057 0.178757 -0.212708
C16   C     C_R   0.113001 0.974270 0.338568 -0.253978
C17   C     C_R   0.245147 0.161877 0.456647 -0.152079
C18   C     C_R   0.752783 0.917897 0.599964 -0.197849
C19   C     C_R   0.853911 0.032242 0.629487 -0.132814
C20   C     C_R   0.948792 0.067647 0.586817 -0.144128
C21   C     C_R   0.940647 0.989828 0.509150 0.038948
C22   C     C_R   0.828079 0.877340 0.470480 -0.038754
C23   C     C_R   0.344259 0.285053 0.483268 0.819986
C24   C     C_R   0.038850 0.020963 0.467003 0.078707
C25   C     C_R   0.018815 0.943378 0.382815 0.002633
C26   C     C_R   0.901626 0.838796 0.339401 -0.296770
C27   C     C_R   0.803978 0.808127 0.378927 0.493329
C28   C     C_R   0.156213 0.127583 0.505391 -0.304048
C29   C     C_R   0.224005 0.085006 0.372469 0.509661
C30   C     C_R   0.741422 0.838757 0.523230 -0.096588
C31   C     C_R   0.254068 0.684506 0.662257 -0.299806
C32   C     C_R   0.654932 0.343166 0.362953 0.104828
C33   C     C_R   0.732592 0.309216 0.332394 -0.249534
C34   C     C_R   0.379909 0.481189 0.312987 0.855073
C35   C     C_R   0.867858 0.368136 0.383862 -0.208271
C36   C     C_R   0.927862 0.462630 0.467165 -0.006520
C37   C     C_R   0.843855 0.494557 0.495635 0.291880
C38   C     C_R   0.067467 0.526591 0.523077 -0.045332
C39   C     C_R   0.119172 0.620462 0.605854 0.172479
C40   C     C_R   0.036272 0.650376 0.632072 -0.290921
C41   C     C_R   0.902282 0.589333 0.578217 -0.197695
C42   C     C_R   0.159244 0.502213 0.501112 0.000778
C43   C     C_R   0.338440 0.656233 0.636799 0.069092
C44   C     C_R   0.701806 0.548558 0.794825 -0.047366
C45   C     C_R   0.315419 0.474799 0.205712 -0.169334
C46   C     C_R   0.775858 0.647918 0.968360 -0.179018
C47   C     C_R   0.689548 0.613152 0.867942 -0.220903
C48   C     C_R   0.801286 0.520046 0.822925 -0.229589
Cu1   Cu    Cu3+1 0.416420 0.526630 0.522910 0.932974
Cu2   Cu    Cu3+1 0.583580 0.473370 0.477090 0.970447
H1    H     H_    0.957453 0.713565 0.149776 0.140730
H2    H     H_    0.882292 0.782872 0.271013 0.149114
H3    H     H_    0.097241 0.915134 0.273942 0.153564
H4    H     H_    0.180052 0.188278 0.571726 0.164829
H5    H     H_    0.686112 0.890165 0.640052 0.146227
H6    H     H_    0.025339 0.157254 0.614967 0.132465
H7    H     H_    0.861794 0.092816 0.688743 0.144237
H8    H     H_    0.442498 0.705524 0.680295 0.114755
H9    H     H_    0.184633 0.521912 0.235333 0.207240
H10   H     H_    0.075521 0.722341 0.695304 0.160690
H11   H     H_    0.128389 0.432369 0.439487 0.124067
H12   H     H_    0.550405 0.297065 0.322218 0.155701
H13   H     H_    0.923036 0.338119 0.356860 0.135390
H14   H     H_    0.687651 0.236852 0.268380 0.150067
H15   H     H_    0.848255 0.620088 0.604343 0.202087
H16   H     H_    0.421295 0.409505 0.150639 0.173918
H17   H     H_    0.160664 0.445026 0.843054 0.186440
H18   H     H_    0.763988 0.696741 0.024164 0.128321
H19   H     H_    0.614477 0.637927 0.847384 0.143222
H20   H     H_    0.803392 0.464623 0.766094 0.153138
H21   H     H_    0.993083 0.495446 0.795841 0.153206
N1    N     N_R   0.290690 0.566960 0.557640 -0.175990
N2    N     N_R   0.709100 0.433710 0.442970 -0.205955
O1    O     O_R   0.545970 0.684450 0.528810 -0.590194
O2    O     O_R   0.687130 0.639470 0.490120 -0.563126
O3    O     O_R   0.519670 0.535100 0.660030 -0.585898
O4    O     O_R   0.660830 0.490120 0.621340 -0.608115
O5    O     O_R   0.312870 0.360530 0.509880 -0.592909
O6    O     O_R   0.454030 0.315550 0.471190 -0.541686
O7    O     O_R   0.339170 0.509880 0.378660 -0.592940
O8    O     O_R   0.480330 0.464900 0.339970 -0.562044
O9    O     O_3   0.319002 0.394523 0.955623 -0.588610
C49   C     C_3   0.441379 0.477778 0.955750 -0.339233
H22   H     H_    0.522200 0.494882 0.027620 0.174499
H23   H     H_    0.442903 0.560586 0.941991 0.150844
H24   H     H_    0.458886 0.442422 0.893078 0.208249
O10   O     O_3   0.310527 0.118535 0.322498 -0.572743
C50   C     C_3   0.254905 0.145142 0.231394 -0.321327
H25   H     H_    0.327416 0.178868 0.194380 0.182705
H26   H     H_    0.230324 0.214254 0.245823 0.138630
H27   H     H_    0.166837 0.066108 0.177495 0.165141
O11   O     O_3   0.681626 0.715119 0.322156 -0.567856
C51   C     C_3   0.608192 0.759054 0.259244 -0.334553
H28   H     H_    0.658737 0.810575 0.211262 0.151157
H29   H     H_    0.585710 0.812381 0.304821 0.177129
H30   H     H_    0.514192 0.685115 0.206972 0.201145
H31   H     H_    0.294117 0.756256 0.725823 0.139552
O12   O     O_3   0.162037 0.683403 0.222915 -0.576655
C52   C     C_3   0.108126 0.663197 0.299141 -0.325678
H32   H     H_    0.185641 0.676225 0.371352 0.207986
H33   H     H_    0.025980 0.572416 0.282575 0.147397
H34   H     H_    0.076394 0.727149 0.311617 0.176224

loop_
_geom_bond_atom_site_label_1
_geom_bond_atom_site_label_2
_ccdc_geom_bond_type
O10   C50   S    
C43   N1    A    
C40   H10   S    
C17   C29   A    
C19   C20   A    
C4    C8    A    
Cu2   O6    S    
C19   H7    S    
C26   C27   A    
C17   C23   S    
C31   C43   A    
C1    O1    A    
C6    O12   S    
O11   C51   S    
C36   C37   A    
C5    C11   A    
C3    C7    A    
C38   C39   A    
O12   C52   S    
Cu1   O5    S    
C18   C19   A    
C16   H3    S    
C47   H19   S    
C43   H8    S    
C34   O7    A    
C11   C15   A    
C35   C36   A    
C8    C9    A    
Cu1   N1    S    
C18   C30   A    
C34   O8    A    
C9    C10   A    
C44   C47   A    
C20   H6    S    
C51   H29   S    
C21   C22   A    
C14   C45   A    
C1    O2    A    
C24   C25   A    
Cu2   N2    S    
C39   C40   A    
C28   H4    S    
C41   H15   S    
C2    C48   A    
C16   C29   A    
C13   O9    S    
C2    C4    A    
C9    H17   S    
C46   H18   S    
C26   H2    S    
C49   H22   S    
C50   H27   S    
C12   O4    A    
C52   H34   S    
C42   N1    A    
C14   H16   S    
Cu1   O3    S    
C27   O11   S    
C34   C45   S    
C50   H25   S    
C42   H11   S    
C18   H5    S    
C40   C41   A    
C49   H23   S    
C50   H26   S    
O9    C49   S    
C51   H30   S    
C22   C27   A    
C12   O3    A    
C15   C45   A    
Cu2   O4    S    
C32   N2    A    
C16   C25   A    
C37   N2    A    
C46   C47   A    
C8    H21   S    
C22   C30   A    
C52   H33   S    
C17   C28   A    
C15   H9    S    
C24   C28   A    
C48   H20   S    
C4    C5    A    
C10   C13   A    
Cu1   O7    S    
C38   C42   A    
C6    C7    A    
C51   H28   S    
C3    C46   A    
C52   H32   S    
C32   C33   A    
C36   C38   A    
C2    C3    A    
C25   C26   A    
C7    H1    S    
C12   C44   S    
Cu2   O2    S    
C5    C6    A    
C33   H14   S    
C1    C30   S    
C33   C35   A    
C31   C39   A    
C31   H31   S    
C23   O5    A    
C37   C41   A    
C29   O10   S    
C10   C11   A    
C32   H12   S    
C49   H24   S    
C20   C21   A    
Cu1   Cu2   S    
C21   C24   A    
Cu1   O1    S    
C35   H13   S    
C23   O6    A    
C13   C14   A    
C44   C48   A    
Cu2   O8    S    
