data_mof_unit_6835.cif
_audit_creation_date              2012-12-11T14:11:05-0500
_audit_creation_method            fapswitch 2.2
_symmetry_space_group_name_H-M    P1
_symmetry_Int_Tables_number       1
_space_group_crystal_system       triclinic
_cell_length_a                    19.715123
_cell_length_b                    17.169781
_cell_length_c                    15.468597
_cell_angle_alpha                 90.008207
_cell_angle_beta                  52.542582
_cell_angle_gamma                 90.002101
_cell_volume                      4156.51447781

loop_
_atom_site_label
_atom_site_type_symbol
_atom_type_description
_atom_site_fract_x
_atom_site_fract_y
_atom_site_fract_z
_atom_type_partial_charge
C1    C     C_R   0.339051 0.174926 0.049123 -0.113764
C2    C     C_3   0.813423 0.819328 0.404137 -0.219055
C3    C     C_3   0.707652 0.237282 0.430849 -0.218508
C4    C     C_3   0.200946 0.813148 0.589917 -0.290747
C5    C     C_3   0.780672 0.732764 0.572737 -0.214209
C6    C     C_3   0.313201 0.319253 0.404217 -0.219150
C7    C     C_3   0.207554 0.737336 0.430880 -0.218539
C8    C     C_3   0.700822 0.313207 0.589979 -0.290722
C9    C     C_2   0.286695 0.686995 0.954241 -0.195776
C10   C     C_2   0.809584 0.256448 0.905244 -0.206855
C11   C     C_2   0.713191 0.686942 0.046018 -0.198393
C12   C     C_R   0.625838 0.802852 0.004726 -0.125096
C13   C     C_2   0.190411 0.256475 0.094836 -0.208360
C14   C     C_2   0.786695 0.186995 0.954240 -0.195784
C15   C     C_2   0.309585 0.756447 0.905243 -0.206830
C16   C     C_2   0.213187 0.186940 0.046023 -0.198376
C17   C     C_2   0.690415 0.756475 0.094831 -0.208374
C18   C     C_R   0.349927 0.826669 0.220325 -0.119339
C19   C     C_R   0.608855 0.197673 0.787207 -0.138323
C20   C     C_R   0.650481 0.827128 0.779531 -0.116735
C21   C     C_R   0.392086 0.197947 0.212332 -0.148453
C22   C     C_R   0.849931 0.326665 0.220326 -0.119362
C23   C     C_R   0.660865 0.175019 0.951103 -0.113274
C24   C     C_R   0.108870 0.697669 0.787197 -0.138264
C25   C     C_R   0.150500 0.327149 0.779536 -0.116593
C26   C     C_R   0.892135 0.697961 0.212305 -0.148628
C27   C     C_R   0.365278 0.889854 0.897241 -0.163207
C28   C     C_R   0.670166 0.086662 0.048878 -0.155661
C29   C     C_R   0.634707 0.889870 0.102784 -0.163347
C30   C     C_R   0.329774 0.086618 0.951250 -0.155431
C31   C     C_R   0.865278 0.389854 0.897241 -0.163209
C32   C     C_R   0.170166 0.586662 0.048879 -0.155660
C33   C     C_R   0.134705 0.389869 0.102786 -0.163343
C34   C     C_R   0.374118 0.802870 0.995348 -0.123644
C35   C     C_R   0.829774 0.586618 0.951250 -0.155425
C36   C     C_R   0.399886 0.106325 0.308480 -0.143000
C37   C     C_R   0.643374 0.920192 0.683419 -0.136666
C38   C     C_R   0.599864 0.106347 0.691721 -0.153626
C39   C     C_R   0.356960 0.919660 0.316731 -0.143572
C40   C     C_R   0.899929 0.606339 0.308456 -0.142850
C41   C     C_R   0.143392 0.420213 0.683427 -0.136772
C42   C     C_R   0.099870 0.606344 0.691717 -0.153750
C43   C     C_R   0.856962 0.419659 0.316731 -0.143568
C44   C     C_R   0.287220 0.147674 0.023540 0.151436
C45   C     C_R   0.839050 0.674924 0.049128 -0.113785
C46   C     C_R   0.653296 0.814118 0.066893 0.157781
C47   C     C_R   0.712678 0.147753 0.976696 0.150782
C48   C     C_R   0.346672 0.814119 0.933176 0.157493
C49   C     C_R   0.787220 0.647673 0.023541 0.151439
C50   C     C_R   0.153292 0.314117 0.066897 0.157782
C51   C     C_R   0.212677 0.647754 0.976698 0.150776
C52   C     C_R   0.846671 0.314119 0.933177 0.157488
C53   C     C_R   0.308608 0.859014 0.322266 0.055470
C54   C     C_R   0.622755 0.181687 0.690829 0.057552
C55   C     C_R   0.691982 0.859614 0.677450 0.052203
C56   C     C_R   0.125836 0.302851 0.004730 -0.125104
C57   C     C_R   0.378282 0.182055 0.308648 0.055216
C58   C     C_R   0.808615 0.359006 0.322270 0.055481
C59   C     C_R   0.122779 0.681679 0.690813 0.057575
C60   C     C_R   0.192013 0.359647 0.677460 0.052152
C61   C     C_R   0.878372 0.682080 0.308596 0.055228
C62   C     C_3   0.252205 0.214597 0.502619 0.265679
C63   C     C_3   0.841339 0.838173 0.475698 0.267299
C64   C     C_3   0.742455 0.208051 0.490490 0.260403
C65   C     C_3   0.166712 0.843081 0.529364 0.262312
C66   C     C_3   0.752181 0.714675 0.502433 0.265724
C67   C     C_R   0.160865 0.675020 0.951105 -0.113266
C68   C     C_3   0.341270 0.338260 0.475568 0.267248
C69   C     C_3   0.242412 0.708009 0.490416 0.260389
C70   C     C_3   0.666642 0.343047 0.529321 0.262306
C71   C     C_3   0.723304 0.797963 0.507664 -0.230831
C72   C     C_3   0.371552 0.253805 0.468249 -0.243427
C73   C     C_3   0.283766 0.785821 0.480315 -0.229528
C74   C     C_3   0.623939 0.263995 0.541832 -0.203101
C75   C     C_3   0.223180 0.297827 0.507883 -0.230645
C76   C     C_3   0.871470 0.753661 0.468415 -0.243627
C77   C     C_3   0.783712 0.285914 0.480430 -0.229632
C78   C     C_R   0.874118 0.302870 0.995349 -0.123650
C79   C     C_3   0.123910 0.764081 0.541917 -0.203051
C80   C     C_3   0.752678 0.817577 0.577745 0.063334
C81   C     C_3   0.340811 0.234397 0.399746 0.070352
C82   C     C_3   0.248191 0.816793 0.421352 0.099134
C83   C     C_3   0.660804 0.233639 0.599297 0.074306
C84   C     C_3   0.252702 0.317606 0.577755 0.063265
C85   C     C_3   0.840883 0.734417 0.399698 0.070383
C86   C     C_3   0.748190 0.316790 0.421360 0.099152
C87   C     C_3   0.160829 0.733628 0.599276 0.074272
C88   C     C_3   0.121643 0.139337 0.622296 -0.952487
C89   C     C_3   0.280849 0.232850 0.572717 -0.214244
C90   C     C_3   0.970469 0.916630 0.363712 -0.947201
C91   C     C_3   0.856971 0.119006 0.360634 -0.943450
C92   C     C_3   0.094053 0.933620 0.488723 -0.939806
C93   C     C_3   0.621508 0.639491 0.621807 -0.952392
C94   C     C_3   0.470311 0.416797 0.363320 -0.947239
C95   C     C_3   0.356821 0.618915 0.360454 -0.943529
C96   C     C_3   0.593983 0.433450 0.488522 -0.939666
H1    H     H_    0.329010 0.224266 0.098689 0.087027
H2    H     H_    0.610884 0.254171 0.816406 0.090995
H3    H     H_    0.669081 0.776147 0.801272 0.090657
H4    H     H_    0.390341 0.254448 0.182909 0.091102
H5    H     H_    0.831650 0.275362 0.198683 0.092600
H6    H     H_    0.110902 0.754167 0.816392 0.090985
H7    H     H_    0.169100 0.276167 0.801274 0.090653
H8    H     H_    0.890387 0.754458 0.182876 0.091146
H9    H     H_    0.361629 0.915902 0.836497 0.091002
H10   H     H_    0.690436 0.052901 0.088501 0.097474
H11   H     H_    0.638360 0.915950 0.163517 0.091479
H12   H     H_    0.618548 0.748038 0.976973 0.081193
H13   H     H_    0.309485 0.052852 0.911644 0.097097
H14   H     H_    0.861628 0.415902 0.836498 0.091002
H15   H     H_    0.190435 0.552901 0.088502 0.097476
H16   H     H_    0.138358 0.415950 0.163518 0.091480
H17   H     H_    0.809486 0.552854 0.911641 0.097094
H18   H     H_    0.404729 0.078574 0.367305 0.097350
H19   H     H_    0.655456 0.954711 0.616952 0.109355
H20   H     H_    0.594677 0.078704 0.633119 0.102123
H21   H     H_    0.344952 0.953848 0.383410 0.100977
H22   H     H_    0.904768 0.578582 0.367280 0.097300
H23   H     H_    0.670843 0.224467 0.901764 0.086483
H24   H     H_    0.155479 0.454731 0.616957 0.109398
H25   H     H_    0.094678 0.578703 0.633120 0.102167
H26   H     H_    0.844951 0.453853 0.383409 0.100993
H27   H     H_    0.661686 0.814797 0.525087 0.128751
H28   H     H_    0.433712 0.236114 0.448509 0.128526
H29   H     H_    0.349973 0.793576 0.453419 0.133160
H30   H     H_    0.557406 0.254912 0.570681 0.124174
H31   H     H_    0.161479 0.314550 0.525462 0.128780
H32   H     H_    0.933547 0.735858 0.448834 0.128523
H33   H     H_    0.849887 0.293742 0.453616 0.133141
H34   H     H_    0.381409 0.748071 0.023110 0.081161
H35   H     H_    0.057345 0.755073 0.570850 0.124180
H36   H     H_    0.267121 0.197130 0.641503 0.118571
H37   H     H_    0.828304 0.854490 0.334316 0.122297
H38   H     H_    0.711231 0.206530 0.365069 0.118286
H39   H     H_    0.196746 0.844431 0.655825 0.127786
H40   H     H_    0.766775 0.696975 0.641560 0.118558
H41   H     H_    0.327911 0.354358 0.334441 0.122286
H42   H     H_    0.211045 0.706636 0.365131 0.118305
H43   H     H_    0.696531 0.344535 0.655923 0.127777
H44   H     H_    0.310092 0.665871 0.997733 0.123226
H45   H     H_    0.829007 0.724260 0.098700 0.087035
H46   H     H_    0.788199 0.276764 0.859127 0.124037
H47   H     H_    0.689701 0.665764 0.002649 0.123483
H48   H     H_    0.211905 0.276863 0.140807 0.124504
H49   H     H_    0.810094 0.165870 0.997729 0.123232
H50   H     H_    0.288201 0.776762 0.859125 0.124031
H51   H     H_    0.189691 0.165761 0.002663 0.123481
H52   H     H_    0.711905 0.776863 0.140807 0.124506
H53   H     H_    0.198801 0.139672 0.453258 0.172002
H54   H     H_    0.089293 0.085181 0.626017 0.256258
H55   H     H_    0.079924 0.189657 0.638509 0.255659
H56   H     H_    0.118545 0.248037 0.976977 0.081193
H57   H     H_    0.130758 0.136290 0.686350 0.254213
H58   H     H_    0.887638 0.914515 0.532799 0.167099
H59   H     H_    0.998152 0.973287 0.362592 0.259537
H60   H     H_    0.965404 0.916318 0.296013 0.254863
H61   H     H_    0.013832 0.869109 0.351414 0.253178
H62   H     H_    0.794675 0.121157 0.527414 0.174778
H63   H     H_    0.880912 0.059061 0.353669 0.267554
H64   H     H_    0.908730 0.161136 0.335754 0.252434
H65   H     H_    0.839361 0.124029 0.304965 0.248639
H66   H     H_    0.166069 0.963300 0.540920 0.171949
H67   H     H_    0.170841 0.724470 0.901769 0.086477
H68   H     H_    0.062376 0.991468 0.512289 0.253761
H69   H     H_    0.045788 0.888874 0.508712 0.257366
H70   H     H_    0.146303 0.933556 0.399602 0.255189
H71   H     H_    0.698848 0.639960 0.452764 0.172006
H72   H     H_    0.589137 0.585404 0.625356 0.256229
H73   H     H_    0.579873 0.689884 0.638007 0.255639
H74   H     H_    0.630503 0.636297 0.685960 0.254227
H75   H     H_    0.387590 0.414825 0.532416 0.167137
H76   H     H_    0.497938 0.473535 0.362034 0.259508
H77   H     H_    0.465183 0.416288 0.295676 0.254847
H78   H     H_    0.881408 0.248071 0.023110 0.081168
H79   H     H_    0.513757 0.369382 0.351075 0.253209
H80   H     H_    0.294599 0.620988 0.527219 0.174773
H81   H     H_    0.380655 0.558913 0.353420 0.267622
H82   H     H_    0.408662 0.660940 0.335591 0.252430
H83   H     H_    0.339195 0.624095 0.304814 0.248632
H84   H     H_    0.665847 0.463277 0.540891 0.171978
H85   H     H_    0.562242 0.491267 0.512050 0.253730
H86   H     H_    0.545784 0.388648 0.508451 0.257281
H87   H     H_    0.646284 0.433395 0.399417 0.255173
H88   H     H_    0.331647 0.775364 0.198684 0.092604
N1    N     N_R   0.408680 0.130810 0.995780 -0.044717
N2    N     N_R   0.578590 0.132790 0.846380 -0.039286
N3    N     N_R   0.578590 0.867210 0.846380 -0.041492
N4    N     N_R   0.421410 0.132790 0.153620 -0.038196
N5    N     N_R   0.921410 0.367210 0.153620 -0.041628
N6    N     N_R   0.078590 0.632790 0.846380 -0.039285
N7    N     N_R   0.078590 0.367210 0.846380 -0.041507
N8    N     N_R   0.921410 0.632790 0.153620 -0.038189
N9    N     N_R   0.403840 0.921910 0.935760 -0.039090
N10   N     N_R   0.596160 0.078090 0.064240 -0.040448
N11   N     N_R   0.596160 0.921910 0.064240 -0.039166
N12   N     N_R   0.591320 0.869190 0.004220 -0.043615
N13   N     N_R   0.403840 0.078090 0.935760 -0.040422
N14   N     N_R   0.903840 0.421910 0.935760 -0.039089
N15   N     N_R   0.096160 0.578090 0.064240 -0.040448
N16   N     N_R   0.096160 0.421910 0.064240 -0.039165
N17   N     N_R   0.903840 0.578090 0.935760 -0.040419
N18   N     N_R   0.426250 0.076100 0.213650 -0.037448
N19   N     N_R   0.573750 0.923900 0.786350 -0.041298
N20   N     N_R   0.573750 0.076100 0.786350 -0.037662
N21   N     N_R   0.426250 0.923900 0.213650 -0.039828
N22   N     N_R   0.926250 0.576100 0.213650 -0.037462
N23   N     N_R   0.591320 0.130810 0.004220 -0.044702
N24   N     N_R   0.073750 0.423900 0.786350 -0.041292
N25   N     N_R   0.073750 0.576100 0.786350 -0.037649
N26   N     N_R   0.926250 0.423900 0.213650 -0.039832
N27   N     N_2   0.203233 0.146550 0.515887 -0.117737
N28   N     N_2   0.887091 0.907239 0.467066 -0.114270
N29   N     N_2   0.783427 0.133324 0.471862 -0.114126
N30   N     N_2   0.127933 0.918814 0.547856 -0.114905
N31   N     N_2   0.703177 0.646715 0.515494 -0.117702
N32   N     N_2   0.386981 0.407417 0.466750 -0.114298
N33   N     N_2   0.283325 0.633236 0.471711 -0.114138
N34   N     N_R   0.408680 0.869190 0.995780 -0.043530
N35   N     N_2   0.627790 0.418736 0.547762 -0.114895
N36   N     N_R   0.908680 0.630810 0.995780 -0.044714
N37   N     N_R   0.091320 0.369190 0.004220 -0.043617
N38   N     N_R   0.091320 0.630810 0.004220 -0.044697
N39   N     N_R   0.908680 0.369190 0.995780 -0.043531
N40   N     N_R   0.421410 0.867210 0.153620 -0.041632
Ni1   Ni    Ni4+2 0.500000 0.131570 0.000000 0.208149
Ni2   Ni    Ni4+2 0.500000 0.868430 0.000000 0.205926
Ni3   Ni    Ni4+2 0.000000 0.631570 0.000000 0.208151
Ni4   Ni    Ni4+2 1.000000 0.368430 0.000000 0.205924
Ni5   Ni    Ni4+2 0.488900 0.000000 0.862310 0.207001
Ni6   Ni    Ni4+2 0.511100 0.000000 0.137690 0.207362
Ni7   Ni    Ni4+2 0.988900 0.500000 0.862310 0.207001
Ni8   Ni    Ni4+2 0.011100 0.500000 0.137690 0.207360

loop_
_geom_bond_atom_site_label_1
_geom_bond_atom_site_label_2
_ccdc_geom_bond_type
C27   C48   A    
C6    H41   S    
C5    H40   S    
C40   H22   S    
C28   C47   A    
N7    Ni4   S    
C65   C79   S    
C32   H15   S    
C93   N31   S    
C8    C83   S    
C64   C77   S    
N10   Ni6   S    
C9    C51   S    
H71   N31   S    
C74   C83   S    
C10   C52   S    
C66   C85   S    
C79   C87   S    
C6    C75   S    
C32   C51   A    
C4    C87   S    
C39   C53   A    
C3    C64   S    
H62   N29   S    
C21   C57   A    
N10   N23   A    
C20   H3    S    
N37   Ni4   S    
C93   H73   S    
C89   H36   S    
C16   H51   S    
C69   N33   S    
N16   N37   A    
C71   H27   S    
C26   C61   A    
C32   N15   A    
N5    N26   A    
C19   N2    A    
C23   H23   S    
C4    C65   S    
C9    H44   S    
C75   C84   S    
C63   C76   S    
C27   H9    S    
C62   C89   S    
N3    N19   A    
C66   N31   S    
C2    C85   S    
N25   Ni7   S    
C13   H48   S    
N20   Ni5   S    
C43   N26   A    
C3    C74   S    
C71   C80   S    
H58   N28   S    
C1    C44   A    
C18   C53   A    
C94   H76   S    
C92   H69   S    
N23   Ni1   S    
N8    Ni3   S    
C93   H72   S    
C28   H10   S    
C88   N27   S    
C35   C49   A    
C91   H65   S    
C28   N10   A    
C62   N27   S    
C69   C73   S    
C27   N9    A    
C25   C60   A    
N9    Ni5   S    
C56   H56   S    
C18   N40   A    
C63   N28   S    
C91   H63   S    
C72   C81   S    
C69   C87   S    
C94   H79   S    
N18   Ni6   S    
C26   H8    S    
C92   H68   S    
C6    C68   S    
C36   H18   S    
C6    C81   S    
C38   N20   A    
C72   H28   S    
C3    C86   S    
C45   H45   S    
C12   N12   A    
C30   C44   A    
N21   Ni6   S    
C36   N18   A    
C15   C48   S    
C20   C55   A    
C52   C78   A    
C58   C86   S    
C55   C80   S    
C54   C83   S    
C19   H2    S    
C95   H81   S    
C14   H49   S    
N12   Ni2   S    
C63   C80   S    
N9    N34   A    
C40   N22   A    
C93   H74   S    
N14   Ni7   S    
C2    H37   S    
C23   C47   A    
C30   H13   S    
N22   Ni8   S    
N6    Ni3   S    
C68   C84   S    
C64   N29   S    
C17   H52   S    
C17   C46   S    
N17   N36   A    
C41   N24   A    
C12   C46   A    
N4    Ni1   S    
C25   N7    A    
C1    H1    S    
C12   H12   S    
C96   H85   S    
C26   N8    A    
N39   Ni4   S    
C35   N17   A    
C51   C67   A    
N24   Ni7   S    
C33   N16   A    
C33   C50   A    
C29   N11   A    
C35   H17   S    
C50   C56   A    
C40   C61   A    
C13   C50   S    
N11   Ni6   S    
C53   C82   S    
C22   N5    A    
C67   N38   A    
N15   Ni8   S    
C64   C83   S    
C70   C74   S    
C11   C49   S    
C67   H67   S    
C15   H50   S    
C38   H20   S    
C95   H82   S    
C66   C71   S    
C38   C54   A    
C94   N32   S    
C18   H88   S    
C68   C72   S    
C79   H35   S    
C30   N13   A    
C45   C49   A    
C37   N19   A    
N2    N20   A    
C33   H16   S    
C77   H33   S    
C5    C80   S    
C92   N30   S    
C22   H5    S    
C43   H26   S    
C34   H34   S    
C4    C73   S    
C42   N25   A    
C61   C85   S    
C4    H39   S    
H75   N32   S    
C19   C54   A    
C95   H83   S    
C62   C81   S    
C77   C86   S    
C36   C57   A    
N13   Ni5   S    
H80   N33   S    
C8    H43   S    
C10   C14   D    
C8    C77   S    
C76   H32   S    
C88   H55   S    
C57   C81   S    
C62   C75   S    
N5    Ni4   S    
C34   C48   A    
C84   C89   S    
C96   H87   S    
C90   H60   S    
C2    C71   S    
C70   C86   S    
C73   C82   S    
C2    C63   S    
C21   N4    A    
N19   Ni5   S    
H66   N30   S    
N3    Ni2   S    
C16   C44   S    
C11   C17   D    
N1    Ni1   S    
C23   N23   A    
C21   H4    S    
C88   H54   S    
N6    N25   A    
C25   H7    S    
H53   N27   S    
C41   C60   A    
C96   H86   S    
C5    C66   S    
N40   Ni2   S    
C42   C59   A    
C22   C58   A    
C7    H42   S    
C34   N34   A    
C14   C47   S    
C37   H19   S    
C1    N1    A    
N8    N22   A    
C96   N35   S    
C78   N39   A    
N21   N40   A    
C8    C70   S    
C70   N35   S    
C31   C52   A    
C29   C46   A    
C3    H38   S    
C88   H57   S    
C90   H61   S    
C7    C69   S    
C9    C15   D    
C65   N30   S    
C91   N29   S    
C39   H21   S    
C20   N3    A    
C90   N28   S    
C72   C89   S    
C60   C84   S    
C91   H64   S    
C65   C82   S    
C74   H30   S    
N2    Ni1   S    
N38   Ni3   S    
C5    C76   S    
C24   C59   A    
C73   H29   S    
C39   N21   A    
N4    N18   A    
C95   N33   S    
C31   H14   S    
N14   N39   A    
C24   H6    S    
N7    N24   A    
C41   H24   S    
C56   N37   A    
C68   N32   S    
C59   C87   S    
C94   H77   S    
N15   N38   A    
N11   N12   A    
C37   C55   A    
C92   H70   S    
N17   Ni7   S    
C7    C82   S    
C7    C79   S    
N36   Ni3   S    
C13   C16   D    
C78   H78   S    
C45   N36   A    
N26   Ni8   S    
C43   C58   A    
C29   H11   S    
H84   N35   S    
C24   N6    A    
N16   Ni8   S    
N1    N13   A    
C90   H59   S    
C11   H47   S    
C76   C85   S    
N34   Ni2   S    
C31   N14   A    
C42   H25   S    
C10   H46   S    
C75   H31   S    
