data_mof_unit_32771.cif
_audit_creation_date              2012-12-10T16:57:05-0500
_audit_creation_method            fapswitch 2.2
_symmetry_space_group_name_H-M    P1
_symmetry_Int_Tables_number       1
_space_group_crystal_system       triclinic
_cell_length_a                    7.785035
_cell_length_b                    8.574321
_cell_length_c                    16.595181
_cell_angle_alpha                 91.894208
_cell_angle_beta                  80.397383
_cell_angle_gamma                 93.784653
_cell_volume                      1089.5744948

loop_
_atom_site_label
_atom_site_type_symbol
_atom_type_description
_atom_site_fract_x
_atom_site_fract_y
_atom_site_fract_z
_atom_type_partial_charge
C1    C     C_R   0.546180 0.794758 0.497935 0.965930
C2    C     C_R   0.453812 0.205241 0.502090 0.959339
C3    C     C_2   0.570458 0.958273 0.496749 -0.353979
C4    C     C_2   0.429518 0.041705 0.503302 -0.343970
C5    C     C_R   0.478145 0.508936 0.654368 0.942142
C6    C     C_R   0.524030 0.502477 0.345482 0.940025
C7    C     C_R   0.472817 0.552870 0.739880 -0.230885
C8    C     C_R   0.547656 0.545873 0.260342 -0.232954
C9    C     C_R   0.592519 0.493919 0.782958 -0.263110
C10   C     C_R   0.445869 0.661204 0.238612 -0.262222
C11   C     C_R   0.602896 0.549716 0.861282 -0.231643
C12   C     C_R   0.483191 0.723723 0.161382 -0.212778
C13   C     C_R   0.494510 0.666654 0.897434 -0.009548
C14   C     C_R   0.618460 0.667104 0.103531 -0.004834
C15   C     C_R   0.371404 0.724368 0.855115 0.448314
C16   C     C_R   0.721755 0.551113 0.124813 0.448495
C17   C     C_R   0.363355 0.669510 0.775515 0.514304
C18   C     C_R   0.688496 0.493663 0.204126 0.523157
C19   C     C_2   0.492890 0.712824 0.983211 -0.123671
C20   C     C_2   0.635880 0.708530 0.017627 -0.195334
H1    H     H_    0.678743 0.405362 0.755752 0.194139
H2    H     H_    0.341479 0.707642 0.282440 0.198334
H3    H     H_    0.761185 0.696842 0.979072 0.174764
H4    H     H_    0.365649 0.723440 0.020595 0.178772
H5    H     H_    0.404439 0.814792 0.146543 0.177993
H6    H     H_    0.693723 0.498489 0.893825 0.174350
H7    H     H_    0.703500 0.009458 0.490495 0.181555
H8    H     H_    0.296476 0.990512 0.509561 0.185699
H9    H     H_    0.022678 0.379984 0.439270 0.205736
H10   H     H_    0.977322 0.620005 0.560742 0.209071
N1    N     N_2   0.953500 0.457650 0.478520 -0.168775
N2    N     N_2   0.046500 0.542350 0.521480 -0.167215
O1    O     O_R   0.388470 0.738640 0.505270 -0.600992
O2    O     O_R   0.611530 0.261360 0.494730 -0.610059
O3    O     O_R   0.679650 0.711510 0.491500 -0.636535
O4    O     O_R   0.320350 0.288490 0.508500 -0.632045
O5    O     O_R   0.337210 0.515200 0.623500 -0.556397
O6    O     O_R   0.662790 0.484800 0.376500 -0.558190
O7    O     O_R   0.628380 0.488060 0.609730 -0.633027
O8    O     O_R   0.371620 0.511940 0.390270 -0.637384
Zn1   Zn    Zn3+2 0.305580 0.518120 0.509190 0.988053
Zn2   Zn    Zn3+2 0.694420 0.481880 0.490810 0.983328
F1    F     F_    0.793211 0.387312 0.225991 -0.651332
F2    F     F_    0.256567 0.737013 0.731723 -0.650506
O9    O     O_3   0.272601 0.846011 0.888575 -0.583305
C21   C     C_3   0.100008 0.786727 0.915107 -0.275997
H11   H     H_    0.025327 0.881891 0.948108 0.191189
H12   H     H_    0.094923 0.689416 0.958423 0.171354
H13   H     H_    0.034531 0.747716 0.862642 0.208441
O10   O     O_3   0.857854 0.497347 0.068422 -0.615678
C22   C     C_3   0.806619 0.348349 0.038674 -0.277102
H14   H     H_    0.677714 0.347066 0.017795 0.144986
H15   H     H_    0.803392 0.258051 0.085495 0.222263
H16   H     H_    0.904490 0.316354 0.985143 0.187734

loop_
_geom_bond_atom_site_label_1
_geom_bond_atom_site_label_2
_ccdc_geom_bond_type
C2    C4    S    
N2    Zn1   S    
C6    O6    A    
C15   C17   A    
N1    Zn2   S    
C5    O5    A    
C11   C13   A    
C19   C20   D    
O2    Zn2   S    
C20   H3    S    
C12   H5    S    
C5    O7    A    
C22   H16   S    
O1    Zn1   S    
C2    O2    A    
C3    H7    S    
C19   H4    S    
C17   F2    S    
C1    O1    A    
H9    N1    S    
N1    N2    D    
O9    C21   S    
C10   H2    S    
H10   N2    S    
C9    C11   A    
C21   H13   S    
C9    H1    S    
O4    Zn1   S    
C10   C12   A    
C16   C18   A    
O8    Zn1   S    
C4    H8    S    
C12   C14   A    
O6    Zn2   S    
O7    Zn2   S    
C21   H12   S    
C13   C15   A    
O5    Zn1   S    
C6    O8    A    
C13   C19   S    
C22   H14   S    
C14   C20   S    
C1    O3    A    
C7    C9    A    
C2    O4    A    
C1    C3    S    
C5    C7    S    
O3    Zn2   S    
C15   O9    S    
C21   H11   S    
C6    C8    S    
C11   H6    S    
O10   C22   S    
C14   C16   A    
C18   F1    S    
C8    C10   A    
C8    C18   A    
C3    C4    D    
C16   O10   S    
C22   H15   S    
C7    C17   A    
