data_mof_unit_25155.cif
_audit_creation_date              2012-10-26T17:10:25-0400
_audit_creation_method            fapswitch 2.2
_symmetry_space_group_name_H-M    P1
_symmetry_Int_Tables_number       1
_space_group_crystal_system       triclinic
_cell_length_a                    16.878897
_cell_length_b                    16.863719
_cell_length_c                    16.864353
_cell_angle_alpha                 67.588914
_cell_angle_beta                  67.455269
_cell_angle_gamma                 67.469642
_cell_volume                      3937.54347276

loop_
_atom_site_label
_atom_site_type_symbol
_atom_type_description
_atom_site_fract_x
_atom_site_fract_y
_atom_site_fract_z
_atom_type_partial_charge
C1    C     C_R   0.592153 0.033446 0.593651 0.070085
C2    C     C_R   0.169986 0.432647 0.978914 0.563370
C3    C     C_R   0.565868 0.025332 0.829293 0.568481
C4    C     C_R   0.432079 0.980500 0.169692 0.563219
C5    C     C_R   0.433612 0.170462 0.976321 0.565912
C6    C     C_R   0.566724 0.829516 0.022989 0.565486
C7    C     C_R   0.976267 0.433632 0.170487 0.565195
C8    C     C_R   0.022844 0.566762 0.829516 0.565615
C9    C     C_R   0.170689 0.974810 0.434094 0.566658
C10   C     C_R   0.829661 0.022366 0.566975 0.565007
C11   C     C_R   0.541791 0.021924 0.545377 0.126650
C12   C     C_R   0.400251 0.984809 0.403424 0.078336
C13   C     C_R   0.447879 0.997554 0.453580 0.128520
C14   C     C_R   0.020812 0.546063 0.541628 0.116678
C15   C     C_R   0.995259 0.452726 0.450130 0.112138
C16   C     C_R   0.545422 0.540999 0.023047 0.116221
C17   C     C_R   0.451044 0.449736 0.998624 0.110945
C18   C     C_R   0.483133 0.096469 0.502513 0.156239
C19   C     C_R   0.507197 0.923173 0.495916 0.155083
C20   C     C_R   0.934460 0.541254 0.556385 0.153771
C21   C     C_R   0.080757 0.462734 0.430751 0.143646
C22   C     C_R   0.538132 0.556972 0.937369 0.154690
C23   C     C_R   0.033461 0.593712 0.591812 0.068636
C24   C     C_R   0.462927 0.429693 0.083438 0.133600
C25   C     C_R   0.433469 0.083900 0.459095 0.140733
C26   C     C_R   0.551885 0.935220 0.544503 0.154964
C27   C     C_R   0.488790 0.513076 0.925609 0.154120
C28   C     C_R   0.508944 0.476563 0.095918 0.173488
C29   C     C_R   0.922149 0.492149 0.512546 0.154414
C30   C     C_R   0.093879 0.507382 0.478589 0.172074
C31   C     C_R   0.551321 0.040180 0.681241 0.326374
C32   C     C_R   0.437772 0.991023 0.312150 0.312823
C33   C     C_R   0.038598 0.681673 0.551490 0.325140
C34   C     C_R   0.981370 0.403661 0.402389 0.052414
C35   C     C_R   0.981953 0.313987 0.441813 0.306511
C36   C     C_R   0.681671 0.551197 0.039429 0.326807
C37   C     C_R   0.312602 0.440825 0.985540 0.307245
C38   C     C_R   0.316376 0.968956 0.446385 0.326768
C39   C     C_R   0.683137 0.028173 0.555368 0.325315
C40   C     C_R   0.444436 0.315122 0.975352 0.325917
C41   C     C_R   0.554512 0.682062 0.031370 0.330470
C42   C     C_R   0.973554 0.445139 0.315464 0.325833
C43   C     C_R   0.030130 0.554759 0.682345 0.332694
C44   C     C_R   0.602727 0.035858 0.732657 -0.023252
C45   C     C_R   0.593472 0.591366 0.034919 0.065623
C46   C     C_R   0.392767 0.977917 0.264659 -0.025767
C47   C     C_R   0.035185 0.732772 0.602839 -0.023157
C48   C     C_R   0.973533 0.265629 0.394498 -0.025730
C49   C     C_R   0.732754 0.602750 0.035528 -0.023824
C50   C     C_R   0.265104 0.394054 0.975091 -0.025986
C51   C     C_R   0.266574 0.967586 0.396420 -0.020338
C52   C     C_R   0.733426 0.030280 0.604578 -0.024987
C53   C     C_R   0.395684 0.266134 0.970399 -0.024455
C54   C     C_R   0.604117 0.732987 0.031717 -0.024243
C55   C     C_R   0.969674 0.395912 0.266258 -0.026176
C56   C     C_R   0.402238 0.401531 0.985008 0.055174
C57   C     C_R   0.031223 0.604229 0.733081 -0.023812
C58   C     C_R   0.692523 0.033935 0.692860 -0.252486
C59   C     C_R   0.306751 0.968081 0.307027 -0.248751
C60   C     C_R   0.034013 0.692762 0.692479 -0.252377
C61   C     C_R   0.967220 0.307332 0.307159 -0.252725
C62   C     C_R   0.692699 0.692453 0.034181 -0.253566
C63   C     C_R   0.307249 0.307076 0.967679 -0.251774
C64   C     C_3   0.565428 0.825007 0.684915 -0.301584
C65   C     C_3   0.280971 0.177348 0.475496 -0.268815
C66   C     C_3   0.231653 0.437223 0.520064 -0.288450
C67   C     C_R   0.024939 0.829323 0.565989 0.569590
C68   C     C_3   0.809884 0.411197 0.600526 -0.258725
C69   C     C_3   0.449221 0.515368 0.235302 -0.290209
C70   C     C_3   0.405622 0.601943 0.815333 -0.256195
C71   C     C_3   0.588464 0.805786 0.421102 -0.287309
C72   C     C_3   0.537282 0.227641 0.437440 -0.295556
C73   C     C_3   0.488572 0.274709 0.172499 -0.233054
C74   C     C_3   0.673445 0.577541 0.821829 -0.305095
C75   C     C_3   0.177805 0.486891 0.278354 -0.252305
C76   C     C_3   0.820206 0.677925 0.575975 -0.302094
C77   C     C_R   0.978426 0.170145 0.432840 0.564479
C78   C     C_R   0.829329 0.566004 0.025020 0.568928
Cu1   Cu    Cu3+1 0.995180 0.995180 0.424630 1.088142
Cu2   Cu    Cu3+1 0.004820 0.004820 0.575370 1.072959
Cu3   Cu    Cu3+1 0.995180 0.424630 0.995180 1.087842
Cu4   Cu    Cu3+1 0.004820 0.575370 0.004820 1.073865
Cu5   Cu    Cu3+1 0.424630 0.995180 0.995180 1.086708
Cu6   Cu    Cu3+1 0.575370 0.004820 0.004820 1.073010
F1    F     F_    0.462831 0.045786 0.717100 -0.612374
F2    F     F_    0.469151 0.720092 0.025685 -0.611569
F3    F     F_    0.972692 0.532482 0.278807 -0.614441
F4    F     F_    0.023753 0.469635 0.720450 -0.611798
F5    F     F_    0.517435 0.010512 0.270414 -0.629145
F6    F     F_    0.041591 0.718174 0.463615 -0.612625
F7    F     F_    0.994046 0.273939 0.524742 -0.631853
F8    F     F_    0.718374 0.463281 0.042331 -0.611430
F9    F     F_    0.271859 0.523259 0.999105 -0.633665
F10   F     F_    0.282834 0.957858 0.535977 -0.620945
F11   F     F_    0.721932 0.019572 0.470922 -0.612575
F12   F     F_    0.532079 0.278823 0.973323 -0.619296
H1    H     H_    0.731794 0.031704 0.731987 0.180253
H2    H     H_    0.526671 0.878601 0.718825 0.221540
H3    H     H_    0.392723 0.214626 0.384694 0.254119
H4    H     H_    0.236805 0.231676 0.436292 0.151160
H5    H     H_    0.277945 0.198688 0.531475 0.153821
H6    H     H_    0.254985 0.118449 0.503245 0.233795
H7    H     H_    0.217239 0.527598 0.398893 0.272919
H8    H     H_    0.296017 0.448780 0.509070 0.137514
H9    H     H_    0.245910 0.375017 0.502467 0.154039
H10   H     H_    0.194501 0.429105 0.591813 0.198981
H11   H     H_    0.785547 0.544688 0.524731 0.252936
H12   H     H_    0.269674 0.963814 0.269386 0.181168
H13   H     H_    0.789785 0.372080 0.575161 0.176621
H14   H     H_    0.752237 0.436320 0.653694 0.113871
H15   H     H_    0.865312 0.366115 0.630693 0.223214
H16   H     H_    0.532464 0.392602 0.216841 0.274025
H17   H     H_    0.465292 0.501118 0.298200 0.138017
H18   H     H_    0.384338 0.501903 0.252320 0.150960
H19   H     H_    0.443499 0.586954 0.199142 0.192332
H20   H     H_    0.539178 0.526096 0.788716 0.252619
H21   H     H_    0.365719 0.576921 0.795916 0.178500
H22   H     H_    0.430070 0.655249 0.757613 0.114359
H23   H     H_    0.031685 0.731912 0.731878 0.180391
H24   H     H_    0.361471 0.631804 0.871365 0.222740
H25   H     H_    0.516455 0.788179 0.554416 0.256734
H26   H     H_    0.588793 0.738684 0.424259 0.140820
H27   H     H_    0.654206 0.801283 0.425185 0.151202
H28   H     H_    0.578926 0.851662 0.355939 0.220635
H29   H     H_    0.408307 0.224592 0.514197 0.258503
H30   H     H_    0.526420 0.292326 0.448441 0.141023
H31   H     H_    0.530130 0.240824 0.370503 0.134730
H32   H     H_    0.606194 0.186480 0.439410 0.205384
H33   H     H_    0.364194 0.364248 0.162385 0.248368
H34   H     H_    0.963784 0.269579 0.269607 0.181768
H35   H     H_    0.466277 0.228316 0.158897 0.196242
H36   H     H_    0.489612 0.249959 0.243069 0.140336
H37   H     H_    0.557953 0.273891 0.129843 0.212628
H38   H     H_    0.545216 0.656372 0.817543 0.259480
H39   H     H_    0.705171 0.630799 0.774540 0.140326
H40   H     H_    0.678066 0.532860 0.785069 0.131745
H41   H     H_    0.711227 0.538501 0.872185 0.215458
H42   H     H_    0.155319 0.365279 0.362239 0.243023
H43   H     H_    0.154483 0.476963 0.230417 0.198189
H44   H     H_    0.251407 0.473640 0.253671 0.146549
H45   H     H_    0.731879 0.731958 0.031409 0.180239
H46   H     H_    0.147991 0.557689 0.280397 0.198765
H47   H     H_    0.814043 0.550379 0.655508 0.260188
H48   H     H_    0.771345 0.709954 0.628776 0.139799
H49   H     H_    0.785289 0.682900 0.529575 0.134060
H50   H     H_    0.871105 0.715241 0.538646 0.217143
H51   H     H_    0.269977 0.269867 0.963018 0.182059
H52   H     H_    0.646701 0.811658 0.559856 0.253671
H53   H     H_    0.616997 0.778511 0.719315 0.144477
H54   H     H_    0.519719 0.788695 0.691203 0.132433
N1    N     N_2   0.608499 0.860735 0.591909 -0.521034
N2    N     N_2   0.581020 0.617471 0.863309 -0.514528
N3    N     N_2   0.154583 0.425304 0.365560 -0.540917
N4    N     N_2   0.860535 0.585358 0.616413 -0.515506
N5    N     N_2   0.371270 0.157970 0.418046 -0.535774
N6    N     N_2   0.180740 0.512405 0.464868 -0.489544
N7    N     N_2   0.835595 0.485446 0.527654 -0.521504
N8    N     N_2   0.519102 0.459081 0.181609 -0.484648
N9    N     N_2   0.480485 0.528849 0.839518 -0.521934
N10   N     N_2   0.516959 0.835987 0.493989 -0.515985
N11   N     N_2   0.472519 0.183235 0.506177 -0.504224
N12   N     N_2   0.427372 0.363572 0.157087 -0.548685
O1    O     O_R   0.124540 0.978640 0.385460 -0.531171
O2    O     O_R   0.124540 0.385460 0.978640 -0.533409
O3    O     O_R   0.021360 0.875460 0.614540 -0.531729
O4    O     O_R   0.978640 0.124540 0.385460 -0.533748
O5    O     O_R   0.013780 0.867370 0.487190 -0.430532
O6    O     O_R   0.986220 0.132630 0.512810 -0.434609
O7    O     O_R   0.867370 0.487190 0.013780 -0.430539
O8    O     O_R   0.132630 0.512810 0.986220 -0.434864
O9    O     O_R   0.487190 0.013780 0.867370 -0.432544
O10   O     O_R   0.512810 0.986220 0.132630 -0.437599
O11   O     O_R   0.512810 0.132630 0.986220 -0.432200
O12   O     O_R   0.875460 0.021360 0.614540 -0.536039
O13   O     O_R   0.487190 0.867370 0.013780 -0.430067
O14   O     O_R   0.986220 0.512810 0.132630 -0.432802
O15   O     O_R   0.013780 0.487190 0.867370 -0.429845
O16   O     O_R   0.132630 0.986220 0.512810 -0.436779
O17   O     O_R   0.867370 0.013780 0.487190 -0.430192
O18   O     O_R   0.978640 0.385460 0.124540 -0.531625
O19   O     O_R   0.021360 0.614540 0.875460 -0.536164
O20   O     O_R   0.385460 0.124540 0.978640 -0.531036
O21   O     O_R   0.614540 0.875460 0.021360 -0.536373
O22   O     O_R   0.614540 0.021360 0.875460 -0.532468
O23   O     O_R   0.385460 0.978640 0.124540 -0.532620
O24   O     O_R   0.875460 0.614540 0.021360 -0.532724

loop_
_geom_bond_atom_site_label_1
_geom_bond_atom_site_label_2
_ccdc_geom_bond_type
C8    O19   A    
C10   O12   A    
C73   H35   S    
C11   C18   A    
C16   C28   A    
C31   F1    S    
Cu5   O13   S    
C46   C59   A    
C25   N5    S    
C5    O20   A    
C71   H26   S    
C1    C11   S    
H52   N1    S    
C65   H5    S    
C10   C52   S    
Cu4   O8    S    
Cu3   Cu4   S    
C4    C46   S    
C77   O6    A    
C71   N10   S    
C58   H1    S    
Cu4   O19   S    
C69   H17   S    
H16   N8    S    
Cu4   O24   S    
C10   O17   A    
C71   H27   S    
C26   N1    S    
C14   C30   A    
C34   C35   A    
C75   H44   S    
C8    C57   S    
C18   N11   S    
Cu6   O10   S    
C6    O13   A    
C70   H21   S    
C27   N9    S    
Cu5   O9    S    
C1    C31   A    
C23   C43   A    
C49   C78   S    
C60   H23   S    
C70   N9    S    
C47   C67   S    
C9    O1    A    
C19   C26   A    
C2    C50   S    
C47   C60   A    
C37   C56   A    
C8    O15   A    
Cu5   Cu6   S    
C70   H24   S    
C34   C42   A    
C40   C56   A    
H25   N10   S    
C9    C51   S    
C7    O18   A    
C72   N11   S    
C9    O16   A    
C78   O24   A    
C7    C55   S    
C64   H2    S    
C3    O22   A    
C15   C34   S    
C36   F8    S    
C30   N6    S    
C39   C52   A    
C73   H36   S    
C76   H50   S    
C12   C32   A    
C50   C63   A    
C13   C25   A    
C18   C25   A    
C5    O11   A    
C65   H6    S    
C40   F12   S    
C74   H39   S    
C35   C48   A    
C63   H51   S    
H11   N7    S    
C67   O3    A    
C15   C29   A    
C20   C29   A    
C3    C44   S    
C74   H41   S    
C22   N2    S    
C69   H18   S    
C17   C24   A    
C31   C44   A    
C13   C19   A    
C72   H31   S    
C17   C27   A    
C66   H8    S    
C71   H28   S    
Cu6   O22   S    
Cu3   O18   S    
H20   N9    S    
C44   C58   A    
C43   C57   A    
H47   N4    S    
C29   N7    S    
C38   C51   A    
C64   N1    S    
C11   C26   A    
C23   C33   A    
C77   O4    A    
C20   N4    S    
C78   O7    A    
Cu5   O20   S    
C74   H40   S    
C68   H15   S    
Cu2   O16   S    
C14   C23   S    
C73   N12   S    
C41   F2    S    
C75   H46   S    
C14   C20   A    
C42   C55   A    
C75   N3    S    
C32   F5    S    
H38   N2    S    
C7    O14   A    
C38   F10   S    
C48   C77   S    
C28   N8    S    
C69   N8    S    
C37   F9    S    
C36   C45   A    
C68   H14   S    
Cu1   O1    S    
C17   C56   S    
C39   F11   S    
C52   C58   A    
C61   H34   S    
C2    O8    A    
C76   H48   S    
H42   N3    S    
C72   H32   S    
C76   H49   S    
C6    C54   S    
Cu3   O7    S    
C22   C27   A    
C33   C47   A    
Cu3   O2    S    
H3    N5    S    
C51   C59   A    
C43   F4    S    
C62   H45   S    
C2    O2    A    
Cu6   O11   S    
Cu2   O3    S    
Cu4   O14   S    
C67   O5    A    
C69   H19   S    
C16   C22   A    
C49   C62   A    
C4    O10   A    
C4    O23   A    
C32   C46   A    
Cu6   O21   S    
C24   N12   S    
C24   C28   A    
C65   H4    S    
C73   H37   S    
C57   C60   A    
C16   C45   S    
C42   F3    S    
C54   C62   A    
C21   C30   A    
C6    O21   A    
C59   H12   S    
C64   H53   S    
C5    C53   S    
Cu3   O15   S    
C65   N5    S    
C19   N10   S    
C33   F6    S    
C66   N6    S    
C37   C50   A    
C53   C63   A    
C3    O9    A    
C48   C61   A    
C66   H10   S    
C70   H22   S    
C55   C61   A    
C76   N4    S    
C74   N2    S    
H33   N12   S    
Cu1   O17   S    
C68   H13   S    
Cu1   O4    S    
C12   C38   A    
C41   C54   A    
C1    C39   A    
Cu2   O12   S    
Cu1   Cu2   S    
C72   H30   S    
H7    N6    S    
C15   C21   A    
C12   C13   S    
C40   C53   A    
C64   H54   S    
H29   N11   S    
C41   C45   A    
Cu5   O23   S    
C75   H43   S    
C21   N3    S    
C66   H9    S    
Cu1   O5    S    
Cu2   O6    S    
C36   C49   A    
C68   N7    S    
C35   F7    S    
