data_mof_unit_7886.cif
_audit_creation_date              2012-10-26T20:40:15-0400
_audit_creation_method            fapswitch 2.2
_symmetry_space_group_name_H-M    P1
_symmetry_Int_Tables_number       1
_space_group_crystal_system       triclinic
_cell_length_a                    15.040894
_cell_length_b                    10.862444
_cell_length_c                    9.575622
_cell_angle_alpha                 89.670091
_cell_angle_beta                  90.117176
_cell_angle_gamma                 92.62252
_cell_volume                      1562.80651713

loop_
_atom_site_label
_atom_site_type_symbol
_atom_type_description
_atom_site_fract_x
_atom_site_fract_y
_atom_site_fract_z
_atom_type_partial_charge
C1    C     C_R   0.505690 0.262588 0.501611 0.543707
C2    C     C_R   0.185499 0.424334 0.598767 -0.135153
C3    C     C_R   0.232364 0.496894 0.500027 -0.009497
C4    C     C_R   0.328914 0.499524 0.499920 0.552027
C5    C     C_R   0.187062 0.566025 0.401373 -0.138953
C6    C     C_R   0.525921 0.113841 0.768604 -0.104663
C7    C     C_R   0.502705 0.051348 0.891634 -0.133280
C8    C     C_R   0.459350 0.936058 0.885354 -0.122867
C9    C     C_R   0.447226 0.878370 0.756815 -0.091931
C10   C     C_R   0.479638 0.935221 0.631962 0.025442
C11   C     C_R   0.506146 0.061208 0.635969 0.024372
C12   C     C_R   0.907964 0.559872 0.405216 0.006944
C13   C     C_R   0.511055 0.128158 0.507335 -0.011730
C14   C     C_R   0.509729 0.064351 0.380656 -0.165007
C15   C     C_R   0.502003 0.937177 0.379368 -0.168978
C16   C     C_R   0.493724 0.737108 0.500445 0.534820
C17   C     C_R   0.487627 0.871156 0.503792 -0.009761
C18   C     C_R   0.616822 0.666110 0.143628 -0.095801
C19   C     C_R   0.673329 0.748119 0.071012 -0.180922
C20   C     C_R   0.673581 0.747894 0.927136 -0.162401
C21   C     C_R   0.617362 0.665611 0.855077 -0.078928
C22   C     C_R   0.557522 0.581648 0.924790 0.149935
C23   C     C_R   0.953009 0.335519 0.690620 -0.134826
C24   C     C_R   0.557377 0.581758 0.074515 0.155432
C25   C     C_R   0.445580 0.421976 0.074283 -0.010564
C26   C     C_R   0.445582 0.422037 0.926228 -0.016129
C27   C     C_R   0.670736 0.493457 0.500242 0.531653
C28   C     C_R   0.815809 0.560088 0.408303 -0.150794
C29   C     C_R   0.767084 0.483213 0.500527 0.002627
C30   C     C_R   0.810428 0.398855 0.588884 0.009803
C31   C     C_R   0.904884 0.405592 0.594155 0.030900
C32   C     C_R   0.952980 0.485050 0.500225 0.042534
C33   C     C_3   0.757452 0.296957 0.667716 -0.276119
C34   C     C_R   0.045599 0.342720 0.692882 -0.141028
C35   C     C_3   0.768843 0.170957 0.601371 -0.451931
C36   C     C_R   0.092746 0.418482 0.597923 0.012803
C37   C     C_R   0.046615 0.489296 0.500215 0.059918
C38   C     C_R   0.094253 0.564366 0.402255 0.013747
C39   C     C_R   0.048387 0.636548 0.307169 -0.132922
C40   C     C_R   0.955783 0.635198 0.309527 -0.130252
Cu1   Cu    Cu3+1 0.499990 0.499990 0.640660 0.897461
Cu2   Cu    Cu3+1 0.500010 0.500010 0.359340 0.918543
H1    H     H_    0.781486 0.621551 0.339009 0.108170
H2    H     H_    0.624151 0.672022 0.745048 0.189718
H3    H     H_    0.401059 0.358111 0.871016 0.119762
H4    H     H_    0.920403 0.275247 0.766592 0.115021
H5    H     H_    0.080427 0.288068 0.768636 0.108849
H6    H     H_    0.221390 0.370333 0.674029 0.114665
H7    H     H_    0.224185 0.622700 0.325989 0.118729
H8    H     H_    0.084140 0.694758 0.231844 0.109107
H9    H     H_    0.921456 0.692747 0.236078 0.108851
H10   H     H_    0.515600 0.112724 0.281610 0.133210
H11   H     H_    0.410615 0.790495 0.757027 0.150041
H12   H     H_    0.562305 0.200849 0.780789 0.140047
H13   H     H_    0.744368 0.171628 0.491802 0.157899
H14   H     H_    0.839448 0.145750 0.601966 0.156185
H15   H     H_    0.729255 0.099387 0.660555 0.137755
H16   H     H_    0.776467 0.295782 0.779684 0.131859
H17   H     H_    0.685323 0.309803 0.667907 0.177383
H18   H     H_    0.516637 0.093765 0.991847 0.104633
H19   H     H_    0.437037 0.889878 0.980357 0.113422
H20   H     H_    0.506901 0.890620 0.280087 0.136472
H21   H     H_    0.401016 0.358043 0.129930 0.118201
H22   H     H_    0.623121 0.672855 0.253629 0.182195
H23   H     H_    0.717732 0.811745 0.127134 0.112151
H24   H     H_    0.718110 0.811452 0.870607 0.118841
N1    N     N_R   0.500860 0.501210 0.147910 -0.244075
N2    N     N_R   0.500890 0.501290 0.852040 -0.251846
O1    O     O_R   0.499990 0.319640 0.618810 -0.520006
O2    O     O_R   0.500000 0.319660 0.381240 -0.501258
O3    O     O_R   0.370250 0.499960 0.618800 -0.501598
O4    O     O_R   0.370260 0.499980 0.381230 -0.497741
O5    O     O_R   0.500000 0.680340 0.618760 -0.531029
O6    O     O_R   0.500010 0.680360 0.381190 -0.524285
O7    O     O_R   0.629740 0.500020 0.618770 -0.533039
O8    O     O_R   0.629750 0.500040 0.381200 -0.516524

loop_
_geom_bond_atom_site_label_1
_geom_bond_atom_site_label_2
_ccdc_geom_bond_type
C33   H16   S    
C27   C29   S    
Cu1   Cu2   S    
C19   C20   A    
C25   N1    A    
C7    C8    A    
C37   C38   A    
C12   C28   A    
C16   O6    A    
C20   H24   S    
C36   C37   A    
C38   C39   A    
C10   C17   A    
Cu2   O2    S    
C18   C19   A    
C25   H21   S    
C26   H3    S    
C14   H10   S    
C8    C9    A    
C18   C24   A    
C9    C10   A    
C24   N1    A    
C8    H19   S    
Cu1   O3    S    
C33   H17   S    
C23   H4    S    
C13   C14   A    
C12   C32   A    
C5    H7    S    
C6    H12   S    
C27   O7    A    
Cu1   N2    S    
Cu2   O6    S    
C35   H13   S    
C16   O5    A    
C6    C11   A    
C16   C17   S    
C2    H6    S    
C25   C26   A    
C1    O1    A    
C23   C31   A    
C12   C40   A    
C29   C30   A    
Cu1   O7    S    
C21   H2    S    
C31   C32   A    
C23   C34   A    
Cu2   O4    S    
C32   C37   A    
C22   N2    A    
Cu2   N1    S    
C22   C24   A    
C9    H11   S    
C3    C4    S    
C7    H18   S    
C4    O4    A    
Cu1   O1    S    
C2    C36   A    
C15   C17   A    
C28   C29   A    
C30   C33   S    
C35   H14   S    
C3    C5    A    
C6    C7    A    
C40   H9    S    
C28   H1    S    
Cu2   O8    S    
C1    O2    A    
C35   H15   S    
C26   N2    A    
C21   C22   A    
C2    C3    A    
C11   C13   A    
C18   H22   S    
C30   C31   A    
C33   C35   S    
C15   H20   S    
C19   H23   S    
C34   C36   A    
C10   C11   A    
Cu1   O5    S    
C39   C40   A    
C39   H8    S    
C1    C13   S    
C20   C21   A    
C14   C15   A    
C34   H5    S    
C5    C38   A    
C4    O3    A    
C27   O8    A    
