data_mof_unit_56218.cif
_audit_creation_date              2012-10-26T19:55:47-0400
_audit_creation_method            fapswitch 2.2
_symmetry_space_group_name_H-M    P1
_symmetry_Int_Tables_number       1
_space_group_crystal_system       triclinic
_cell_length_a                    10.823092
_cell_length_b                    10.825162
_cell_length_c                    9.620319
_cell_angle_alpha                 91.651303
_cell_angle_beta                  91.138277
_cell_angle_gamma                 90.840696
_cell_volume                      1126.31168287

loop_
_atom_site_label
_atom_site_type_symbol
_atom_type_description
_atom_site_fract_x
_atom_site_fract_y
_atom_site_fract_z
_atom_type_partial_charge
C1    C     C_R   0.496440 0.262941 0.498094 0.532904
C2    C     C_R   0.786138 0.317489 0.933667 -0.109336
C3    C     C_R   0.742470 0.200600 0.888798 -0.097708
C4    C     C_R   0.262266 0.496490 0.498443 0.566553
C5    C     C_R   0.764492 0.157578 0.753294 -0.102810
C6    C     C_R   0.830320 0.231376 0.662544 -0.082089
C7    C     C_R   0.874747 0.348859 0.706942 0.047307
C8    C     C_R   0.315076 0.135822 0.661908 -0.109115
C9    C     C_R   0.243944 0.077625 0.759531 -0.149674
C10   C     C_R   0.255332 0.951847 0.777209 -0.125495
C11   C     C_R   0.332697 0.882000 0.692232 -0.081555
C12   C     C_R   0.161890 0.633795 0.976365 0.262904
C13   C     C_R   0.408751 0.939416 0.594592 0.025953
C14   C     C_R   0.403283 0.069357 0.584225 0.029659
C15   C     C_R   0.484552 0.129621 0.494587 0.001153
C16   C     C_R   0.495066 0.737625 0.501859 0.544947
C17   C     C_R   0.560770 0.062242 0.406446 -0.161878
C18   C     C_R   0.561445 0.934826 0.410413 -0.156254
C19   C     C_R   0.488390 0.872307 0.505020 0.013619
C20   C     C_R   0.663180 0.662151 0.150796 -0.091658
C21   C     C_R   0.742356 0.740794 0.082354 -0.182096
C22   C     C_R   0.740969 0.741147 0.939317 -0.180072
C23   C     C_R   0.931521 0.542724 0.392710 -0.169581
C24   C     C_R   0.661164 0.662159 0.863893 -0.091065
C25   C     C_R   0.579315 0.579784 0.929120 0.157815
C26   C     C_R   0.579727 0.579704 0.078492 0.158097
C27   C     C_R   0.424645 0.424050 0.069705 -0.002722
C28   C     C_R   0.737086 0.495670 0.501248 0.537161
C29   C     C_R   0.424633 0.424126 0.922020 0.024077
C30   C     C_R   0.185263 0.718891 0.087047 -0.073626
C31   C     C_R   0.156506 0.688038 0.223764 0.286197
C32   C     C_R   0.109937 0.569004 0.248808 0.059253
C33   C     C_R   0.095438 0.481782 0.138914 -0.204376
C34   C     C_R   0.870653 0.490212 0.502995 -0.010594
C35   C     C_R   0.122507 0.513660 0.003882 -0.129160
C36   C     C_3   0.066398 0.705445 0.784509 -0.141766
C37   C     C_3   0.087849 0.862085 0.332847 -0.144824
C38   C     C_R   0.937568 0.428586 0.606626 -0.045167
C39   C     C_R   0.066539 0.432580 0.604109 -0.153858
C40   C     C_R   0.127749 0.490170 0.495216 0.015095
C41   C     C_R   0.058473 0.537904 0.384036 0.007451
C42   C     C_R   0.851718 0.391639 0.843093 -0.081457
Cu1   Cu    Cu3+1 0.499990 0.499990 0.640660 0.947653
Cu2   Cu    Cu3+1 0.500010 0.500010 0.359340 0.938378
H1    H     H_    0.691017 0.143664 0.958755 0.108948
H2    H     H_    0.362561 0.361874 0.121295 0.115355
H3    H     H_    0.222655 0.809638 0.066939 0.112417
H4    H     H_    0.672277 0.670864 0.260345 0.172489
H5    H     H_    0.805019 0.802327 0.141160 0.099448
H6    H     H_    0.802043 0.803263 0.886047 0.103083
H7    H     H_    0.668192 0.669660 0.754868 0.181886
H8    H     H_    0.362303 0.362119 0.863885 0.107481
H9    H     H_    0.059150 0.390024 0.157469 0.115716
H10   H     H_    0.109599 0.445930 0.920034 0.118142
H11   H     H_    0.879662 0.584090 0.308946 0.119506
H12   H     H_    0.729817 0.067420 0.718249 0.105315
H13   H     H_    0.119107 0.386427 0.683705 0.114141
H14   H     H_    0.881278 0.483024 0.878553 0.103598
H15   H     H_    0.767988 0.351293 0.038186 0.114668
H16   H     H_    0.028179 0.784543 0.845350 0.086430
H17   H     H_    0.997354 0.629140 0.778754 0.128109
H18   H     H_    0.081158 0.735837 0.676849 0.159252
H19   H     H_    0.993495 0.820384 0.339060 0.095541
H20   H     H_    0.094557 0.920039 0.239605 0.103395
H21   H     H_    0.102580 0.923857 0.425947 0.147934
H22   H     H_    0.845452 0.197695 0.557215 0.090256
H23   H     H_    0.622471 0.108672 0.336775 0.121613
H24   H     H_    0.299137 0.232922 0.647648 0.121257
H25   H     H_    0.179629 0.130265 0.821472 0.101518
H26   H     H_    0.201873 0.908874 0.855953 0.135168
H27   H     H_    0.331549 0.783771 0.704686 0.210501
H28   H     H_    0.622497 0.884932 0.341702 0.111845
N1    N     N_R   0.501190 0.501210 0.147910 -0.247322
N2    N     N_R   0.501230 0.501290 0.852040 -0.233799
O1    O     O_R   0.499990 0.319640 0.618810 -0.502999
O2    O     O_3   0.179421 0.770869 0.333713 -0.557334
O3    O     O_R   0.500000 0.319660 0.381240 -0.510239
O4    O     O_R   0.319640 0.500000 0.618780 -0.486442
O5    O     O_R   0.319650 0.500020 0.381210 -0.487350
O6    O     O_R   0.500000 0.680340 0.618760 -0.539409
O7    O     O_R   0.500010 0.680360 0.381190 -0.497576
O8    O     O_R   0.680350 0.499980 0.618790 -0.511906
O9    O     O_R   0.680360 0.500000 0.381220 -0.534911
O10   O     O_3   0.180365 0.666890 0.841179 -0.573967

loop_
_geom_bond_atom_site_label_1
_geom_bond_atom_site_label_2
_ccdc_geom_bond_type
C27   C29   A    
C1    O3    A    
C5    H12   S    
Cu2   O9    S    
C42   H14   S    
C21   H5    S    
Cu1   O4    S    
C5    C6    A    
C21   C22   A    
Cu2   O3    S    
C9    H25   S    
C18   C19   A    
C30   C31   A    
C11   H27   S    
C39   H13   S    
C26   N1    A    
C12   O10   S    
C25   N2    A    
C7    C42   A    
C4    C40   S    
C8    C9    A    
C18   H28   S    
C37   H21   S    
C32   C41   S    
C1    C15   S    
C9    C10   A    
C22   H6    S    
C24   H7    S    
C28   C34   S    
C13   C14   A    
C28   O9    A    
Cu1   O1    S    
C36   H18   S    
C37   H19   S    
C33   H9    S    
C17   H23   S    
C13   C19   A    
C28   O8    A    
C1    O1    A    
C30   H3    S    
C24   C25   A    
C4    O5    A    
Cu2   O7    S    
C39   C40   A    
C2    H15   S    
C29   N2    A    
C3    C5    A    
C25   C26   A    
C3    H1    S    
C16   O6    A    
Cu1   N2    S    
Cu1   Cu2   S    
C4    O4    A    
C31   C32   A    
C23   C34   A    
C17   C18   A    
C12   C35   A    
C20   H4    S    
C10   H26   S    
C27   H2    S    
C40   C41   A    
C37   O2    S    
C8    H24   S    
C22   C24   A    
C36   H17   S    
C37   H20   S    
C15   C17   A    
C8    C14   A    
C12   C30   A    
C34   C38   A    
Cu2   O5    S    
C36   O10   S    
C36   H16   S    
C23   H11   S    
C6    C7    A    
C23   C41   A    
C32   C33   A    
C2    C3    A    
Cu1   O6    S    
C11   C13   A    
C31   O2    S    
C38   C39   A    
C20   C26   A    
C2    C42   A    
C16   C19   S    
C16   O7    A    
C33   C35   A    
C7    C38   S    
Cu2   N1    S    
C10   C11   A    
C6    H22   S    
C20   C21   A    
Cu1   O8    S    
C14   C15   A    
C27   N1    A    
C35   H10   S    
C29   H8    S    
