data_mof_unit_24841.cif
_audit_creation_date              2013-03-05T16:37:43-0500
_audit_creation_method            fapswitch 2.2
_symmetry_space_group_name_H-M    P1
_symmetry_Int_Tables_number       1
_space_group_crystal_system       triclinic
_cell_length_a                    18.864246
_cell_length_b                    18.622133
_cell_length_c                    18.867183
_cell_angle_alpha                 109.481186
_cell_angle_beta                  109.923793
_cell_angle_gamma                 109.484977
_cell_volume                      5071.87202423

loop_
_atom_site_label
_atom_site_type_symbol
_atom_site_description
_atom_site_fract_x
_atom_site_fract_y
_atom_site_fract_z
_atom_type_partial_charge
O1    O     O_R   0.408360 0.551710 0.460090 -0.638816
O2    O     O_R   0.408390 0.448280 0.356670 -0.569402
C1    C     C_R   0.379428 0.500127 0.379919 0.911453
O3    O     O_R   0.591600 0.643340 0.551710 -0.635514
O4    O     O_R   0.591630 0.539900 0.448290 -0.588679
C2    C     C_R   0.621038 0.620936 0.501517 0.840123
Zn1   Zn    Zn3+2 0.499980 0.569070 0.569050 1.002745
Zn2   Zn    Zn3+2 0.500020 0.430930 0.430950 1.094709
O5    O     O_R   0.591610 0.551720 0.643330 -0.588647
O6    O     O_R   0.591640 0.448290 0.539910 -0.621381
O7    O     O_R   0.408370 0.460100 0.551710 -0.613625
O8    O     O_R   0.408400 0.356660 0.448290 -0.596410
C3    C     C_R   0.621258 0.501202 0.619991 0.927387
C4    C     C_R   0.377630 0.379601 0.497252 0.958933
H1    H     H_    0.807551 0.867478 0.902556 0.145582
C5    C     C_R   0.732452 0.847898 0.775626 -0.154553
H2    H     H_    0.693855 0.873710 0.793738 0.132056
C6    C     C_R   0.719429 0.819670 0.691407 -0.100273
H3    H     H_    0.671343 0.825054 0.645143 0.134115
C7    C     C_R   0.768796 0.785329 0.667225 0.117439
C8    C     C_R   0.833352 0.782498 0.729168 -0.174401
H4    H     H_    0.873762 0.758723 0.712374 0.142700
C9    C     C_R   0.847325 0.812580 0.813845 -0.130565
H5    H     H_    0.898647 0.812867 0.862113 0.144868
C10   C     C_R   0.796482 0.844409 0.836901 -0.084280
C11   C     C_R   0.824739 0.820481 0.576451 -0.235554
H6    H     H_    0.882912 0.876516 0.636623 0.162040
C12   C     C_R   0.812272 0.811254 0.496004 -0.089640
C13   C     C_R   0.733560 0.743268 0.417293 0.025572
C14   C     C_R   0.674232 0.678692 0.421319 -0.124954
H7    H     H_    0.616300 0.622188 0.361406 0.163797
C15   C     C_R   0.686285 0.688704 0.501973 -0.055220
C16   C     C_R   0.759668 0.762747 0.580556 -0.016560
C17   C     C_R   0.634331 0.741718 0.285092 0.184656
C18   C     C_R   0.612488 0.734955 0.203210 -0.210952
H8    H     H_    0.554472 0.736249 0.167972 0.189023
C19   C     C_R   0.664765 0.726843 0.166546 0.328348
C20   C     C_R   0.740919 0.727554 0.214001 -0.197610
H9    H     H_    0.783953 0.723771 0.188666 0.178778
C21   C     C_R   0.762942 0.734117 0.295341 -0.172699
H10   H     H_    0.823337 0.738354 0.332003 0.138278
C22   C     C_R   0.709531 0.738951 0.331141 0.125825
H11   H     H_    0.544084 0.897521 0.613280 0.122546
C23   C     C_R   0.433319 0.770408 0.558620 -0.140714
H12   H     H_    0.431639 0.786214 0.618459 0.135001
C24   C     C_R   0.371846 0.687328 0.484139 -0.058966
H13   H     H_    0.322846 0.639673 0.487030 0.136689
C25   C     C_R   0.374815 0.665509 0.406790 0.140340
C26   C     C_R   0.435920 0.730347 0.403375 -0.176575
H14   H     H_    0.434690 0.716439 0.342536 0.146202
C27   C     C_R   0.497375 0.813469 0.477819 -0.137023
H15   H     H_    0.544918 0.862896 0.474915 0.140253
C28   C     C_R   0.496635 0.833175 0.555701 -0.140902
C29   C     C_R   0.247531 0.575373 0.259516 -0.232500
H16   H     H_    0.246895 0.635688 0.267714 0.161698
C30   C     C_R   0.184704 0.496054 0.182579 -0.115727
C31   C     C_R   0.181541 0.416138 0.170063 -0.138331
C32   C     C_R   0.245232 0.417216 0.236200 0.267995
C33   C     C_R   0.310128 0.498434 0.314283 -0.197155
C34   C     C_R   0.309607 0.577784 0.326935 -0.039674
C35   C     C_R   0.041094 0.273462 0.089134 -0.072128
H17   H     H_    0.036938 0.291118 0.147799 0.112590
C36   C     C_R   0.975845 0.192550 0.013361 -0.126404
H18   H     H_    0.921535 0.148227 0.013556 0.130850
C37   C     C_R   0.981087 0.168498 0.937578 -0.092543
H19   H     H_    0.930910 0.105559 0.879154 0.124918
C38   C     C_R   0.051468 0.225431 0.937416 -0.116063
H20   H     H_    0.055962 0.206001 0.879036 0.145431
C39   C     C_R   0.116078 0.307157 0.012569 -0.108063
H21   H     H_    0.170243 0.350887 0.011681 0.119071
C40   C     C_R   0.111408 0.331328 0.089013 0.171805
H22   H     H_    0.154365 0.550965 0.437490 0.145614
C41   C     C_R   0.227929 0.524688 0.531076 -0.153327
H23   H     H_    0.255403 0.588862 0.586343 0.139942
C42   C     C_R   0.249573 0.463317 0.543672 -0.104139
H24   H     H_    0.293205 0.480231 0.609021 0.143050
C43   C     C_R   0.214394 0.380216 0.472087 0.095378
C44   C     C_R   0.155879 0.358569 0.388254 -0.105667
H25   H     H_    0.126162 0.293768 0.332777 0.169952
C45   C     C_R   0.135069 0.420385 0.375763 -0.137017
H26   H     H_    0.090722 0.403809 0.310881 0.135007
C46   C     C_R   0.170835 0.503282 0.447161 -0.123533
C47   C     C_R   0.171563 0.246891 0.484106 -0.267324
H27   H     H_    0.112098 0.247298 0.476751 0.167597
C48   C     C_R   0.186313 0.181483 0.494889 -0.075904
C49   C     C_R   0.263590 0.180342 0.504577 0.073562
C50   C     C_R   0.324926 0.246455 0.504022 -0.125444
H28   H     H_    0.384130 0.246220 0.509915 0.162065
C51   C     C_R   0.310859 0.312753 0.495681 -0.058686
C52   C     C_R   0.233760 0.313516 0.485275 -0.020749
C53   C     C_R   0.355857 0.123673 0.574384 0.304080
C54   C     C_R   0.376717 0.056397 0.563441 -0.216827
H29   H     H_    0.435039 0.068035 0.614919 0.166595
C55   C     C_R   0.323832 0.974482 0.486117 0.247159
C56   C     C_R   0.247613 0.958433 0.419815 -0.036630
H30   H     H_    0.206066 0.895708 0.359226 0.154913
C57   C     C_R   0.226087 0.024527 0.429855 -0.257952
H31   H     H_    0.170355 0.012904 0.376037 0.150289
C58   C     C_R   0.279531 0.107631 0.505975 0.003864
C59   C     C_R   0.782988 0.534340 0.622012 -0.128338
H32   H     H_    0.741313 0.548238 0.579679 0.169640
C60   C     C_R   0.855465 0.538002 0.615658 -0.112425
H33   H     H_    0.867464 0.552416 0.568634 0.177245
C61   C     C_R   0.911611 0.521066 0.668435 -0.151005
H34   H     H_    0.966465 0.521529 0.661668 0.149340
C62   C     C_R   0.897532 0.503856 0.730243 -0.154594
H35   H     H_    0.941707 0.488687 0.767906 0.152713
C63   C     C_R   0.826609 0.503874 0.740613 0.094887
C64   C     C_R   0.765562 0.513454 0.682121 0.033907
C65   C     C_R   0.688810 0.501800 0.685366 -0.243272
C66   C     C_R   0.674686 0.485577 0.748487 0.296825
H36   H     H_    0.729094 0.473261 0.859864 0.215597
C67   C     C_R   0.738537 0.483292 0.809634 -0.287193
C68   C     C_R   0.813878 0.493190 0.806776 -0.192714
O9    O     O_R   0.051730 0.908360 0.460070 -0.594757
O10   O     O_R   0.948280 0.908380 0.356650 -0.622404
C69   C     C_R   0.000236 0.879965 0.379808 0.853956
O11   O     O_R   0.960110 0.908350 0.551690 -0.616275
O12   O     O_R   0.856660 0.908370 0.448270 -0.619003
C70   C     C_R   0.879571 0.878074 0.497870 0.852011
Zn3   Zn    Zn3+2 0.069080 0.999960 0.569030 1.055589
Zn4   Zn    Zn3+2 0.930920 0.999990 0.430930 0.974066
O13   O     O_R   0.051720 0.091580 0.643310 -0.610226
O14   O     O_R   0.948270 0.091600 0.539890 -0.620445
O15   O     O_R   0.143340 0.091590 0.551680 -0.581582
O16   O     O_R   0.039890 0.091610 0.448270 -0.636526
C71   C     C_R   0.001612 0.121628 0.620066 0.866502
C72   C     C_R   0.120212 0.117151 0.497132 0.862309
O17   O     O_R   0.051710 0.460040 0.908380 -0.632943
O18   O     O_R   0.948270 0.356620 0.908410 -0.606749
C73   C     C_R   0.997481 0.379161 0.877894 0.849884
O19   O     O_R   0.143330 0.551680 0.091590 -0.618378
O20   O     O_R   0.039890 0.448260 0.091620 -0.624505
C74   C     C_R   0.119683 0.497960 0.118014 0.893788
Zn5   Zn    Zn3+2 0.069060 0.569020 0.999970 0.993964
Zn6   Zn    Zn3+2 0.930920 0.430910 0.000010 0.989583
O21   O     O_R   0.051700 0.643310 0.091570 -0.613542
O22   O     O_R   0.948260 0.539890 0.091600 -0.622998
O23   O     O_R   0.960080 0.551670 0.908360 -0.619886
O24   O     O_R   0.856640 0.448250 0.908390 -0.613981
C75   C     C_R   0.000367 0.620632 0.119741 0.895194
C76   C     C_R   0.879922 0.496907 0.876877 0.890915
H37   H     H_    0.930707 0.677055 0.551890 0.177278
C77   C     C_R   0.030610 0.744349 0.530329 -0.261004
H38   H     H_    0.080789 0.776839 0.598025 0.192282
C78   C     C_R   0.051772 0.759323 0.470138 0.409803
C79   C     C_R   0.984278 0.718343 0.382843 -0.072393
C80   C     C_R   0.900342 0.654245 0.355406 -0.350140
H39   H     H_    0.850115 0.619225 0.287261 0.204241
C81   C     C_R   0.879270 0.639041 0.415493 0.378385
C82   C     C_R   0.945014 0.686145 0.503656 -0.262165
C83   C     C_R   0.997690 0.677121 0.252831 -0.195147
H40   H     H_    0.993983 0.618532 0.255081 0.169443
C84   C     C_R   0.001149 0.688359 0.184823 -0.142626
C85   C     C_R   0.004599 0.762529 0.178776 0.013300
C86   C     C_R   0.005573 0.827653 0.243808 0.105064
C87   C     C_R   0.002455 0.815705 0.313588 -0.094547
C88   C     C_R   0.998452 0.739921 0.317850 0.062461
C89   C     C_R   0.083520 0.816885 0.108795 -0.242030
H41   H     H_    0.143378 0.852032 0.171074 0.174255
C90   C     C_R   0.086530 0.816470 0.035289 0.365511
C91   C     C_R   0.008263 0.767816 0.954708 -0.231872
H42   H     H_    0.008646 0.765101 0.896638 0.178789
C92   C     C_R   0.928451 0.722323 0.948083 -0.190500
H43   H     H_    0.869057 0.685715 0.885197 0.160453
C93   C     C_R   0.925226 0.722800 0.021340 0.179754
C94   C     C_R   0.003729 0.769435 0.102129 0.079331
H44   H     H_    0.402544 0.397771 0.804331 0.208109
C95   C     C_R   0.320327 0.346356 0.851407 -0.123427
H45   H     H_    0.374015 0.361841 0.910434 0.162488
C96   C     C_R   0.235357 0.308880 0.836515 -0.153281
H46   H     H_    0.224170 0.296973 0.885195 0.139058
C97   C     C_R   0.165600 0.290166 0.760791 0.127669
C98   C     C_R   0.181748 0.307722 0.699329 -0.170371
H47   H     H_    0.129076 0.295461 0.641511 0.122925
C99   C     C_R   0.267091 0.346115 0.715010 -0.100584
H48   H     H_    0.280019 0.362117 0.669031 0.157980
C100  C     C_R   0.336348 0.366358 0.791441 0.021441
C101  C     C_R   0.075291 0.328267 0.815338 -0.254605
H49   H     H_    0.134948 0.389431 0.867947 0.169057
C102  C     C_R   0.995564 0.312088 0.810381 -0.079131
C103  C     C_R   0.917476 0.232852 0.742753 0.002177
C104  C     C_R   0.921672 0.171110 0.680716 -0.249099
H50   H     H_    0.862337 0.109809 0.627838 0.152427
C105  C     C_R   0.001683 0.187910 0.685898 -0.071606
C106  C     C_R   0.079520 0.266620 0.753726 -0.006922
C107  C     C_R   0.780558 0.139305 0.734056 -0.147702
H51   H     H_    0.805240 0.096325 0.743238 0.119661
C108  C     C_R   0.698280 0.120387 0.723721 -0.165361
H52   H     H_    0.659910 0.063239 0.724952 0.127825
C109  C     C_R   0.665519 0.175183 0.711782 -0.088112
H53   H     H_    0.601821 0.160322 0.703722 0.167008
C110  C     C_R   0.714884 0.248936 0.709998 -0.084933
H54   H     H_    0.689173 0.290994 0.700232 0.163055
C111  C     C_R   0.797287 0.268189 0.720470 -0.130877
H55   H     H_    0.834661 0.325048 0.718253 0.102653
C112  C     C_R   0.830910 0.213750 0.733123 0.139859
N1    N     N_R   0.641007 0.719105 0.082170 0.218945
O25   O     O_R   0.571348 0.720424 0.039143 -0.378391
O26   O     O_R   0.688025 0.709383 0.046902 -0.395227
N2    N     N_R   0.243399 0.335914 0.223982 0.215590
O27   O     O_R   0.244188 0.286940 0.156706 -0.360071
O28   O     O_R   0.240535 0.310368 0.279736 -0.424125
N3    N     N_R   0.413343 0.207709 0.653953 0.222322
O29   O     O_R   0.495010 0.232748 0.701266 -0.401171
O30   O     O_R   0.383134 0.256653 0.683292 -0.376252
C113  C     C_3   0.350784 0.906038 0.474600 -0.785926
H56   H     H_    0.415982 0.932889 0.480590 0.214133
H57   H     H_    0.354586 0.888227 0.525849 0.273076
H58   H     H_    0.303844 0.845302 0.409585 0.248733
N4    N     N_R   0.595351 0.469406 0.750310 0.234232
O31   O     O_R   0.597857 0.498076 0.824669 -0.352914
O32   O     O_R   0.519864 0.414756 0.678792 -0.384737
N5    N     N_R   0.141319 0.814031 0.497585 0.209449
O33   O     O_R   0.170052 0.794623 0.444426 -0.443283
O34   O     O_R   0.196911 0.875914 0.578702 -0.402405
N6    N     N_R   0.791234 0.577602 0.387207 0.210377
O35   O     O_R   0.770663 0.565510 0.443085 -0.437898
O36   O     O_R   0.730261 0.534548 0.305503 -0.388210
C114  C     C_3   0.007741 0.906663 0.235082 -0.863805
H59   H     H_    0.058787 0.934112 0.219814 0.233486
H60   H     H_    0.943459 0.885636 0.181353 0.258747
H61   H     H_    0.024240 0.962743 0.294871 0.247929
N7    N     N_R   0.168657 0.864020 0.042164 0.211828
O37   O     O_R   0.241307 0.908976 0.116765 -0.377968
O38   O     O_R   0.171581 0.863082 0.973942 -0.377745
C115  C     C_3   0.838674 0.673155 0.012784 -0.807249
H62   H     H_    0.832179 0.717804 0.063101 0.269975
H63   H     H_    0.783279 0.647902 0.947740 0.267995
H64   H     H_    0.834542 0.616495 0.022236 0.230766
C116  C     C_3   0.578650 0.755135 0.323339 -0.933303
H65   H     H_    0.529977 0.767612 0.284367 0.244632
H66   H     H_    0.542643 0.695173 0.324373 0.234078
H67   H     H_    0.620215 0.812835 0.390721 0.247724

loop_
_geom_bond_atom_site_label_1
_geom_bond_atom_site_label_2
_geom_bond_distance
_ccdc_geom_bond_type
C2    C15   1.434221 S    
C50   H28   1.085662 S    
C36   C37   1.397687 A    
C21   H10   1.072022 S    
C87   C88   1.418647 A    
O9    Zn3   2.018179 S    
C13   C22   1.496773 S    
C56   H30   1.083264 S    
C95   C96   1.396888 A    
N2    O27   1.301125 A    
C29   H16   1.086277 S    
C61   H34   1.082576 S    
C79   C80   1.402949 A    
C17   C22   1.417236 A    
Zn6   O24   2.019693 S    
N7    O37   1.301599 A    
C26   C27   1.398485 A    
C61   C62   1.391657 A    
C90   C91   1.403980 A    
C31   C32   1.395147 A    
C101  C106  1.381931 A    
C29   C34   1.379486 A    
C97   C98   1.404125 A    
C63   C64   1.406451 A    
N4    O31   1.301493 A    
Zn5   O23   2.020128 S    
C30   C74   1.424506 S    
C96   C97   1.405320 A    
C11   H6    1.085737 S    
C13   C14   1.387607 A    
O10   Zn4   2.018039 S    
C107  C112  1.404860 A    
C47   H27   1.085318 S    
O4    C2    1.282395 A    
C68   C76   1.436886 S    
C12   C13   1.414931 A    
C18   C19   1.403022 A    
O24   C76   1.280337 A    
C6    H3    1.083597 S    
C77   C82   1.396467 A    
C39   H21   1.083111 S    
C104  C105  1.396259 A    
C48   C49   1.414425 A    
C14   H7    1.084825 S    
C98   H47   1.083129 S    
O7    C4    1.275084 A    
N5    O34   1.301387 A    
C75   C84   1.428618 S    
H1    C10   1.082378 S    
C62   H35   1.080048 S    
C111  C112  1.405065 A    
C90   N7    1.439572 S    
C5    C10   1.396593 A    
O10   C69   1.280560 A    
C35   C36   1.398521 A    
C17   C18   1.405019 A    
C95   H45   1.082308 S    
C63   C68   1.411956 A    
C108  C109  1.397521 A    
C115  H62   1.108309 S    
O5    C3    1.278384 A    
C103  C104  1.387245 A    
H36   C67   1.084295 S    
O21   C75   1.275242 A    
C67   C68   1.393165 A    
O1    Zn1   2.019968 S    
C65   C66   1.408204 A    
C23   C28   1.397245 A    
H11   C28   1.081981 S    
C17   C116  1.502613 S    
C32   N2    1.439960 S    
C85   C94   1.489057 S    
C93   C115  1.503465 S    
C37   C38   1.397379 A    
C113  H58   1.110946 S    
C9    H5    1.076617 S    
C89   C90   1.404805 A    
C25   C34   1.485424 S    
N1    O25   1.301620 A    
C96   H46   1.083497 S    
C53   N3    1.438775 S    
C43   C44   1.403795 A    
C35   C40   1.403825 A    
C21   C22   1.401179 A    
C59   C64   1.417212 A    
C86   C114  1.523023 S    
C20   C21   1.396130 A    
O17   Zn5   2.011015 S    
C8    H4    1.083403 S    
C101  C102  1.394467 A    
N2    O28   1.300423 A    
C93   C94   1.411134 A    
C35   H17   1.083035 S    
C103  C112  1.481029 S    
O3    Zn1   2.024734 S    
C114  H60   1.110009 S    
C114  H59   1.109242 S    
C57   C58   1.401382 A    
C23   C24   1.398380 A    
C57   H31   1.075755 S    
C91   C92   1.396540 A    
C41   H23   1.082301 S    
N1    O26   1.300479 A    
C43   C52   1.478203 S    
C83   C88   1.375726 A    
C97   C106  1.478299 S    
C39   C40   1.403785 A    
C36   H18   1.082296 S    
C69   C87   1.437564 S    
C27   H15   1.082130 S    
C80   H39   1.083671 S    
H44   C100  1.082361 S    
C77   C78   1.404545 A    
C12   C70   1.431012 S    
C53   C54   1.406692 A    
C44   H25   1.082765 S    
C5    H2    1.082343 S    
C110  C111  1.398428 A    
N6    O35   1.300623 A    
C102  C103  1.410108 A    
O22   C75   1.278568 A    
C91   H42   1.082444 S    
C113  H56   1.110305 S    
O1    C1    1.275550 A    
C18   H8    1.082939 S    
C86   C87   1.423283 A    
Zn4   O16   2.018229 S    
Zn1   O7    2.010917 S    
C42   H24   1.083159 S    
C109  C110  1.397717 A    
C4    C51   1.428637 S    
Zn3   O15   2.017825 S    
C19   C20   1.402975 A    
O15   C72   1.278828 A    
C11   C16   1.381533 A    
O13   C71   1.277866 A    
C89   H41   1.083448 S    
Zn2   O8    2.024734 S    
C7    C8    1.401985 A    
C54   C55   1.399659 A    
C44   C45   1.397909 A    
C104  H50   1.085464 S    
C55   C56   1.399859 A    
C66   C67   1.379676 A    
C19   N1    1.439981 S    
C31   C40   1.483052 S    
C38   H20   1.081487 S    
C60   C61   1.387910 A    
C49   C58   1.488138 S    
C42   C43   1.403320 A    
C3    C65   1.433708 S    
C84   C85   1.405409 A    
C78   N5    1.436472 S    
O20   Zn6   2.020001 S    
C7    C16   1.476983 S    
C108  H52   1.082155 S    
C45   C46   1.397001 A    
C25   C26   1.401689 A    
C115  H63   1.110128 S    
C59   C60   1.394011 A    
N3    O30   1.298792 A    
C26   H14   1.079230 S    
C8    C9    1.397580 A    
O20   C74   1.273833 A    
N4    O32   1.300748 A    
C32   C33   1.416332 A    
O3    C2    1.276203 A    
C30   C31   1.403847 A    
C41   C42   1.398430 A    
Zn4   O14   2.018263 S    
C107  C108  1.397971 A    
C41   C46   1.398584 A    
C116  H65   1.110790 S    
C23   H12   1.082244 S    
C49   C50   1.386072 A    
Zn6   O22   2.011101 S    
C78   C79   1.414342 A    
C83   C84   1.386189 A    
O12   Zn4   2.017575 S    
C38   C39   1.399142 A    
C109  H53   1.081271 S    
Zn5   O21   2.025140 S    
C47   C52   1.381833 A    
O9    C69   1.279475 A    
C24   H13   1.079046 S    
C92   H43   1.082942 S    
O16   C72   1.283245 A    
H37   C82   1.081368 S    
C47   C48   1.398303 A    
N5    O33   1.299907 A    
Zn2   O6    2.019968 S    
O18   Zn6   2.025011 S    
C55   C113  1.501028 S    
C80   C81   1.403393 A    
C45   H26   1.082309 S    
O6    C3    1.276833 A    
N7    O38   1.301593 A    
O4    Zn2   2.010917 S    
O2    Zn2   2.019868 S    
O12   C70   1.272799 A    
C56   C57   1.395004 A    
C29   C30   1.386740 A    
C101  H49   1.085601 S    
N6    O36   1.301580 A    
C11   C12   1.394393 A    
O11   C70   1.285503 A    
C77   H38   1.082548 S    
C53   C58   1.420409 A    
C15   C16   1.407133 A    
C99   H48   1.081174 S    
O18   C73   1.278677 A    
O8    C4    1.280791 A    
C107  H51   1.083300 S    
C37   H19   1.082493 S    
C64   C65   1.416625 A    
C14   C15   1.395974 A    
C73   C102  1.435698 S    
C105  C106  1.405193 A    
C20   H9    1.082888 S    
C62   C63   1.416681 A    
O23   C76   1.278432 A    
O19   Zn5   2.019608 S    
O19   C74   1.278609 A    
C92   C93   1.401295 A    
C54   H29   1.083039 S    
C71   C105  1.428797 S    
C98   C99   1.398930 A    
C89   C94   1.404209 A    
O2    C1    1.286802 A    
C116  H67   1.110402 S    
C6    C7    1.405950 A    
C9    C10   1.397152 A    
C60   H33   1.079637 S    
C66   N4    1.439781 S    
Zn3   O13   2.018166 S    
C95   C100  1.396118 A    
C116  H66   1.107333 S    
C111  H55   1.082383 S    
C24   C25   1.404771 A    
Zn1   O5    2.019867 S    
C33   C34   1.420055 A    
C115  H64   1.109637 S    
N3    O29   1.301371 A    
C5    C6    1.397213 A    
C110  H54   1.082314 S    
O14   C71   1.279259 A    
C85   C86   1.397795 A    
C113  H57   1.110243 S    
C50   C51   1.392531 A    
C81   N6    1.439792 S    
C81   C82   1.403384 A    
C48   C72   1.437033 S    
C59   H32   1.081047 S    
C83   H40   1.085859 S    
C27   C28   1.397043 A    
C51   C52   1.405374 A    
C79   C88   1.488970 S    
O11   Zn3   2.018145 S    
C114  H61   1.103683 S    
H22   C46   1.082489 S    
C99   C100  1.397601 A    
O17   C73   1.280257 A    
C1    C33   1.444533 S    
