data_mof_unit_59828.cif
_audit_creation_date              2012-12-10T20:50:11-0500
_audit_creation_method            fapswitch 2.2
_symmetry_space_group_name_H-M    P1
_symmetry_Int_Tables_number       1
_space_group_crystal_system       triclinic
_cell_length_a                    19.218584
_cell_length_b                    8.934395
_cell_length_c                    8.10491
_cell_angle_alpha                 90.000213
_cell_angle_beta                  90.000052
_cell_angle_gamma                 90.0
_cell_volume                      1391.66508697

loop_
_atom_site_label
_atom_site_type_symbol
_atom_type_description
_atom_site_fract_x
_atom_site_fract_y
_atom_site_fract_z
_atom_type_partial_charge
C1    C     C_R   0.500000 0.217985 0.500000 0.941793
C2    C     C_R   0.253645 0.547129 0.359780 -0.192598
C3    C     C_R   0.181196 0.452025 0.643051 -0.047591
C4    C     C_R   0.818804 0.452023 0.356948 -0.047592
C5    C     C_R   0.818805 0.547964 0.643052 -0.047590
C6    C     C_R   0.181195 0.547965 0.356948 -0.047591
C7    C     C_R   0.144871 0.499994 0.500000 -0.100283
C8    C     C_R   0.855129 0.499993 0.500000 -0.100283
C9    C     C_R   0.289616 0.499998 0.500000 -0.084870
C10   C     C_R   0.710384 0.499998 0.500000 -0.084870
C11   C     C_R   0.930283 0.499993 0.500000 0.408991
C12   C     C_R   0.500000 0.782015 0.500000 0.941794
C13   C     C_R   0.069717 0.499993 0.500000 0.408991
C14   C     C_2   0.146109 0.402562 0.798346 0.931039
C15   C     C_2   0.853890 0.402561 0.201654 0.931039
C16   C     C_2   0.853892 0.597424 0.798347 0.931039
C17   C     C_2   0.146108 0.597425 0.201653 0.931040
C18   C     C_R   0.365178 0.500000 0.500000 0.878531
C19   C     C_R   0.634822 0.500000 0.500000 0.878532
C20   C     C_1   0.500000 0.065187 0.500000 -0.173943
C21   C     C_1   0.500000 0.934813 0.500000 -0.173944
C22   C     C_R   0.253646 0.452865 0.640219 -0.192597
C23   C     C_R   0.746354 0.452864 0.359780 -0.192598
C24   C     C_R   0.746355 0.547129 0.640220 -0.192598
H1    H     H_    0.282470 0.417105 0.748190 0.202131
H2    H     H_    0.717530 0.417104 0.251810 0.202132
H3    H     H_    0.717531 0.582891 0.748191 0.202131
H4    H     H_    0.282469 0.582891 0.251810 0.202131
H5    H     H_    0.153946 0.290043 0.013781 0.364677
H6    H     H_    0.846053 0.290044 0.986216 0.364678
H7    H     H_    0.846057 0.709944 0.013783 0.364677
H8    H     H_    0.153943 0.709943 0.986217 0.364677
N1    N     N_1   0.500000 0.500000 0.073640 -0.025432
N2    N     N_1   0.500000 0.500000 0.926360 -0.025432
N3    N     N_R   0.034508 0.368758 0.499886 -0.113489
N4    N     N_R   0.965493 0.631228 0.499891 -0.113493
N5    N     N_R   0.965493 0.368758 0.500109 -0.113488
N6    N     N_R   0.034507 0.631228 0.500114 -0.113492
O1    O     O_R   0.500000 0.285350 0.636850 -0.612300
O2    O     O_R   0.182772 0.315909 0.912946 -0.798167
O3    O     O_2   0.913857 0.439100 0.171452 -0.542211
O4    O     O_R   0.817228 0.315910 0.087051 -0.798168
O5    O     O_2   0.913857 0.560876 0.828551 -0.542213
O6    O     O_R   0.817231 0.684081 0.912948 -0.798166
O7    O     O_2   0.086142 0.560882 0.171451 -0.542213
O8    O     O_R   0.182769 0.684079 0.087052 -0.798167
O9    O     O_R   0.500000 0.714650 0.363150 -0.612300
O10   O     O_R   0.500000 0.714650 0.636850 -0.612300
O11   O     O_R   0.500000 0.285350 0.363150 -0.612300
O12   O     O_R   0.398140 0.500000 0.636920 -0.619479
O13   O     O_R   0.601860 0.500000 0.363080 -0.619479
O14   O     O_R   0.601860 0.500000 0.636920 -0.619479
O15   O     O_R   0.398140 0.500000 0.363080 -0.619479
O16   O     O_2   0.086143 0.439104 0.828548 -0.542213
Zn1   Zn    Zn3+2 0.500000 0.500000 0.682780 1.011192
Zn2   Zn    Zn3+2 0.500000 0.500000 0.317220 1.011192

loop_
_geom_bond_atom_site_label_1
_geom_bond_atom_site_label_2
_ccdc_geom_bond_type
O10   Zn1   S    
C24   H3    S    
C6    C7    A    
C10   C23   A    
C5    C8    A    
O11   Zn2   S    
C16   O6    S    
O12   Zn1   S    
O14   Zn1   S    
C12   O10   A    
C10   C19   S    
C4    C8    A    
N1    Zn2   S    
N4    N6    A    
N1    N2    T    
N2    Zn1   S    
C20   C21   T    
C3    C14   S    
C16   O5    D    
C18   O12   A    
C13   N6    A    
C2    C6    A    
C5    C24   A    
C1    O11   A    
C4    C15   S    
C8    C11   S    
C12   C21   S    
H5    O2    S    
C11   N4    A    
C14   O16   D    
C17   O7    D    
C13   N3    A    
C3    C7    A    
C12   O9    A    
C9    C22   A    
C23   H2    S    
H7    O6    S    
C1    O1    A    
C14   O2    S    
C6    C17   S    
C19   O13   A    
C9    C18   S    
C7    C13   S    
C17   O8    S    
C15   O3    D    
O13   Zn2   S    
O15   Zn2   S    
N3    N5    A    
C11   N5    A    
C4    C23   A    
H6    O4    S    
C5    C16   S    
C2    H4    S    
C18   O15   A    
C10   C24   A    
C2    C9    A    
H8    O8    S    
C19   O14   A    
C3    C22   A    
O1    Zn1   S    
C15   O4    S    
O9    Zn2   S    
C1    C20   S    
C22   H1    S    
