data_mof_unit_46866.cif
_audit_creation_date              2012-12-10T17:15:12-0500
_audit_creation_method            fapswitch 2.2
_symmetry_space_group_name_H-M    P1
_symmetry_Int_Tables_number       1
_space_group_crystal_system       triclinic
_cell_length_a                    15.786642
_cell_length_b                    12.992215
_cell_length_c                    11.854534
_cell_angle_alpha                 99.242601
_cell_angle_beta                  92.378098
_cell_angle_gamma                 95.910319
_cell_volume                      2382.90838907

loop_
_atom_site_label
_atom_site_type_symbol
_atom_type_description
_atom_site_fract_x
_atom_site_fract_y
_atom_site_fract_z
_atom_type_partial_charge
C1    C     C_R   0.502049 0.300011 0.478968 0.831950
C2    C     C_R   0.498484 0.699632 0.520927 0.837579
C3    C     C_R   0.450251 0.014715 0.364832 0.275380
C4    C     C_R   0.571690 0.980141 0.631834 0.288083
C5    C     C_R   0.463618 0.122978 0.370871 -0.302101
C6    C     C_R   0.561962 0.871445 0.616412 -0.324507
C7    C     C_R   0.543270 0.142364 0.554957 0.208153
C8    C     C_R   0.455765 0.862243 0.460540 0.211335
C9    C     C_R   0.532362 0.031682 0.550035 -0.024755
C10   C     C_R   0.479042 0.969516 0.458084 -0.070009
C11   C     C_R   0.463300 0.367739 0.029481 -0.355529
C12   C     C_R   0.539999 0.631732 0.970351 -0.357566
C13   C     C_R   0.456137 0.386147 0.147125 0.060924
C14   C     C_R   0.546257 0.613103 0.852471 0.061785
C15   C     C_R   0.526664 0.559429 0.155007 0.252644
C16   C     C_R   0.474040 0.440656 0.845615 0.263151
C17   C     C_R   0.517064 0.548581 0.032028 0.027502
C18   C     C_R   0.484678 0.451388 0.968204 0.029609
C19   C     C_R   0.340296 0.499865 0.501046 0.803945
C20   C     C_R   0.659726 0.500126 0.498972 0.801295
C21   C     C_3   0.964110 0.418765 0.544353 0.114256
C22   C     C_3   0.035961 0.581862 0.456115 0.110989
C23   C     C_3   0.017812 0.410371 0.437905 0.109935
C24   C     C_3   0.982258 0.590232 0.562551 0.111661
C25   C     C_1   0.250417 0.498413 0.503615 -0.185787
C26   C     C_1   0.749598 0.501772 0.496509 -0.194508
C27   C     C_3   0.030127 0.506629 0.610375 -0.245000
C28   C     C_3   0.969953 0.494025 0.390119 -0.246408
C29   C     C_3   0.083050 0.498121 0.502945 0.070561
C30   C     C_3   0.917006 0.502462 0.497496 0.071700
C31   C     C_1   0.174810 0.497483 0.504650 -0.078658
C32   C     C_1   0.825251 0.502894 0.495642 -0.080805
C33   C     C_R   0.504528 0.812804 0.532619 -0.113588
C34   C     C_R   0.503996 0.186508 0.468073 -0.146543
Cu1   Cu    Cu3+1 0.506200 0.507730 0.615930 0.931055
Cu2   Cu    Cu3+1 0.493800 0.492270 0.384070 0.918936
H1    H     H_    0.943640 0.489515 0.300875 0.136500
H2    H     H_    0.056394 0.511301 0.699681 0.135656
H3    H     H_    0.598060 0.832366 0.673829 0.158301
H4    H     H_    0.440931 0.158063 0.300375 0.172217
H5    H     H_    0.570610 0.676742 0.810227 0.131305
H6    H     H_    0.433502 0.321645 0.189375 0.130589
H7    H     H_    0.452564 0.286371 0.989220 0.131906
H8    H     H_    0.552392 0.713073 0.010118 0.131892
N1    N     N_R   0.515540 0.519350 0.790140 -0.179025
N2    N     N_R   0.484460 0.480650 0.209860 -0.180964
O1    O     O_R   0.504400 0.354460 0.582000 -0.561358
O2    O     O_R   0.495600 0.645540 0.418000 -0.585385
O3    O     O_R   0.493920 0.341410 0.386200 -0.602747
O4    O     O_R   0.506080 0.658590 0.613800 -0.597712
O5    O     O_R   0.384320 0.506520 0.597880 -0.592259
O6    O     O_R   0.615680 0.493480 0.402120 -0.591824
O7    O     O_R   0.373840 0.493460 0.402080 -0.579929
O8    O     O_R   0.626160 0.506540 0.597920 -0.571585
C35   C     C_3   0.044099 0.312473 0.363613 -0.404018
C36   C     C_3   0.966528 0.240860 0.303750 -0.343252
C37   C     C_3   0.993690 0.151147 0.218181 -0.855380
H9    H     H_    0.029070 0.182612 0.149667 0.252395
H10   H     H_    0.034776 0.103440 0.262184 0.253037
H11   H     H_    0.936267 0.099602 0.177974 0.240664
H12   H     H_    0.928564 0.206921 0.368272 0.219392
H13   H     H_    0.925468 0.286862 0.257392 0.218707
H14   H     H_    0.086056 0.338601 0.298227 0.201695
H15   H     H_    0.081559 0.268866 0.417512 0.185532
C38   C     C_3   0.955428 0.688100 0.636193 -0.405849
C39   C     C_3   0.032486 0.760048 0.696512 -0.342416
C40   C     C_3   0.004309 0.853827 0.775180 -0.857715
H16   H     H_    0.967039 0.900786 0.724914 0.252680
H17   H     H_    0.964687 0.826619 0.842300 0.252780
H18   H     H_    0.061331 0.904719 0.817676 0.241393
H19   H     H_    0.070922 0.715547 0.748390 0.218133
H20   H     H_    0.073256 0.789806 0.632154 0.220889
H21   H     H_    0.918046 0.731208 0.581602 0.187164
H22   H     H_    0.913221 0.662142 0.701445 0.200227
C41   C     C_3   0.916526 0.331755 0.598397 -0.409582
C42   C     C_3   0.976938 0.262122 0.646119 -0.339226
C43   C     C_3   0.927273 0.178246 0.701634 -0.866108
H23   H     H_    0.890792 0.215291 0.772323 0.252745
H24   H     H_    0.882485 0.125969 0.637248 0.250651
H25   H     H_    0.972407 0.129844 0.737612 0.243577
H26   H     H_    0.012643 0.222557 0.576171 0.219615
H27   H     H_    0.023402 0.310870 0.711131 0.218800
H28   H     H_    0.880316 0.369469 0.669221 0.199884
H29   H     H_    0.869721 0.283450 0.533637 0.189891
C44   C     C_3   0.083808 0.668648 0.401830 -0.402013
C45   C     C_3   0.023863 0.740215 0.356624 -0.345483
C46   C     C_3   0.073420 0.821799 0.297769 -0.857942
H30   H     H_    0.121487 0.872185 0.359296 0.250912
H31   H     H_    0.106255 0.782612 0.224339 0.251789
H32   H     H_    0.028772 0.872467 0.265062 0.242103
H33   H     H_    0.974924 0.692619 0.294150 0.219545
H34   H     H_    0.991075 0.781897 0.428409 0.220195
H35   H     H_    0.131877 0.715663 0.465787 0.194361
H36   H     H_    0.118567 0.630494 0.329711 0.200329
N3    N     N_2   0.370718 0.816402 0.422514 -0.433376
H37   H     H_    0.325052 0.867733 0.433406 0.255412
C47   C     C_3   0.357154 0.741457 0.317212 -0.589215
H38   H     H_    0.307199 0.764680 0.260586 0.210098
H39   H     H_    0.334590 0.663312 0.336807 0.241126
H40   H     H_    0.415245 0.737227 0.269660 0.226817
N4    N     N_2   0.589884 0.210558 0.648774 -0.398920
H41   H     H_    0.573203 0.203643 0.730570 0.271041
C48   C     C_3   0.678171 0.246913 0.635941 -0.629001
H42   H     H_    0.721099 0.203594 0.683681 0.224587
H43   H     H_    0.690329 0.331934 0.673365 0.233737
H44   H     H_    0.693459 0.236434 0.544214 0.206715
N5    N     N_2   0.419009 0.949071 0.259851 -0.414259
H45   H     H_    0.466922 0.921991 0.210198 0.242485
C49   C     C_3   0.347820 0.978527 0.195824 -0.721695
H46   H     H_    0.323562 0.911767 0.127746 0.226497
H47   H     H_    0.368347 0.046610 0.153853 0.214327
H48   H     H_    0.295443 0.996593 0.252983 0.236808
N6    N     N_2   0.623996 0.034378 0.728261 -0.426177
H49   H     H_    0.683908 0.009306 0.732056 0.247009
C50   C     C_3   0.583824 0.034936 0.836815 -0.737560
H50   H     H_    0.622422 0.092248 0.904037 0.230641
H51   H     H_    0.580574 0.955942 0.862628 0.223745
H52   H     H_    0.518156 0.059006 0.830655 0.228753
C51   C     C_3   0.416128 0.340315 0.784889 -0.387362
C52   C     C_3   0.338520 0.345114 0.703438 -0.277119
C53   C     C_3   0.269220 0.252529 0.698314 -0.964484
H53   H     H_    0.296773 0.177047 0.676337 0.263933
H54   H     H_    0.238793 0.255206 0.781275 0.261701
H55   H     H_    0.218975 0.256408 0.630919 0.248757
H56   H     H_    0.308748 0.418583 0.729903 0.236591
H57   H     H_    0.358301 0.336172 0.614497 0.248388
H58   H     H_    0.454880 0.278427 0.748549 0.188858
H59   H     H_    0.381533 0.306388 0.850899 0.188113
C54   C     C_3   0.584636 0.659940 0.215671 -0.384635
C55   C     C_3   0.661499 0.656376 0.298978 -0.272362
C56   C     C_3   0.730193 0.749814 0.303990 -0.966295
H60   H     H_    0.761133 0.746724 0.221362 0.260715
H61   H     H_    0.701608 0.825107 0.324009 0.264170
H62   H     H_    0.780029 0.747623 0.372253 0.249588
H63   H     H_    0.641208 0.665304 0.387621 0.248151
H64   H     H_    0.692227 0.583571 0.273314 0.236200
H65   H     H_    0.621092 0.690897 0.149052 0.189700
H66   H     H_    0.546726 0.724249 0.248682 0.175450

loop_
_geom_bond_atom_site_label_1
_geom_bond_atom_site_label_2
_ccdc_geom_bond_type
C25   C31   T    
C35   C36   S    
C11   C18   A    
C26   C32   T    
N4    H41   S    
C22   C29   S    
C27   C29   S    
C55   H63   S    
C24   C27   S    
C46   H30   S    
C56   H62   S    
Cu1   O1    S    
C47   H38   S    
C56   H61   S    
C43   H23   S    
C23   C29   S    
C54   C55   S    
C45   H33   S    
C49   H47   S    
C13   N2    A    
C52   H57   S    
C41   H29   S    
C37   H10   S    
C27   H2    S    
C50   H50   S    
C38   H21   S    
C36   C37   S    
C15   C17   A    
C22   C44   S    
C53   H55   S    
Cu2   O7    S    
C2    O4    A    
C44   H35   S    
C39   H20   S    
C54   H66   S    
N3    H37   S    
C50   H51   S    
C35   H14   S    
C12   C17   A    
N5    H45   S    
Cu2   N2    S    
C9    C10   A    
Cu2   O6    S    
C51   H59   S    
C19   O7    A    
C39   C40   S    
C21   C27   S    
N4    C48   S    
C22   C28   S    
C35   H15   S    
Cu1   O8    S    
N5    C49   S    
C8    N3    S    
C13   H6    S    
C47   H39   S    
C1    C34   S    
C14   N1    A    
C43   H24   S    
C40   H16   S    
C4    N6    S    
C42   C43   S    
C20   O8    A    
C49   H48   S    
C42   H27   S    
C45   C46   S    
C1    O1    A    
C37   H11   S    
C2    O2    A    
C44   C45   S    
C38   H22   S    
C40   H17   S    
Cu1   Cu2   S    
C42   H26   S    
C41   C42   S    
C44   H36   S    
C39   H19   S    
C15   C54   S    
C50   H52   S    
C6    H3    S    
C5    C34   A    
Cu1   O4    S    
C17   C18   A    
C48   H43   S    
C16   C18   A    
C23   C28   S    
C11   H7    S    
C53   H53   S    
C24   C38   S    
C14   H5    S    
C2    C33   S    
C4    C6    A    
C12   C14   A    
C21   C23   S    
Cu1   O5    S    
C7    C34   A    
C36   H13   S    
C16   C51   S    
C56   H60   S    
Cu1   N1    S    
C47   H40   S    
C52   C53   S    
N6    H49   S    
C43   H25   S    
C7    C9    A    
C52   H56   S    
C55   H64   S    
C3    C5    A    
C16   N1    A    
C51   C52   S    
N3    C47   S    
C23   C35   S    
C21   C30   S    
C21   C41   S    
C6    C33   A    
C20   O6    A    
C40   H18   S    
C3    N5    S    
C28   C30   S    
C55   C56   S    
C29   C31   S    
C3    C10   A    
C45   H34   S    
C49   H46   S    
C30   C32   S    
C11   C13   A    
C41   H28   S    
C37   H9    S    
C20   C26   S    
C28   H1    S    
Cu2   O2    S    
C48   H44   S    
C22   C24   S    
C8    C33   A    
C19   C25   S    
C24   C30   S    
C53   H54   S    
C19   O5    A    
C54   H65   S    
C8    C10   A    
C38   C39   S    
C7    N4    S    
C46   H32   S    
C48   H42   S    
C46   H31   S    
C36   H12   S    
C12   H8    S    
C15   N2    A    
C4    C9    A    
C5    H4    S    
C1    O3    A    
Cu2   O3    S    
N6    C50   S    
C51   H58   S    
