data_mof_unit_68422.cif
_audit_creation_date              2013-03-05T15:54:13-0500
_audit_creation_method            fapswitch 2.2
_symmetry_space_group_name_H-M    P1
_symmetry_Int_Tables_number       1
_space_group_crystal_system       triclinic
_cell_length_a                    8.433481
_cell_length_b                    15.353866
_cell_length_c                    16.724432
_cell_angle_alpha                 98.884259
_cell_angle_beta                  94.59752
_cell_angle_gamma                 97.698359
_cell_volume                      2109.04599751

loop_
_atom_site_label
_atom_site_type_symbol
_atom_site_description
_atom_site_fract_x
_atom_site_fract_y
_atom_site_fract_z
_atom_type_partial_charge
P1    P     P_3+3 0.987060 0.708150 0.571770 0.438446
O1    O     O_2   0.162570 0.722330 0.548140 -0.362656
O2    O     O_3   0.890730 0.608900 0.545420 -0.436606
O3    O     O_3   0.394120 0.666550 0.400060 -0.388823
O4    O     O_2   0.304912 0.820457 0.467196 -0.382758
O5    O     O_3   0.045055 0.714163 0.675730 -0.597874
O6    O     O_3   0.385613 0.814536 0.322169 -0.490587
H1    H     H_    0.528479 0.718057 0.280510 0.036368
C1    C     C_3   0.404131 0.760699 0.181566 -0.315295
H2    H     H_    0.297212 0.709407 0.180116 0.227392
P2    P     P_3+3 0.349540 0.428350 0.313090 0.492955
P3    P     P_3+3 0.939833 0.603988 0.248874 0.556541
O7    O     O_2   0.182040 0.455740 0.301680 -0.343164
O8    O     O_3   0.971530 0.620720 0.357690 -0.364888
O9    O     O_2   0.067852 0.548575 0.217155 -0.292591
O10   O     O_3   0.306084 0.311747 0.298579 -0.548433
O11   O     O_3   0.004796 0.705764 0.217689 -0.493741
C2    C     C_3   0.874751 0.751559 0.201755 0.525496
H3    H     H_    0.766232 0.726828 0.229230 -0.012269
C3    C     C_3   0.831303 0.741608 0.110012 -0.812363
H4    H     H_    0.941749 0.750872 0.078482 0.260298
H5    H     H_    0.762713 0.675064 0.086397 0.280782
C4    C     C_3   0.661415 0.275041 0.278872 0.382200
H6    H     H_    0.564639 0.233411 0.301968 0.138473
H7    H     H_    0.628632 0.341562 0.280745 0.043780
C5    C     C_3   0.670332 0.242571 0.188804 -0.882443
H8    H     H_    0.698063 0.173554 0.178693 0.303270
H9    H     H_    0.554952 0.245297 0.153122 0.197645
H10   H     H_    0.766679 0.286239 0.166251 0.291543
Ba1   Ba    Ba6+2 0.163630 0.544320 0.462600 1.599055
C6    C     C_3   0.942637 0.754906 0.726014 0.831057
H11   H     H_    0.816142 0.736919 0.699493 0.009201
C7    C     C_3   0.990725 0.855567 0.742417 -0.704223
H12   H     H_    0.097277 0.875969 0.787892 0.312802
H13   H     H_    0.889100 0.886054 0.766534 0.286903
H14   H     H_    0.020380 0.881337 0.686756 0.210861
C8    C     C_3   0.196741 0.279232 0.228788 0.166722
H15   H     H_    0.231584 0.312493 0.177344 -0.006631
H16   H     H_    0.073381 0.290420 0.241907 0.166178
C9    C     C_3   0.199052 0.179122 0.202719 0.575476
H17   H     H_    0.321947 0.170221 0.187686 -0.055890
P4    P     P_3+3 0.823240 0.291840 0.428170 0.489419
O12   O     O_2   0.647720 0.277620 0.451840 -0.382996
O13   O     O_3   0.919570 0.391090 0.454510 -0.455828
O14   O     O_3   0.416180 0.333440 0.599870 -0.441297
O15   O     O_3   0.814092 0.277126 0.320578 -0.523170
P5    P     P_3+3 0.874646 0.399936 0.749879 0.546671
O16   O     O_3   0.378690 0.546410 0.598100 -0.411517
O17   O     O_3   0.838770 0.379270 0.642240 -0.373706
O18   O     O_2   0.741584 0.450389 0.783463 -0.284315
O19   O     O_3   0.821185 0.298703 0.781737 -0.527822
Ba2   Ba    Ba6+2 0.646550 0.455670 0.537340 1.643444
P6    P     P_3+3 0.434014 0.784018 0.416561 0.445865
C10   C     C_3   0.489793 0.781468 0.267561 0.291198
H18   H     H_    0.597448 0.832498 0.270511 0.058002
H19   H     H_    0.485084 0.730951 0.139708 0.177905
O20   O     O_3   0.431610 0.453580 0.401830 -0.389278
C11   C     C_3   0.447495 0.738739 0.660918 0.198394
H20   H     H_    0.459115 0.710716 0.596633 0.065395
H21   H     H_    0.321870 0.729215 0.674386 0.176981
C12   C     C_3   0.509539 0.838007 0.674335 0.153499
H22   H     H_    0.641100 0.846600 0.671651 0.043581
H23   H     H_    0.454217 0.868255 0.624862 0.073498
P7    P     P_3+3 0.466261 0.584949 0.699878 0.579223
O21   O     O_2   0.628250 0.544210 0.698290 -0.296624
O22   O     O_3   0.538516 0.698558 0.713588 -0.501849
H24   H     H_    0.754609 0.791715 0.095902 0.222726
C13   C     C_3   0.955722 0.256075 0.793033 0.013234
H25   H     H_    0.026721 0.253976 0.739726 0.088378
H26   H     H_    0.032395 0.289850 0.848891 0.087117
C14   C     C_3   0.892725 0.161621 0.804055 0.748400
H27   H     H_    0.810769 0.164883 0.852921 0.019823
P8    P     P_3+3 0.373894 0.217008 0.589497 0.534387
C15   C     C_3   0.415195 0.265696 0.746060 0.604705
H28   H     H_    0.298142 0.290781 0.745605 -0.080545
O23   O     O_2   0.507934 0.178477 0.543866 -0.317434
O24   O     O_3   0.404969 0.188859 0.686637 -0.451441
H29   H     H_    0.510193 0.318971 0.735948 0.135799
H30   H     H_    0.407373 0.288695 0.876956 0.206517
C16   C     C_3   0.457595 0.243660 0.830184 -0.816717
H31   H     H_    0.588880 0.252425 0.845680 0.244881
H32   H     H_    0.411779 0.173273 0.832378 0.313787
C17   C     C_R   0.640228 0.832326 0.466526 0.137077
H33   H     H_    0.671182 0.704706 0.496387 0.155571
H34   H     H_    0.501417 0.962264 0.415339 0.195641
C18   C     C_R   0.886536 0.797327 0.531181 0.226054
C19   C     C_R   0.084960 0.222401 0.496708 -0.352959
C20   C     C_R   0.171488 0.168195 0.536966 0.237332
C21   C     C_R   0.102843 0.080498 0.540222 -0.162688
C22   C     C_R   0.945749 0.044753 0.502605 0.078873
C23   C     C_R   0.854212 0.104132 0.464546 0.033516
C24   C     C_R   0.876658 0.951807 0.501937 0.057670
C25   C     C_R   0.712767 0.922642 0.470130 -0.042060
C26   C     C_R   0.626441 0.982525 0.438169 -0.204340
C27   C     C_R   0.699646 0.065912 0.425450 0.178343
C28   C     C_R   0.962547 0.886264 0.531708 -0.247229
C29   C     C_R   0.727843 0.772549 0.498010 -0.475823
C30   C     C_R   0.923703 0.197581 0.466612 0.303636
H35   H     H_    0.087580 0.902397 0.555184 0.170012
H36   H     H_    0.146714 0.285174 0.486662 0.153245
H37   H     H_    0.174348 0.041717 0.572991 0.167294
C31   C     C_R   0.619584 0.530721 0.261430 -0.231691
C32   C     C_R   0.466015 0.482253 0.236886 0.223238
C33   C     C_R   0.409770 0.470154 0.153511 -0.379841
C34   C     C_R   0.517600 0.488533 0.095079 0.055725
C35   C     C_R   0.684439 0.512036 0.121788 0.325295
C36   C     C_R   0.731878 0.545048 0.205424 0.011845
C37   C     C_R   0.381514 0.551797 0.862565 0.388104
C38   C     C_R   0.335732 0.543274 0.776900 0.073489
C39   C     C_R   0.281120 0.503377 0.911007 0.042407
N1    N     N_2   0.464538 0.483299 0.010353 0.009468
N2    N     N_2   0.325173 0.500605 0.995465 0.011371
C40   C     C_R   0.180105 0.499673 0.745539 -0.176146
C41   C     C_R   0.075048 0.461103 0.795341 0.198389
C42   C     C_R   0.125937 0.463767 0.877490 -0.274643
H38   H     H_    0.285195 0.443579 0.133624 0.213099
H39   H     H_    0.045405 0.432965 0.915668 0.234511
S1    S     S_3+6 0.966503 0.715294 0.820578 0.052763
O25   O     O_2   0.868756 0.625253 0.812478 -0.195781
O26   O     O_2   0.139797 0.706608 0.840923 -0.278710
O27   O     O_3   0.907261 0.786103 0.895596 -0.487127
H40   H     H_    0.987619 0.789943 0.943006 0.377783
S2    S     S_3+6 0.063568 0.133828 0.112523 -0.022163
O28   O     O_2   0.916178 0.078067 0.132376 -0.235550
O29   O     O_2   0.148627 0.075265 0.055300 -0.287055
O30   O     O_3   0.004402 0.215580 0.066129 -0.500107
H41   H     H_    0.103876 0.247076 0.049936 0.356095
S3    S     S_3+6 0.157226 0.117769 0.283525 -0.031478
O31   O     O_2   0.256288 0.163566 0.360536 -0.320229
O32   O     O_2   0.982947 0.112684 0.296900 -0.292286
O33   O     O_3   0.203545 0.014340 0.260976 -0.535603
H42   H     H_    0.216821 0.005349 0.202171 0.345112
S4    S     S_3+6 0.466120 0.894641 0.770193 0.036112
O34   O     O_2   0.363219 0.963908 0.754628 -0.223401
O35   O     O_2   0.377766 0.831513 0.817115 -0.241074
O36   O     O_3   0.638431 0.944002 0.825811 -0.456123
H43   H     H_    0.604821 0.981950 0.873017 0.382787
N3    N     N_2   0.354561 0.840053 0.156202 -0.068964
H44   H     H_    0.239262 0.829718 0.127323 0.214015
C43   C     C_3   0.468768 0.890293 0.114156 -0.760052
H45   H     H_    0.427367 0.954422 0.106403 0.252131
H46   H     H_    0.478437 0.852126 0.053093 0.276580
H47   H     H_    0.589023 0.905094 0.149600 0.239146
S5    S     S_3+6 0.780496 0.102398 0.711527 0.021925
O37   O     O_2   0.608104 0.082976 0.726969 -0.216456
O38   O     O_2   0.791721 0.157215 0.644577 -0.296722
O39   O     O_3   0.846849 0.006260 0.681350 -0.527086
H48   H     H_    0.758446 0.972263 0.641989 0.348057
S6    S     S_3+6 0.051803 0.105663 0.836683 0.001703
O40   O     O_2   0.982395 0.023801 0.868018 -0.202038
O41   O     O_2   0.146546 0.080505 0.766634 -0.245446
O42   O     O_3   0.171609 0.173186 0.912608 -0.595721
H49   H     H_    0.249257 0.135947 0.931635 0.399047
N4    N     N_2   0.921177 0.845284 0.234551 -0.133222
H50   H     H_    0.002249 0.878411 0.202591 0.225004
C44   C     C_3   0.962394 0.865788 0.321453 -0.687451
H51   H     H_    0.083395 0.848873 0.337654 0.305410
H52   H     H_    0.872948 0.827565 0.352770 0.186620
H53   H     H_    0.963250 0.938028 0.342051 0.271342
N5    N     N_2   0.618934 0.105783 0.366634 -0.096625
H54   H     H_    0.513763 0.123350 0.386308 0.254829
C45   C     C_3   0.589120 0.051826 0.285965 -0.811076
H55   H     H_    0.524236 0.086528 0.243467 0.240287
H56   H     H_    0.511250 0.987830 0.286468 0.271815
H57   H     H_    0.703421 0.037599 0.262250 0.293273
S7    S     S_3+6 0.539282 0.633934 0.914574 0.046122
O43   O     O_2   0.489783 0.669385 0.996101 -0.376213
O44   O     O_2   0.687910 0.592273 0.927321 -0.155049
O45   O     O_3   0.580374 0.720485 0.866240 -0.392375
H58   H     H_    0.601335 0.773841 0.909403 0.403156
S8    S     S_3+6 0.829898 0.481257 0.055521 0.001870
O46   O     O_2   0.943095 0.561718 0.044414 -0.215131
O47   O     O_2   0.926284 0.419261 0.092567 -0.321433
O48   O     O_3   0.743048 0.427790 0.963875 -0.484019
H59   H     H_    0.703764 0.366460 0.972282 0.340355
N6    N     N_2   0.674246 0.553142 0.344233 -0.131104
H60   H     H_    0.600026 0.580295 0.383359 0.198235
C46   C     C_3   0.760736 0.487608 0.371861 -0.528573
H61   H     H_    0.835174 0.518788 0.426964 0.294105
H62   H     H_    0.839985 0.460659 0.327091 0.219109
H63   H     H_    0.681238 0.432249 0.386274 0.223851
N7    N     N_2   0.129744 0.492992 0.661697 -0.080279
H64   H     H_    0.025008 0.517877 0.648359 0.233448
C47   C     C_3   0.146487 0.408645 0.613440 -0.610630
H65   H     H_    0.040313 0.380335 0.574094 0.225260
H66   H     H_    0.171852 0.358194 0.651504 0.150210
H67   H     H_    0.228171 0.416744 0.566794 0.270509

loop_
_geom_bond_atom_site_label_1
_geom_bond_atom_site_label_2
_geom_bond_distance
_ccdc_geom_bond_type
P5    C41   1.861370 S    
C19   C20   1.391237 A    
C28   H35   1.077501 S    
O30   H41   0.989515 S    
O3    P6    1.763823 S    
C35   S8    1.779874 S    
C3    H24   1.109434 S    
O39   H48   0.986195 S    
C43   H47   1.109883 S    
S8    O46   1.501792 D    
S3    O31   1.497208 D    
C41   C42   1.398879 A    
P7    C38   1.890436 S    
C12   S4    1.791415 S    
S2    O28   1.502375 D    
P5    O17   1.772985 S    
C14   S6    1.781020 S    
C37   C38   1.434822 A    
S8    O47   1.503132 D    
C5    H8    1.106167 S    
C25   C26   1.389201 A    
H33   C29   1.081639 S    
Ba1   O16   2.780121 S    
C44   H51   1.109330 S    
C43   H46   1.110997 S    
C2    H3    1.105042 S    
C8    C9    1.534760 S    
P4    C30   1.937594 S    
C33   H38   1.080784 S    
N7    C47   1.446680 S    
O48   H59   0.990456 S    
O12   Ba2   2.884492 S    
O16   P7    1.778558 S    
C35   C36   1.417925 A    
C11   H21   1.096118 S    
C17   C25   1.428917 A    
Ba1   O20   2.975911 S    
C24   C28   1.441373 A    
C7    H14   1.100109 S    
C47   H65   1.066130 S    
O14   P8    1.754011 S    
P1    O1    1.558354 D    
P4    O15   1.772672 S    
C4    C5    1.522989 S    
C12   H23   1.110325 S    
C18   C29   1.386728 A    
S1    O25   1.492660 D    
C24   C25   1.427100 A    
Ba1   Ba2   4.603971 S    
N7    H64   1.030103 S    
C11   O22   1.390002 S    
C6    H11   1.103829 S    
P2    Ba1   3.447066 S    
C47   H66   1.107216 S    
C13   H25   1.111877 S    
C42   H39   1.081374 S    
C15   O24   1.408475 S    
P3    O11   1.755638 S    
S4    O36   1.679842 S    
C4    H6    1.100415 S    
C6    C7    1.520423 S    
C1    H2    1.110947 S    
N4    C44   1.442443 S    
C2    N4    1.447692 S    
C38   C40   1.411254 A    
O10   C8    1.409290 S    
C19   C30   1.392913 A    
O13   Ba2   2.983701 S    
C11   C12   1.519556 S    
N6    C46   1.429741 S    
O5    C6    1.394029 S    
C34   N1    1.438103 S    
C4    O15   1.408386 S    
C15   C16   1.523347 S    
S7    O44   1.496617 D    
Ba1   O13   2.889558 S    
C31   C32   1.400653 A    
P4    O13   1.606185 S    
O8    Ba1   2.787170 S    
S5    O39   1.668289 S    
C33   C34   1.421443 A    
C46   H61   1.078440 S    
P5    O18   1.540908 D    
C39   N2    1.440042 S    
S8    O48   1.682241 S    
C15   H28   1.106544 S    
C27   N5    1.412805 S    
C46   H63   1.080079 S    
O45   H58   0.990742 S    
O7    Ba1   2.847786 S    
C7    H12   1.107011 S    
C43   H45   1.110188 S    
S5    O38   1.502607 D    
N3    H44   1.031340 S    
S6    O42   1.677843 S    
H1    C10   1.113620 S    
S5    O37   1.495720 D    
S2    O30   1.683201 S    
P5    O19   1.734816 S    
O14   Ba2   2.888822 S    
C11   H20   1.111735 S    
P1    O5    1.752921 S    
P1    O2    1.606202 S    
S1    O27   1.682388 S    
P7    O22   1.742382 S    
O2    Ba1   2.982756 S    
C6    S1    1.786202 S    
C8    H15   1.106081 S    
C45   H57   1.106874 S    
C1    N3    1.451506 S    
C22   C24   1.465421 A    
C40   N7    1.416164 S    
P3    O9    1.539285 D    
O17   Ba2   2.787652 S    
O11   C2    1.409199 S    
O27   H40   0.990031 S    
C31   C36   1.404494 A    
C1    H19   1.107329 S    
C20   C21   1.403574 A    
N4    H50   1.030167 S    
C40   C41   1.399823 A    
C18   C28   1.427062 A    
C5    H10   1.110545 S    
C16   H32   1.105082 S    
N6    H60   1.022302 S    
C1    C10   1.523858 S    
C3    H5    1.102221 S    
C26   C27   1.399637 A    
C17   C29   1.390754 A    
S7    O43   1.500838 D    
P8    O23   1.545407 D    
P8    C20   1.860331 S    
P4    O12   1.558702 D    
O6    P6    1.747782 S    
O33   H42   0.989283 S    
S3    O33   1.679739 S    
O42   H49   0.990004 S    
C19   H36   1.076076 S    
O4    P6    1.542818 D    
P1    C18   1.886822 S    
C9    S2    1.803181 S    
C37   S7    1.772966 S    
C10   H18   1.109463 S    
C9    H17   1.106887 S    
N1    N2    1.253474 D    
C21   H37   1.078226 S    
C44   H53   1.108340 S    
P3    O8    1.791260 S    
C16   H31   1.102023 S    
S3    O32   1.497911 D    
P3    C36   1.894767 S    
C46   H62   1.112273 S    
O2    Ba2   2.890187 S    
N3    C43   1.447153 S    
C45   H55   1.105093 S    
C34   C35   1.422290 A    
C5    H9    1.109156 S    
C47   H67   1.091686 S    
P6    C17   1.871604 S    
O1    Ba1   2.884032 S    
N5    H54   1.025267 S    
S6    O41   1.501024 D    
C14   H27   1.111448 S    
C8    H16   1.110324 S    
C45   H56   1.107876 S    
S6    O40   1.500862 D    
P7    O21   1.577309 D    
P2    O7    1.532795 D    
C22   C23   1.456481 A    
S4    O34   1.499493 D    
C13   C14   1.520280 S    
C44   H52   1.107902 S    
P1    Ba1   3.449516 S    
C7    H13   1.104953 S    
C37   C39   1.432931 A    
C2    C3    1.527846 S    
O19   C13   1.397935 S    
C4    H7    1.089846 S    
C23   C30   1.469515 A    
C12   H22   1.105005 S    
S1    O26   1.501991 D    
P2    O10   1.753325 S    
S2    O29   1.502009 D    
Ba2   O20   2.779657 S    
C23   C27   1.418090 A    
H30   C16   1.110818 S    
O16   Ba2   2.974996 S    
C3    H4    1.110087 S    
S7    O45   1.671168 S    
C13   H26   1.106094 S    
C15   H29   1.108345 S    
P4    Ba2   3.450094 S    
C32   C33   1.412158 A    
S4    O35   1.498569 D    
P8    O24   1.753225 S    
O36   H43   0.990530 S    
P2    C32   1.892831 S    
H34   C26   1.079432 S    
O6    C10   1.403112 S    
C21   C22   1.420269 A    
P2    O20   1.554882 S    
C31   N6    1.398819 S    
C39   C42   1.400250 A    
O3    Ba1   2.889532 S    
Ba2   O21   2.847836 S    
N5    C45   1.454057 S    
C14   S5    1.793693 S    
C9    S3    1.794086 S    
