data_mof_unit_25202.cif
_audit_creation_date              2013-03-05T16:43:02-0500
_audit_creation_method            fapswitch 2.2
_symmetry_space_group_name_H-M    P1
_symmetry_Int_Tables_number       1
_space_group_crystal_system       triclinic
_cell_length_a                    10.776877
_cell_length_b                    10.766508
_cell_length_c                    9.931529
_cell_angle_alpha                 88.881475
_cell_angle_beta                  90.493519
_cell_angle_gamma                 92.264897
_cell_volume                      1151.1935863

loop_
_atom_site_label
_atom_site_type_symbol
_atom_site_description
_atom_site_fract_x
_atom_site_fract_y
_atom_site_fract_z
_atom_type_partial_charge
O1    O     O_R   0.500020 0.316790 0.614690 -0.630222
O2    O     O_R   0.500000 0.316760 0.385350 -0.624246
C1    C     C_R   0.500541 0.259523 0.500786 0.951531
O3    O     O_R   0.314800 0.500000 0.614670 -0.627095
O4    O     O_R   0.314790 0.499960 0.385330 -0.651658
C2    C     C_R   0.257817 0.491340 0.500564 0.964195
Zn1   Zn    Zn3+2 0.500010 0.500020 0.653130 0.963417
Zn2   Zn    Zn3+2 0.499990 0.499980 0.346870 1.032163
O5    O     O_R   0.500000 0.683240 0.614650 -0.642616
O6    O     O_R   0.499980 0.683210 0.385310 -0.613073
O7    O     O_R   0.685210 0.500040 0.614670 -0.633200
O8    O     O_R   0.685200 0.500000 0.385330 -0.529325
C3    C     C_R   0.509561 0.739518 0.498946 0.884390
C4    C     C_R   0.741958 0.504162 0.499319 0.940237
C5    C     C_3   0.065525 0.457246 0.645267 -0.048895
H1    H     H_    0.099206 0.530570 0.715683 0.192125
C6    C     C_3   0.924050 0.460487 0.637701 -0.424597
H2    H     H_    0.878153 0.371182 0.669264 0.251912
H3    H     H_    0.892800 0.520844 0.719081 0.204628
C7    C     C_3   0.082144 0.626883 0.458780 -0.177227
C8    C     C_3   0.064572 0.396761 0.395720 -0.024139
C9    C     C_3   0.120436 0.490584 0.502371 -0.103902
H4    H     H_    0.107438 0.427191 0.300988 0.138203
C10   C     C_3   0.878291 0.505578 0.494776 -0.236486
C11   C     C_3   0.937004 0.643161 0.470965 0.374551
C12   C     C_3   0.920081 0.411198 0.380301 0.371114
H5    H     H_    0.107386 0.635049 0.350798 0.234983
C13   C     C_R   0.528606 0.059343 0.619747 0.047205
C14   C     C_R   0.514478 0.127202 0.499985 -0.030352
C15   C     C_R   0.529569 0.067068 0.376866 -0.100903
H6    H     H_    0.528371 0.117420 0.281542 0.165208
C16   C     C_R   0.537211 0.938751 0.375333 -0.125379
H7    H     H_    0.536860 0.892768 0.279289 0.170190
C17   C     C_R   0.533485 0.871171 0.497371 -0.056136
C18   C     C_R   0.546636 0.933950 0.618317 0.086022
C19   C     C_3   0.482298 0.909555 0.749066 -0.496219
C20   C     C_3   0.450462 0.044291 0.744389 0.098662
H8    H     H_    0.400098 0.843915 0.743585 0.240495
H9    H     H_    0.549236 0.889607 0.831509 0.173659
H10   H     H_    0.489314 0.094838 0.832371 0.101344
C21   C     C_R   0.484895 0.390886 0.071970 0.264152
N1    N     N_R   0.499150 0.499140 0.142800 -0.109814
C22   C     C_R   0.531736 0.604568 0.070029 -0.038879
H11   H     H_    0.555647 0.689698 0.121847 0.164602
C23   C     C_R   0.533966 0.603706 0.926615 -0.110406
H12   H     H_    0.562374 0.686844 0.871738 0.150798
N2    N     N_R   0.499150 0.499180 0.857150 -0.113746
C24   C     C_R   0.478356 0.393719 0.929791 0.159395
C25   C     C_3   0.361272 0.320428 0.924280 -0.481053
C26   C     C_3   0.375785 0.299481 0.073384 -0.161036
H13   H     H_    0.284214 0.381551 0.896425 0.214325
H14   H     H_    0.366995 0.238547 0.863690 0.225706
H15   H     H_    0.403068 0.203358 0.099820 0.192969
N3    N     N_R   0.893146 0.462665 0.241237 0.212643
O9    O     O_R   0.973671 0.533652 0.175887 -0.414448
O10   O     O_R   0.791049 0.432711 0.176468 -0.310472
N4    N     N_R   0.888229 0.705495 0.347708 0.251509
O11   O     O_R   0.770193 0.724858 0.336662 -0.390233
O12   O     O_R   0.962296 0.774508 0.271882 -0.311444
N5    N     N_R   0.316445 0.054891 0.720295 0.215449
O13   O     O_R   0.242706 0.050422 0.823488 -0.384706
O14   O     O_R   0.268998 0.028546 0.602807 -0.339014
C27   C     C_3   0.101790 0.332437 0.710988 -0.656064
H16   H     H_    0.077151 0.331518 0.819419 0.222419
H17   H     H_    0.051129 0.251823 0.665714 0.313817
H18   H     H_    0.202024 0.317335 0.703309 0.267096
C28   C     C_3   0.264263 0.338148 0.148888 -0.689437
H19   H     H_    0.282893 0.316229 0.255340 0.289114
H20   H     H_    0.248670 0.438854 0.132675 0.238486
H21   H     H_    0.180669 0.283169 0.115390 0.281323
C29   C     C_3   0.162205 0.734012 0.522426 -0.742564
H22   H     H_    0.165271 0.726311 0.633852 0.242168
H23   H     H_    0.258605 0.734141 0.485042 0.225615
H24   H     H_    0.126876 0.825682 0.491314 0.305414
C30   C     C_3   0.904176 0.730191 0.589002 -0.773744
H25   H     H_    0.957329 0.711733 0.682714 0.227139
H26   H     H_    0.924053 0.829200 0.560408 0.279078
H27   H     H_    0.803675 0.722314 0.612517 0.224511
N6    N     N_R   0.101671 0.266233 0.412230 0.231729
O15   O     O_R   0.059773 0.184755 0.326187 -0.283898
O16   O     O_R   0.204487 0.241071 0.474362 -0.417012
N7    N     N_R   0.852797 0.287523 0.397660 0.228205
O17   O     O_R   0.803473 0.229745 0.295139 -0.294998
O18   O     O_R   0.858394 0.224459 0.510325 -0.415259

loop_
_geom_bond_atom_site_label_1
_geom_bond_atom_site_label_2
_geom_bond_distance
_ccdc_geom_bond_type
C8    C12   1.576840 S    
C27   H17   1.107752 S    
C21   N1    1.375810 A    
C18   C19   1.491214 S    
C22   H11   1.081107 S    
C23   H12   1.074317 S    
Zn1   O7    2.035318 S    
C13   C14   1.394070 A    
C10   C12   1.618036 S    
C20   H10   1.108711 S    
C15   H6    1.081962 S    
O7    C4    1.302441 A    
N4    O12   1.303061 A    
C7    C11   1.586732 S    
C5    H1    1.112915 S    
C2    C9    1.480504 S    
N5    O14   1.301775 A    
C17   C18   1.393186 A    
C4    C10   1.469789 S    
C1    C14   1.438602 S    
O5    C3    1.291565 A    
C5    C9    1.571903 S    
C13   C18   1.371901 A    
C25   H13   1.109677 S    
C7    C29   1.553945 S    
C26   C28   1.499116 S    
C27   H18   1.102222 S    
C12   N7    1.498470 S    
C8    C9    1.577174 S    
C11   N4    1.486573 S    
O3    Zn1   2.028964 S    
C12   N3    1.508226 S    
C23   N2    1.369560 A    
N3    O10   1.302405 A    
C26   H15   1.112892 S    
C28   H19   1.097311 S    
C6    C10   1.572805 S    
C10   C11   1.601661 S    
O3    C2    1.287503 A    
N6    O16   1.298968 A    
N6    O15   1.301910 A    
N5    O13   1.301246 A    
C28   H20   1.112157 S    
Zn1   N2    2.026174 S    
C30   H25   1.107435 S    
C14   C15   1.408339 A    
C29   H24   1.109196 S    
C30   H26   1.110870 S    
N2    C24   1.345587 A    
Zn2   O8    2.028962 S    
C25   H14   1.081070 S    
C8    N6    1.481883 S    
C6    H2    1.104858 S    
C22   C23   1.424940 A    
C24   C25   1.462742 S    
C7    C9    1.590948 S    
N7    O17   1.302112 A    
N7    O18   1.299652 A    
C8    H4    1.090598 S    
N1    C22   1.369279 A    
C11   C30   1.566408 S    
C21   C26   1.503213 S    
C29   H23   1.106194 S    
C5    C6    1.527608 S    
N3    O9    1.302444 A    
C19   C20   1.503551 S    
O1    Zn1   2.016655 S    
C19   H9    1.110015 S    
O2    Zn2   2.001983 S    
Zn2   N1    2.026864 S    
O6    C3    1.292924 A    
O4    Zn2   2.035320 S    
C7    H5    1.109635 S    
C28   H21   1.110414 S    
C16   H7    1.083146 S    
C19   H8    1.112806 S    
O2    C1    1.291027 A    
O8    C4    1.282831 A    
C3    C17   1.430448 S    
C15   C16   1.387610 A    
N4    O11   1.300498 A    
O4    C2    1.303388 A    
C13   C20   1.505721 S    
C6    H3    1.109699 S    
C21   C24   1.413008 A    
C30   H27   1.109563 S    
C20   N5    1.470452 S    
C27   H16   1.111117 S    
Zn1   O5    2.001983 S    
C29   H22   1.108420 S    
Zn2   O6    2.016656 S    
C25   C26   1.501309 S    
C5    C27   1.545104 S    
O1    C1    1.299039 A    
C16   C17   1.401464 A    
