data_mof_unit_6712.cif
_audit_creation_date              2012-10-26T20:25:37-0400
_audit_creation_method            fapswitch 2.2
_symmetry_space_group_name_H-M    P1
_symmetry_Int_Tables_number       1
_space_group_crystal_system       triclinic
_cell_length_a                    23.541116
_cell_length_b                    10.866722
_cell_length_c                    9.55746
_cell_angle_alpha                 88.708417
_cell_angle_beta                  90.60002
_cell_angle_gamma                 89.39829
_cell_volume                      2444.04315587

loop_
_atom_site_label
_atom_site_type_symbol
_atom_type_description
_atom_site_fract_x
_atom_site_fract_y
_atom_site_fract_z
_atom_type_partial_charge
Br1   Br    Br    0.937437 0.136730 0.759901 -0.227222
Br2   Br    Br    0.374959 0.115164 0.498663 -0.438249
Br3   Br    Br    0.565666 0.086082 0.795762 -0.628607
Br4   Br    Br    0.438493 0.920355 0.216538 -0.584779
Br5   Br    Br    0.059769 0.882877 0.521821 -0.201466
Br6   Br    Br    0.074709 0.144808 0.773769 -0.200102
Br7   Br    Br    0.922918 0.869881 0.514993 -0.176115
Br8   Br    Br    0.319316 0.319643 0.289988 -0.417851
Br9   Br    Br    0.683372 0.683102 0.295739 -0.471715
Br10  Br    Br    0.181879 0.325574 0.340894 -0.263764
Br11  Br    Br    0.819271 0.624991 0.306049 -0.301415
Br12  Br    Br    0.628254 0.868478 0.545974 -0.463531
C1    C     C_R   0.502651 0.259818 0.501769 0.583059
C2    C     C_R   0.710025 0.560380 0.425725 0.168091
C3    C     C_R   0.231615 0.425944 0.451558 0.250030
C4    C     C_R   0.769436 0.550676 0.443184 0.251240
C5    C     C_R   0.207976 0.503239 0.551985 0.182805
C6    C     C_R   0.792633 0.481983 0.556935 0.181372
C7    C     C_3   0.529015 0.035759 0.623387 0.145274
C8    C     C_3   0.477783 0.965497 0.386767 0.144834
C9    C     C_3   0.556440 0.953143 0.512529 0.149482
C10   C     C_3   0.450584 0.045999 0.500053 0.152824
C11   C     C_3   0.501395 0.877884 0.502920 -0.007408
C12   C     C_R   0.499795 0.740437 0.499675 0.590886
C13   C     C_3   0.505077 0.122484 0.506080 -0.004571
C14   C     C_3   0.474587 0.958806 0.616505 -0.020774
C15   C     C_3   0.533035 0.041104 0.394788 -0.021476
C16   C     C_R   0.390665 0.498577 0.499631 0.582304
C17   C     C_R   0.609367 0.497928 0.500715 0.578945
C18   C     C_3   0.533870 0.581267 0.047919 0.104138
C19   C     C_3   0.465222 0.419771 0.950916 0.106639
C20   C     C_3   0.484244 0.605348 0.945385 0.006245
C21   C     C_3   0.515065 0.393917 0.053958 0.016104
C22   C     C_3   0.549645 0.475770 0.953550 0.117624
C23   C     C_R   0.242552 0.587480 0.618667 -0.078387
C24   C     C_3   0.449875 0.525411 0.046951 0.112252
C25   C     C_R   0.878117 0.598269 0.602990 0.469009
C26   C     C_R   0.123017 0.402732 0.636950 0.466670
C27   C     C_R   0.884404 0.380211 0.605355 0.441402
C28   C     C_R   0.116616 0.607970 0.544304 0.439663
C29   C     C_R   0.943080 0.385540 0.637294 0.014725
C30   C     C_R   0.057714 0.613494 0.570906 0.010499
C31   C     C_R   0.970580 0.499200 0.616037 -0.098256
C32   C     C_R   0.030540 0.503133 0.612796 -0.096743
C33   C     C_R   0.937807 0.607974 0.594827 0.013851
C34   C     C_R   0.756718 0.406076 0.634707 -0.086655
C35   C     C_R   0.063171 0.396219 0.649113 0.013116
C36   C     C_R   0.974986 0.281935 0.686121 0.203375
C37   C     C_R   0.024955 0.723517 0.552423 0.196186
C38   C     C_R   0.034726 0.287837 0.695470 0.205784
C39   C     C_R   0.965339 0.720613 0.563711 0.204432
C40   C     C_3   0.563792 0.696592 0.093789 -0.277008
C41   C     C_3   0.607681 0.738842 0.986369 -0.400121
C42   C     C_3   0.429743 0.315567 0.893118 -0.288280
C43   C     C_3   0.388549 0.266199 0.001129 -0.406770
C44   C     C_3   0.608110 0.434655 0.906612 -0.269710
C45   C     C_R   0.300407 0.594615 0.588731 -0.053802
C46   C     C_3   0.646852 0.396819 0.029813 -0.442110
C47   C     C_3   0.392838 0.574934 0.097927 -0.253358
C48   C     C_3   0.353997 0.620262 0.978647 -0.454347
C49   C     C_3   0.331004 0.708382 0.630733 -0.307331
C50   C     C_3   0.342531 0.788166 0.501019 -0.367519
C51   C     C_3   0.669933 0.279577 0.643852 -0.292864
C52   C     C_3   0.693652 0.171147 0.563806 -0.368542
C53   C     C_3   0.447813 0.908173 0.751446 -0.259725
C54   C     C_3   0.399521 0.986491 0.805788 -0.408655
C55   C     C_3   0.565159 0.093106 0.268382 -0.267414
C56   C     C_R   0.699027 0.396499 0.598998 -0.075026
C57   C     C_3   0.612515 0.007912 0.221627 -0.384352
C58   C     C_R   0.326738 0.506135 0.503211 -0.007262
C59   C     C_R   0.673146 0.484913 0.506458 0.000447
C60   C     C_R   0.290804 0.425883 0.428676 0.157436
Cu1   Cu    Cu3+1 0.500010 0.499990 0.643150 0.937583
Cu2   Cu    Cu3+1 0.499990 0.500010 0.356850 0.965370
H1    H     H_    0.471836 0.694758 0.897844 0.103089
H2    H     H_    0.411057 0.243878 0.101420 0.225557
H3    H     H_    0.354568 0.335632 0.015370 0.196269
H4    H     H_    0.367306 0.182501 0.964524 0.182775
H5    H     H_    0.405008 0.346946 0.800001 0.204587
H6    H     H_    0.459432 0.241289 0.862973 0.195934
H7    H     H_    0.649320 0.471476 0.106770 0.200997
H8    H     H_    0.630955 0.312210 0.082826 0.152900
H9    H     H_    0.690263 0.377405 0.991128 0.168440
H10   H     H_    0.601184 0.353966 0.841257 0.192257
H11   H     H_    0.628712 0.509207 0.845517 0.182998
H12   H     H_    0.527761 0.304247 0.101664 0.111379
H13   H     H_    0.370706 0.706671 0.931752 0.145814
H14   H     H_    0.350188 0.549247 0.897455 0.166416
H15   H     H_    0.311037 0.640227 0.019884 0.184023
H16   H     H_    0.370852 0.501703 0.154896 0.205393
H17   H     H_    0.400418 0.652087 0.169701 0.203333
H18   H     H_    0.366530 0.737044 0.421299 0.171708
H19   H     H_    0.301975 0.823134 0.453972 0.224216
H20   H     H_    0.368455 0.866442 0.531366 0.192645
H21   H     H_    0.305775 0.763515 0.705036 0.158871
H22   H     H_    0.370709 0.682082 0.685129 0.162701
H23   H     H_    0.223231 0.652788 0.688342 0.164740
H24   H     H_    0.681015 0.179243 0.451690 0.153251
H25   H     H_    0.740680 0.165257 0.572629 0.218437
H26   H     H_    0.676540 0.085661 0.610066 0.237033
H27   H     H_    0.677907 0.261472 0.757178 0.176805
H28   H     H_    0.623537 0.283668 0.623750 0.187450
H29   H     H_    0.409191 0.084485 0.788889 0.196211
H30   H     H_    0.359121 0.965620 0.751088 0.186284
H31   H     H_    0.393655 0.966690 0.919035 0.190587
H32   H     H_    0.431280 0.816417 0.733003 0.137262
H33   H     H_    0.481268 0.898569 0.833721 0.203632
H34   H     H_    0.774521 0.346597 0.716826 0.175921
H35   H     H_    0.649812 0.014137 0.292833 0.209189
H36   H     H_    0.597550 0.911801 0.221954 0.206206
H37   H     H_    0.626042 0.035637 0.114650 0.175159
H38   H     H_    0.534420 0.107413 0.180686 0.197571
H39   H     H_    0.584156 0.182923 0.294473 0.142337
H40   H     H_    0.644952 0.675764 0.988190 0.193238
H41   H     H_    0.588638 0.742815 0.879437 0.196498
H42   H     H_    0.623058 0.831911 0.010233 0.195052
H43   H     H_    0.531889 0.771389 0.105444 0.181684
H44   H     H_    0.582124 0.678864 0.197570 0.238684
N1    N     N_R   0.852831 0.486301 0.590187 -0.394993
N2    N     N_R   0.147672 0.504537 0.578452 -0.397140
N3    N     N_3   0.500040 0.499970 0.858290 -0.251424
N4    N     N_3   0.499960 0.500030 0.141710 -0.251915
O1    O     O_R   0.500030 0.316850 0.620870 -0.490293
O2    O     O_2   0.156863 0.308094 0.679064 -0.381633
O3    O     O_2   0.859749 0.271042 0.582541 -0.423125
O4    O     O_2   0.142837 0.702584 0.479512 -0.410494
O5    O     O_R   0.499970 0.683150 0.379130 -0.485153
O6    O     O_R   0.500000 0.316860 0.379090 -0.498047
O7    O     O_R   0.500000 0.683140 0.620910 -0.510687
O8    O     O_R   0.417890 0.499960 0.620920 -0.523406
O9    O     O_R   0.582110 0.500040 0.379080 -0.496421
O10   O     O_R   0.417870 0.499970 0.379140 -0.489806
O11   O     O_R   0.582130 0.500030 0.620860 -0.508139
O12   O     O_2   0.845166 0.698473 0.622210 -0.373271

loop_
_geom_bond_atom_site_label_1
_geom_bond_atom_site_label_2
_ccdc_geom_bond_type
C17   O11   A    
C22   C44   S    
C27   O3    S    
Cu2   O10   S    
C41   H42   S    
C2    C59   A    
C51   H27   S    
C24   C47   S    
Br5   C37   S    
C20   H1    S    
C48   H14   S    
C49   H22   S    
C27   C29   A    
C48   H15   S    
C41   H40   S    
C3    C60   A    
C20   C24   S    
C7    C9    S    
Br10  C3    S    
C46   H8    S    
C1    O1    A    
C27   N1    A    
C33   C39   A    
Cu1   Cu2   S    
C11   C14   S    
C7    C14   S    
C5    N2    S    
C42   C43   S    
C1    O6    A    
C57   H35   S    
C12   O7    A    
C52   H25   S    
Cu2   O6    S    
C18   N4    S    
Cu1   O1    S    
C10   C13   S    
C34   H34   S    
Br2   C10   S    
C12   O5    A    
C11   C12   S    
C19   C21   S    
Br3   C7    S    
C45   C58   A    
C32   C35   A    
C26   N2    A    
C40   H43   S    
C52   H24   S    
C9    C15   S    
C47   C48   S    
Cu2   O9    S    
C29   C31   A    
C1    C13   S    
C30   C32   A    
C51   H28   S    
C6    C34   A    
C48   H13   S    
C44   H10   S    
C35   C38   A    
C42   H6    S    
Cu1   O7    S    
Br8   C60   S    
C18   C22   S    
C54   H30   S    
C19   N3    S    
C46   H7    S    
C43   H4    S    
C37   C39   A    
Br12  C9    S    
C50   H18   S    
C55   C57   S    
C47   H16   S    
C24   N4    S    
Br9   C2    S    
C34   C56   A    
C57   H36   S    
Cu2   O5    S    
C25   N1    A    
C8    C11   S    
C28   O4    S    
C21   C22   S    
C47   H17   S    
Br6   C38   S    
C31   C33   A    
C26   C35   A    
C43   H2    S    
Cu2   N4    S    
C8    C10   S    
C22   N3    S    
Cu1   N3    S    
C9    C11   S    
C31   C32   A    
C21   N4    S    
C2    C4    A    
C54   H31   S    
C25   C33   A    
C53   H32   S    
C40   C41   S    
C42   H5    S    
C3    C5    A    
C18   C40   S    
Cu1   O8    S    
C28   N2    A    
C25   O12   S    
C14   C53   S    
C54   H29   S    
C16   C58   S    
Cu1   O11   S    
C28   C30   A    
C49   H21   S    
Br1   C36   S    
C45   C49   S    
C8    C15   S    
C13   C15   S    
C51   C56   S    
C23   C45   A    
C50   H20   S    
C55   H39   S    
Br7   C39   S    
C46   H9    S    
C18   C20   S    
C57   H37   S    
C44   H11   S    
C17   O9    A    
C56   C59   A    
C43   H3    S    
C36   C38   A    
C29   C36   A    
C44   C46   S    
C16   O8    A    
C19   C42   S    
C49   C50   S    
C7    C13   S    
Br11  C4    S    
C15   C55   S    
C30   C37   A    
C51   C52   S    
Br4   C8    S    
C55   H38   S    
C52   H26   S    
C4    C6    A    
C53   C54   S    
C10   C14   S    
C50   H19   S    
C19   C24   S    
C20   N3    S    
C58   C60   A    
C5    C23   A    
C16   O10   A    
C23   H23   S    
C6    N1    S    
C53   H33   S    
C21   H12   S    
C26   O2    S    
C41   H41   S    
C17   C59   S    
C40   H44   S    
