data_mof_unit_15083.cif
_audit_creation_date              2012-10-26T19:36:24-0400
_audit_creation_method            fapswitch 2.2
_symmetry_space_group_name_H-M    P1
_symmetry_Int_Tables_number       1
_space_group_crystal_system       triclinic
_cell_length_a                    10.896006
_cell_length_b                    15.985593
_cell_length_c                    14.750416
_cell_angle_alpha                 90.170961
_cell_angle_beta                  91.43257
_cell_angle_gamma                 90.184133
_cell_volume                      2568.38607483

loop_
_atom_site_label
_atom_site_type_symbol
_atom_type_description
_atom_site_fract_x
_atom_site_fract_y
_atom_site_fract_z
_atom_type_partial_charge
C1    C     C_R   0.499942 0.340824 0.499849 0.540992
C2    C     C_R   0.499139 0.087156 0.499347 0.038712
C3    C     C_R   0.422635 0.955807 0.438296 -0.113880
C4    C     C_R   0.575471 0.043997 0.560784 -0.111815
C5    C     C_1   0.499022 0.823267 0.500112 -0.076017
C6    C     C_1   0.499274 0.176632 0.499320 -0.070329
C7    C     C_1   0.499576 0.251702 0.499522 -0.044300
C8    C     C_1   0.499331 0.748228 0.500309 -0.053790
C9    C     C_R   0.494161 0.574624 0.951978 -0.139711
C10   C     C_R   0.495729 0.423951 0.047701 -0.123248
C11   C     C_R   0.495617 0.499223 0.902699 -0.001868
C12   C     C_R   0.499714 0.659153 0.500127 0.542488
C13   C     C_R   0.497406 0.499522 0.097035 0.004599
C14   C     C_R   0.494502 0.423824 0.951799 -0.129352
C15   C     C_R   0.496459 0.574821 0.047762 -0.133880
C16   C     C_R   0.261635 0.499786 0.498773 0.531476
C17   C     C_R   0.738449 0.501030 0.501228 0.535351
C18   C     C_1   0.498070 0.499537 0.802688 0.118689
C19   C     C_1   0.498956 0.499799 0.197215 0.115357
C20   C     C_R   0.193690 0.648823 0.231050 0.029909
C21   C     C_R   0.834296 0.418152 0.813376 0.031906
C22   C     C_R   0.147935 0.624752 0.316238 0.064511
C23   C     C_R   0.872143 0.501629 0.502977 -0.023078
C24   C     C_R   0.859037 0.417352 0.719207 0.055925
C25   C     C_R   0.111803 0.540095 0.329434 0.053337
C26   C     C_R   0.892320 0.493414 0.676414 0.049460
C27   C     C_R   0.118900 0.480608 0.257766 0.040069
C28   C     C_R   0.895322 0.570112 0.725671 0.049005
C29   C     C_R   0.155445 0.507508 0.170636 0.029038
C30   C     C_R   0.872911 0.569283 0.819921 0.025743
C31   C     C_R   0.195081 0.590610 0.159935 -0.100726
C32   C     C_R   0.841849 0.493828 0.861562 -0.102962
C33   C     C_R   0.930837 0.513112 0.420622 -0.166560
C34   C     C_R   0.128065 0.499022 0.496774 -0.018682
C35   C     C_R   0.069348 0.485936 0.578669 -0.156991
C36   C     C_3   0.239455 0.736714 0.212079 -0.288410
C37   C     C_3   0.372696 0.748272 0.244557 -0.424545
C38   C     C_3   0.800349 0.340326 0.866292 -0.275639
C39   C     C_3   0.899342 0.318068 0.937197 -0.452340
C40   C     C_3   0.132733 0.689343 0.391661 -0.263868
C41   C     C_3   0.006018 0.729810 0.386319 -0.449280
C42   C     C_3   0.850231 0.336784 0.663734 -0.255784
C43   C     C_3   0.963913 0.282297 0.677897 -0.451394
C44   C     C_3   0.089568 0.388422 0.275053 -0.280647
C45   C     C_R   0.942940 0.491775 0.583782 -0.028274
C46   C     C_3   0.205849 0.338807 0.297620 -0.411112
C47   C     C_3   0.917342 0.652504 0.676618 -0.264989
C48   C     C_3   0.052035 0.679970 0.682082 -0.446590
C49   C     C_3   0.149603 0.447209 0.089956 -0.275062
C50   C     C_3   0.166966 0.485423 0.996178 -0.450387
C51   C     C_3   0.886126 0.646484 0.879917 -0.283833
C52   C     C_3   0.762358 0.676759 0.912272 -0.447427
C53   C     C_R   0.057879 0.515265 0.417036 -0.029167
C54   C     C_R   0.575365 0.956724 0.561019 -0.110043
C55   C     C_R   0.422721 0.043123 0.438081 -0.110532
C56   C     C_R   0.498934 0.912696 0.499816 0.039315
Cu1   Cu    Cu3+1 0.500040 0.500000 0.589220 0.965617
Cu2   Cu    Cu3+1 0.499960 0.500000 0.410780 0.961616
H1    H     H_    0.228198 0.611485 0.095385 0.113903
H2    H     H_    0.363461 0.076229 0.390361 0.102268
H3    H     H_    0.497490 0.634124 0.083093 0.098513
H4    H     H_    0.492720 0.364613 0.915943 0.098004
H5    H     H_    0.382460 0.740559 0.318911 0.167884
H6    H     H_    0.432422 0.701801 0.211683 0.155454
H7    H     H_    0.404720 0.812034 0.226862 0.125833
H8    H     H_    0.234562 0.749688 0.138048 0.126036
H9    H     H_    0.180336 0.784567 0.243399 0.138190
H10   H     H_    0.990839 0.314528 0.905933 0.150606
H11   H     H_    0.902023 0.365432 0.992209 0.140798
H12   H     H_    0.823662 0.494022 0.933479 0.122925
H13   H     H_    0.877920 0.256465 0.967691 0.133189
H14   H     H_    0.713113 0.351680 0.901224 0.142670
H15   H     H_    0.784206 0.284645 0.823116 0.140149
H16   H     H_    0.990433 0.760319 0.319540 0.144675
H17   H     H_    0.932914 0.682601 0.396265 0.158267
H18   H     H_    0.999294 0.777946 0.440383 0.135691
H19   H     H_    0.146745 0.661284 0.459649 0.141361
H20   H     H_    0.203237 0.739125 0.389527 0.137322
H21   H     H_    0.047452 0.317011 0.658112 0.155812
H22   H     H_    0.974801 0.262632 0.749589 0.151673
H23   H     H_    0.492409 0.633737 0.916334 0.104296
H24   H     H_    0.955090 0.225301 0.634996 0.134866
H25   H     H_    0.765507 0.301499 0.679078 0.134846
H26   H     H_    0.840023 0.349649 0.590161 0.148925
H27   H     H_    0.277251 0.349674 0.246580 0.153313
H28   H     H_    0.242995 0.356834 0.365551 0.182909
H29   H     H_    0.183762 0.270970 0.298858 0.119180
H30   H     H_    0.025349 0.380084 0.331379 0.147789
H31   H     H_    0.040691 0.358986 0.216537 0.122817
H32   H     H_    0.059633 0.745842 0.659193 0.132584
H33   H     H_    0.090575 0.675355 0.752197 0.146223
H34   H     H_    0.495198 0.364836 0.083360 0.099947
H35   H     H_    0.108453 0.641012 0.637173 0.162148
H36   H     H_    0.888035 0.648366 0.604153 0.147750
H37   H     H_    0.858093 0.702263 0.704449 0.137601
H38   H     H_    0.099233 0.535894 0.983526 0.140807
H39   H     H_    0.260990 0.510357 0.989842 0.175268
H40   H     H_    0.152634 0.436481 0.943343 0.143246
H41   H     H_    0.218448 0.396920 0.100331 0.149152
H42   H     H_    0.057119 0.418404 0.086609 0.131906
H43   H     H_    0.696825 0.684114 0.853945 0.157107
H44   H     H_    0.725620 0.631630 0.961641 0.160930
H45   H     H_    0.877903 0.523998 0.358546 0.138796
H46   H     H_    0.773754 0.738123 0.946993 0.130532
H47   H     H_    0.945326 0.631564 0.940009 0.129542
H48   H     H_    0.931839 0.699322 0.846235 0.145297
H49   H     H_    0.122385 0.475763 0.640868 0.140568
H50   H     H_    0.634825 0.077763 0.608333 0.101693
H51   H     H_    0.363361 0.921978 0.390724 0.099658
H52   H     H_    0.634656 0.923635 0.608736 0.102929
N1    N     N_1   0.500040 0.499980 0.276710 -0.196753
N2    N     N_1   0.499960 0.500020 0.723290 -0.196283
O1    O     O_R   0.500060 0.380310 0.575320 -0.493038
O2    O     O_R   0.499940 0.619690 0.424680 -0.495518
O3    O     O_R   0.500000 0.380310 0.424640 -0.496596
O4    O     O_R   0.500000 0.619690 0.575360 -0.489150
O5    O     O_R   0.319670 0.500010 0.575340 -0.507247
O6    O     O_R   0.680330 0.499990 0.424660 -0.502124
O7    O     O_R   0.319610 0.500010 0.424650 -0.491635
O8    O     O_R   0.680390 0.499990 0.575350 -0.492105

loop_
_geom_bond_atom_site_label_1
_geom_bond_atom_site_label_2
_ccdc_geom_bond_type
C30   C51   S    
C11   C18   S    
C23   C45   A    
C27   C29   A    
C24   C42   S    
C39   H10   S    
C5    C56   S    
C36   H9    S    
C28   C47   S    
C29   C49   S    
C4    H50   S    
C52   H44   S    
C17   C23   S    
C36   C37   S    
C25   C53   S    
C2    C55   A    
C1    C7    S    
C38   C39   S    
C11   C14   A    
C36   H8    S    
Cu1   N2    S    
C49   H41   S    
C43   H21   S    
C14   H4    S    
Cu2   O6    S    
C54   H52   S    
C34   C35   A    
C31   H1    S    
C26   C45   S    
C16   C34   S    
C41   H16   S    
C3    C55   A    
C27   C44   S    
C21   C38   S    
C23   C33   A    
C48   H33   S    
C37   H7    S    
C17   O8    A    
C51   H47   S    
C46   H27   S    
C10   H34   S    
C48   H32   S    
C55   H2    S    
C46   H28   S    
C2    C6    S    
C1    O1    A    
C37   H5    S    
C44   C46   S    
Cu1   O4    S    
C12   O2    A    
C33   C53   A    
C21   C32   A    
C38   H14   S    
C52   H43   S    
C50   H40   S    
C48   H35   S    
C13   C19   S    
C51   C52   S    
C42   H26   S    
C10   C14   A    
C16   O7    A    
C32   H12   S    
C43   H22   S    
C22   C25   A    
Cu2   N1    S    
C2    C4    A    
C41   H17   S    
C3    C56   A    
C47   C48   S    
C8    C12   S    
C22   C40   S    
C15   H3    S    
C9    C11   A    
C17   O6    A    
Cu1   O8    S    
C40   C41   S    
C20   C22   A    
C13   C15   A    
Cu2   O3    S    
C40   H20   S    
C42   C43   S    
C35   C45   A    
C37   H6    S    
Cu1   O5    S    
C46   H29   S    
C52   H46   S    
C50   H39   S    
C39   H13   S    
C4    C54   A    
C33   H45   S    
C42   H25   S    
C24   C26   A    
C18   N2    T    
C10   C13   A    
C5    C8    T    
Cu1   O1    S    
C54   C56   A    
C6    C7    T    
C19   N1    T    
C25   C27   A    
C26   C28   A    
C28   C30   A    
C9    C15   A    
C29   C31   A    
C16   O5    A    
C49   H42   S    
C30   C32   A    
C50   H38   S    
Cu1   Cu2   S    
C3    H51   S    
C51   H48   S    
Cu2   O7    S    
C39   H11   S    
C47   H36   S    
C35   H49   S    
C20   C36   S    
C34   C53   A    
C49   C50   S    
C21   C24   A    
Cu2   O2    S    
C43   H24   S    
C47   H37   S    
C40   H19   S    
C1    O3    A    
C12   O4    A    
C44   H30   S    
C20   C31   A    
C44   H31   S    
C9    H23   S    
C41   H18   S    
C38   H15   S    
