data_mof_unit_25957.cif
_audit_creation_date              2012-12-10T20:30:59-0500
_audit_creation_method            fapswitch 2.2
_symmetry_space_group_name_H-M    P1
_symmetry_Int_Tables_number       1
_space_group_crystal_system       triclinic
_cell_length_a                    14.97673
_cell_length_b                    10.679173
_cell_length_c                    9.85439
_cell_angle_alpha                 90.10285
_cell_angle_beta                  89.838971
_cell_angle_gamma                 90.243015
_cell_volume                      1576.07926841

loop_
_atom_site_label
_atom_site_type_symbol
_atom_type_description
_atom_site_fract_x
_atom_site_fract_y
_atom_site_fract_z
_atom_type_partial_charge
C1    C     C_R   0.498917 0.260161 0.500081 0.872236
C2    C     C_R   0.907091 0.540590 0.616556 0.122979
C3    C     C_R   0.953932 0.425596 0.265350 -0.220234
C4    C     C_R   0.046711 0.424728 0.265705 -0.223133
C5    C     C_R   0.093071 0.463278 0.381767 0.119089
C6    C     C_R   0.046509 0.502975 0.498771 0.058707
C7    C     C_R   0.092838 0.543132 0.615635 0.122081
C8    C     C_R   0.046248 0.581512 0.731680 -0.229148
C9    C     C_R   0.953484 0.579681 0.732367 -0.227093
C10   C     C_R   0.185399 0.462483 0.383235 -0.267713
C11   C     C_R   0.230927 0.501927 0.499441 -0.073619
C12   C     C_R   0.326677 0.500363 0.500030 0.889813
C13   C     C_R   0.185179 0.543698 0.614415 -0.261924
C14   C     C_R   0.516891 0.063506 0.617312 0.097409
C15   C     C_R   0.491117 0.128449 0.501879 -0.110650
C16   C     C_R   0.453024 0.064414 0.391949 -0.240276
C17   C     C_R   0.452894 0.934743 0.391762 -0.223367
C18   C     C_R   0.489350 0.871257 0.502781 -0.095024
C19   C     C_R   0.513475 0.936197 0.619392 0.102022
C20   C     C_3   0.594214 0.924491 0.707420 -0.506834
C21   C     C_3   0.599751 0.067076 0.703349 -0.114179
C22   C     C_R   0.437125 0.433204 0.071628 0.188926
C23   C     C_R   0.498470 0.739809 0.500245 0.880212
C24   C     C_R   0.557087 0.574267 0.071875 -0.133653
C25   C     C_R   0.557248 0.574057 0.927824 -0.141507
C26   C     C_R   0.436181 0.434502 0.928716 0.195646
C27   C     C_3   0.420930 0.296015 0.923302 -0.150154
C28   C     C_3   0.423671 0.294956 0.077737 -0.539162
C29   C     C_R   0.673352 0.500235 0.499806 0.888914
C30   C     C_R   0.814746 0.538902 0.616160 -0.272374
C31   C     C_R   0.769169 0.501310 0.499354 -0.075363
C32   C     C_R   0.814959 0.464972 0.382071 -0.279694
C33   C     C_R   0.907315 0.464293 0.381299 0.114474
C34   C     C_R   0.953640 0.502625 0.498868 0.062627
H1    H     H_    0.778419 0.568159 0.706120 0.154417
H2    H     H_    0.427883 0.884879 0.303785 0.168462
H3    H     H_    0.576590 0.887868 0.809632 0.183049
H4    H     H_    0.650021 0.873671 0.657720 0.194252
H5    H     H_    0.586636 0.108410 0.804910 0.138614
H6    H     H_    0.604389 0.632309 0.126226 0.147582
H7    H     H_    0.604730 0.631817 0.873277 0.143289
H8    H     H_    0.778794 0.435041 0.292374 0.164920
H9    H     H_    0.483438 0.246042 0.117731 0.197994
H10   H     H_    0.918686 0.395807 0.174889 0.145507
H11   H     H_    0.082151 0.394263 0.175509 0.145038
H12   H     H_    0.221743 0.430353 0.294423 0.152170
H13   H     H_    0.221402 0.576940 0.702576 0.155682
H14   H     H_    0.081527 0.611938 0.821871 0.147473
H15   H     H_    0.918071 0.608953 0.823016 0.145055
N1    N     N_R   0.499390 0.499140 0.142800 -0.105678
N2    N     N_R   0.499390 0.499180 0.857150 -0.120830
O1    O     O_R   0.500010 0.316790 0.614690 -0.634327
O2    O     O_R   0.500000 0.316760 0.385350 -0.622834
O3    O     O_R   0.367850 0.499990 0.614680 -0.627232
O4    O     O_R   0.367840 0.499950 0.385340 -0.622514
O5    O     O_R   0.500000 0.683240 0.614650 -0.615784
O6    O     O_R   0.499990 0.683210 0.385310 -0.624814
O7    O     O_R   0.632160 0.500050 0.614660 -0.631588
O8    O     O_R   0.632150 0.500010 0.385320 -0.622767
Zn1   Zn    Zn3+2 0.500010 0.500020 0.653130 0.930706
Zn2   Zn    Zn3+2 0.499990 0.499980 0.346870 0.938350
C35   C     C_3   0.686135 0.121055 0.638795 -0.361734
C36   C     C_3   0.705154 0.083106 0.490361 -0.316991
C37   C     C_3   0.801531 0.113277 0.451240 -0.897484
H16   H     H_    0.816417 0.213647 0.470091 0.274509
H17   H     H_    0.848286 0.055111 0.511303 0.263616
H18   H     H_    0.812103 0.092972 0.341829 0.251164
H19   H     H_    0.693547 0.981655 0.473645 0.226243
H20   H     H_    0.660749 0.135580 0.421075 0.220693
H21   H     H_    0.683122 0.224918 0.644512 0.200119
H22   H     H_    0.742797 0.091335 0.703734 0.206886
C38   C     C_3   0.331429 0.254893 0.859058 -0.340036
C39   C     C_3   0.249193 0.331472 0.902759 -0.337587
C40   C     C_3   0.164921 0.283061 0.833106 -0.885286
H23   H     H_    0.172270 0.288263 0.721073 0.273191
H24   H     H_    0.151669 0.184421 0.862801 0.257807
H25   H     H_    0.106944 0.340943 0.864290 0.253939
H26   H     H_    0.238670 0.325590 0.014018 0.207855
H27   H     H_    0.258932 0.431385 0.875699 0.220896
H28   H     H_    0.338690 0.261246 0.746984 0.216680
H29   H     H_    0.320075 0.154657 0.884303 0.195798
H30   H     H_    0.478615 0.246261 0.877855 0.160390
H31   H     H_    0.360416 0.268518 0.129248 0.191672
H32   H     H_    0.427103 0.113730 0.304868 0.163432

loop_
_geom_bond_atom_site_label_1
_geom_bond_atom_site_label_2
_ccdc_geom_bond_type
C39   C40   S    
C19   C20   S    
C8    H14   S    
C7    C8    A    
O3    Zn1   S    
C26   C27   S    
C40   H24   S    
C30   H1    S    
C14   C21   S    
C5    C6    A    
C16   C17   A    
C3    C33   A    
O7    Zn1   S    
C15   C16   A    
C16   H32   S    
C35   H21   S    
C18   C19   A    
C1    O2    A    
O1    Zn1   S    
O2    Zn2   S    
C29   O8    A    
C8    C9    A    
C40   H25   S    
C10   H12   S    
C39   H26   S    
C1    C15   S    
C17   H2    S    
C38   H29   S    
C22   N1    A    
C2    C34   A    
C22   C28   S    
C28   H31   S    
C17   C18   A    
C4    H11   S    
C24   N1    A    
C3    H10   S    
O8    Zn2   S    
C40   H23   S    
C18   C23   S    
C37   H18   S    
C36   H20   S    
C23   O5    A    
C9    H15   S    
C24   C25   A    
C25   H7    S    
C13   H13   S    
C4    C5    A    
C6    C34   A    
C37   H17   S    
C25   N2    A    
C35   C36   S    
C20   H4    S    
C31   C32   A    
C21   H5    S    
C33   C34   A    
C39   H27   S    
C20   C21   S    
C21   C35   S    
C3    C4    A    
C23   O6    A    
C36   H19   S    
C14   C19   A    
C27   H30   S    
C38   C39   S    
C11   C12   S    
O6    Zn2   S    
C6    C7    A    
C28   H9    S    
C2    C30   A    
C32   C33   A    
C5    C10   A    
C29   C31   S    
C26   N2    A    
C37   H16   S    
C20   H3    S    
C11   C13   A    
C30   C31   A    
O4    Zn2   S    
C24   H6    S    
C35   H22   S    
C1    O1    A    
C12   O4    A    
C10   C11   A    
C36   C37   S    
O5    Zn1   S    
C7    C13   A    
C29   O7    A    
C38   H28   S    
C22   C26   A    
C27   C28   S    
N1    Zn2   S    
C32   H8    S    
C14   C15   A    
N2    Zn1   S    
C2    C9    A    
C12   O3    A    
C27   C38   S    
