data_mof_unit_53307.cif
_audit_creation_date              2012-12-10T18:13:33-0500
_audit_creation_method            fapswitch 2.2
_symmetry_space_group_name_H-M    P1
_symmetry_Int_Tables_number       1
_space_group_crystal_system       triclinic
_cell_length_a                    12.698763
_cell_length_b                    13.05993
_cell_length_c                    17.011225
_cell_angle_alpha                 88.707347
_cell_angle_beta                  99.526106
_cell_angle_gamma                 98.438568
_cell_volume                      2752.19563508

loop_
_atom_site_label
_atom_site_type_symbol
_atom_type_description
_atom_site_fract_x
_atom_site_fract_y
_atom_site_fract_z
_atom_type_partial_charge
C1    C     C_R   0.560370 0.691511 0.513402 0.884545
C2    C     C_R   0.491453 0.511177 0.735943 -0.120649
C3    C     C_R   0.297866 0.062464 0.561337 -0.155164
C4    C     C_R   0.513193 0.502525 0.349908 0.871273
C5    C     C_R   0.401556 0.198654 0.496460 -0.163573
C6    C     C_R   0.702545 0.842390 0.509800 -0.237183
C7    C     C_R   0.732187 0.949128 0.503649 0.246262
C8    C     C_R   0.654396 0.013858 0.506322 -0.191617
C9    C     C_R   0.550103 0.973436 0.521715 -0.010441
C10   C     C_R   0.531074 0.869452 0.545449 -0.040439
C11   C     C_R   0.466220 0.034276 0.518786 -0.036276
C12   C     C_R   0.454323 0.597252 0.228216 -0.270263
C13   C     C_R   0.375974 0.998423 0.556467 0.019093
C14   C     C_R   0.367638 0.901344 0.592218 -0.341591
C15   C     C_R   0.446105 0.837609 0.589143 0.559751
C16   C     C_R   0.439473 0.308446 0.491067 0.909621
C17   C     C_R   0.468223 0.129733 0.478793 0.476729
C18   C     C_R   0.313051 0.163948 0.534235 -0.282714
C19   C     C_R   0.600106 0.801843 0.526746 -0.148972
C20   C     C_R   0.894309 0.328741 0.597946 -0.319315
C21   C     C_R   0.201715 0.624765 0.399955 0.381678
C22   C     C_R   0.095007 0.625764 0.365505 -0.261207
C23   C     C_R   0.587680 0.522734 0.872310 0.462846
C24   C     C_R   0.014669 0.565965 0.397726 -0.178813
C25   C     C_R   0.037671 0.514490 0.469816 0.060861
C26   C     C_R   0.145999 0.498330 0.494233 0.127573
C27   C     C_R   0.955130 0.467242 0.511195 -0.164115
C28   C     C_R   0.489596 0.504639 0.650406 0.919482
C29   C     C_R   0.977240 0.383851 0.562805 -0.033136
C30   C     C_R   0.082668 0.358631 0.580715 0.514255
C31   C     C_R   0.166696 0.419228 0.549103 -0.314486
C32   C     C_R   0.852819 0.502343 0.505578 0.583313
C33   C     C_R   0.792513 0.360123 0.586181 0.275085
C34   C     C_R   0.590543 0.527254 0.790163 0.109628
C35   C     C_R   0.522516 0.529694 0.267509 -0.147382
C36   C     C_R   0.599400 0.494187 0.228145 0.498859
C37   C     C_R   0.605987 0.526818 0.150202 -0.219124
C38   C     C_R   0.533155 0.589607 0.111043 0.069813
C39   C     C_R   0.459757 0.627133 0.150646 -0.150871
C40   C     C_3   0.626440 0.326369 0.237636 -0.274419
C41   C     C_3   0.488954 0.107880 0.350828 -0.348310
C42   C     C_3   0.925920 0.970052 0.548080 -0.752441
C43   C     C_3   0.484588 0.781009 0.715878 -0.371108
C44   C     C_3   0.729095 0.294598 0.707381 -0.780232
C45   C     C_R   0.392834 0.498597 0.764019 -0.265356
C46   C     C_3   0.721254 0.647563 0.731471 -0.733226
C47   C     C_3   0.173227 0.296124 0.695667 -0.372073
C48   C     C_3   0.791890 0.620257 0.409294 -0.253259
C49   C     C_3   0.281818 0.800565 0.375621 -0.820115
C50   C     C_3   0.465738 0.327070 0.990852 -0.343239
C51   C     C_3   0.741839 0.621087 0.938246 -0.346006
C52   C     C_3   0.450417 0.740390 0.949458 -0.855131
C53   C     C_R   0.390773 0.495408 0.844866 -0.296214
C54   C     C_R   0.487307 0.506934 0.898366 -0.040046
C55   C     C_2   0.516797 0.595875 0.024807 0.106277
C56   C     C_2   0.483354 0.506740 0.983629 0.535471
H1    H     H_    0.313963 0.484815 0.866014 0.176738
H2    H     H_    0.246091 0.399273 0.564537 0.206427
H3    H     H_    0.317039 0.490277 0.723324 0.183077
H4    H     H_    0.401992 0.673942 0.120141 0.146163
H5    H     H_    0.394374 0.625824 0.256350 0.178644
H6    H     H_    0.662419 0.497424 0.118266 0.161700
H7    H     H_    0.629890 0.318473 0.173156 0.158572
H8    H     H_    0.542400 0.302794 0.249028 0.163934
H9    H     H_    0.677613 0.272446 0.270699 0.194160
H10   H     H_    0.412256 0.136696 0.325350 0.166548
H11   H     H_    0.474937 0.022216 0.357622 0.168856
H12   H     H_    0.259173 0.216289 0.546335 0.204972
H13   H     H_    0.545617 0.125090 0.307689 0.179522
H14   H     H_    0.844457 0.067096 0.469766 0.229459
H15   H     H_    0.003308 0.004725 0.529665 0.245871
H16   H     H_    0.926827 0.885489 0.555421 0.251053
H17   H     H_    0.919965 0.004789 0.605952 0.239573
H18   H     H_    0.428806 0.826618 0.738959 0.170574
H19   H     H_    0.567267 0.825801 0.722558 0.158435
H20   H     H_    0.489165 0.711954 0.754197 0.213483
H21   H     H_    0.678649 0.233287 0.594253 0.222079
H22   H     H_    0.772031 0.368366 0.735073 0.251050
H23   H     H_    0.301636 0.875452 0.624344 0.168989
H24   H     H_    0.778785 0.232040 0.725198 0.214736
H25   H     H_    0.651346 0.275227 0.729860 0.240964
H26   H     H_    0.755146 0.519098 0.799894 0.245002
H27   H     H_    0.795438 0.649389 0.704584 0.243327
H28   H     H_    0.737065 0.706235 0.779666 0.201684
H29   H     H_    0.656427 0.668520 0.684594 0.260710
H30   H     H_    0.153331 0.363431 0.726527 0.165988
H31   H     H_    0.257645 0.310250 0.684059 0.165067
H32   H     H_    0.167286 0.229234 0.736846 0.200363
H33   H     H_    0.717098 0.653660 0.408817 0.181329
H34   H     H_    0.229524 0.036564 0.591073 0.160286
H35   H     H_    0.772860 0.549185 0.372202 0.194534
H36   H     H_    0.843548 0.679770 0.379639 0.152547
H37   H     H_    0.356643 0.670446 0.372370 0.273083
H38   H     H_    0.347300 0.844758 0.347424 0.228120
H39   H     H_    0.295820 0.820639 0.439792 0.262273
H40   H     H_    0.203972 0.823738 0.346587 0.246542
H41   H     H_    0.552736 0.332637 0.985892 0.180666
H42   H     H_    0.413958 0.308464 0.932166 0.177407
H43   H     H_    0.447157 0.261937 0.031679 0.185098
H44   H     H_    0.700209 0.684903 0.909245 0.167221
H45   H     H_    0.758468 0.791474 0.499173 0.199913
H46   H     H_    0.819033 0.622018 0.915624 0.182974
H47   H     H_    0.762032 0.638068 0.003048 0.184954
H48   H     H_    0.597523 0.745107 0.023309 0.225685
H49   H     H_    0.479219 0.811157 0.917230 0.240869
H50   H     H_    0.404373 0.762578 0.994884 0.239167
H51   H     H_    0.396154 0.687188 0.905609 0.259693
H52   H     H_    0.678911 0.095955 0.500662 0.179318
H53   H     H_    0.908292 0.262184 0.635253 0.210384
H54   H     H_    0.937330 0.551720 0.361173 0.155549
H55   H     H_    0.074673 0.669055 0.311416 0.157206
N1    N     N_R   0.774070 0.445420 0.541180 -0.144718
N2    N     N_R   0.226730 0.554050 0.459240 -0.140140
N3    N     N_2   0.836829 0.990814 0.487921 -0.310117
N4    N     N_2   0.707997 0.303752 0.621493 -0.244638
N5    N     N_2   0.692014 0.544969 0.762607 -0.278103
N6    N     N_2   0.281527 0.690727 0.365946 -0.323821
N7    N     N_2   0.542204 0.693290 0.987239 -0.337669
O1    O     O_R   0.631480 0.627510 0.519670 -0.605446
O2    O     O_3   0.535625 0.158319 0.423413 -0.619911
O3    O     O_3   0.446218 0.749645 0.635954 -0.590985
O4    O     O_3   0.100592 0.270089 0.624556 -0.622035
O5    O     O_3   0.844743 0.605880 0.487920 -0.614531
O6    O     O_3   0.442810 0.418307 0.023153 -0.617562
O7    O     O_3   0.681063 0.521155 0.927589 -0.638629
O8    O     O_R   0.455770 0.662400 0.493360 -0.598724
O9    O     O_R   0.598240 0.480510 0.398910 -0.583908
O10   O     O_R   0.422540 0.515400 0.372600 -0.650328
O11   O     O_R   0.544230 0.337600 0.506640 -0.570622
O12   O     O_R   0.368520 0.372490 0.480330 -0.644391
O13   O     O_R   0.577460 0.484600 0.627400 -0.572497
O14   O     O_R   0.401760 0.519490 0.601090 -0.609893
O15   O     O_3   0.667274 0.427691 0.265159 -0.628498
Zn1   Zn    Zn3+2 0.617320 0.476700 0.517570 1.004639
Zn2   Zn    Zn3+2 0.382680 0.523300 0.482430 0.946080

loop_
_geom_bond_atom_site_label_1
_geom_bond_atom_site_label_2
_ccdc_geom_bond_type
C55   C56   D    
C27   C29   A    
O12   Zn2   S    
C32   N1    A    
O9    Zn1   S    
O13   Zn1   S    
C36   O15   S    
C48   O5    S    
C37   H6    S    
C7    C8    A    
C41   H11   S    
C53   C54   A    
H14   N3    S    
C51   H46   S    
C6    C19   A    
C50   H43   S    
C29   C30   A    
C40   H7    S    
C3    H34   S    
C56   O6    S    
C7    N3    S    
C36   C37   A    
C10   C15   A    
C30   C31   A    
C5    C17   A    
C34   N5    S    
C43   H20   S    
C3    C18   A    
C1    O1    A    
C6    H45   S    
C5    C16   S    
C21   N6    S    
C17   O2    S    
C42   N3    S    
C49   N6    S    
C38   C55   S    
C35   C36   A    
C44   N4    S    
C8    C9    A    
C42   H17   S    
C48   H35   S    
C49   H38   S    
C16   O12   A    
C9    C10   A    
C43   O3    S    
C3    C13   A    
C23   O7    S    
C46   H29   S    
C2    C34   A    
C43   H18   S    
C4    C35   S    
C45   C53   A    
C26   C31   A    
C49   H40   S    
C13   C14   A    
C32   O5    S    
H37   N6    S    
C8    H52   S    
H48   N7    S    
C20   C29   A    
C2    C45   A    
C43   H19   S    
C54   C56   S    
C50   H42   S    
O1    Zn1   S    
C1    C19   S    
C4    O10   A    
C51   O7    S    
C47   H30   S    
C30   O4    S    
C44   H24   S    
C24   H54   S    
C1    O8    A    
C52   H51   S    
C21   N2    A    
C44   H25   S    
O10   Zn2   S    
C53   H1    S    
C47   O4    S    
C5    C18   A    
C25   C26   A    
C49   H39   S    
C20   H53   S    
C28   O14   A    
C47   H31   S    
C37   C38   A    
C10   C19   A    
C23   C34   A    
C42   H16   S    
C50   O6    S    
C33   N1    A    
C14   H23   S    
C24   C25   A    
C12   C35   A    
C16   O11   A    
C9    C11   A    
C41   H10   S    
C46   H28   S    
C20   C33   A    
C52   H49   S    
C40   H9    S    
N2    Zn2   S    
C22   C24   A    
C31   H2    S    
C23   C54   A    
C41   H13   S    
C51   H44   S    
C11   C17   A    
C50   H41   S    
C15   O3    S    
C4    O9    A    
C27   C32   A    
N1    Zn1   S    
O8    Zn2   S    
C6    C7    A    
C25   C27   A    
C40   O15   S    
C40   H8    S    
C46   N5    S    
C48   H33   S    
C28   O13   A    
C47   H32   S    
C12   C39   A    
C44   H22   S    
C26   N2    A    
H26   N5    S    
H21   N4    S    
C12   H5    S    
C11   C13   A    
C38   C39   A    
C33   N4    S    
C51   H47   S    
O14   Zn2   S    
C39   H4    S    
C42   H15   S    
C41   O2    S    
O11   Zn1   S    
C52   H50   S    
C46   H27   S    
C45   H3    S    
C22   H55   S    
C48   H36   S    
C14   C15   A    
C2    C28   S    
C21   C22   A    
C18   H12   S    
C55   N7    S    
C52   N7    S    
