data_mof_unit_58684.cif
_audit_creation_date              2013-03-05T15:49:32-0500
_audit_creation_method            fapswitch 2.2
_symmetry_space_group_name_H-M    P1
_symmetry_Int_Tables_number       1
_space_group_crystal_system       triclinic
_cell_length_a                    19.310527
_cell_length_b                    12.9783
_cell_length_c                    11.732897
_cell_angle_alpha                 98.788466
_cell_angle_beta                  92.476116
_cell_angle_gamma                 91.645985
_cell_volume                      2901.37737793

loop_
_atom_site_label
_atom_site_type_symbol
_atom_site_description
_atom_site_fract_x
_atom_site_fract_y
_atom_site_fract_z
_atom_type_partial_charge
O1    O     O_R   0.503640 0.354460 0.582000 -0.543862
O2    O     O_R   0.496360 0.645540 0.418000 -0.545087
O3    O     O_R   0.494980 0.341410 0.386200 -0.593349
O4    O     O_R   0.505020 0.658590 0.613800 -0.599681
C1    C     C_R   0.499078 0.299912 0.479962 0.863861
C2    C     C_R   0.500568 0.700097 0.520035 0.853480
O5    O     O_R   0.404470 0.506520 0.597930 -0.578400
O6    O     O_R   0.595530 0.493480 0.402070 -0.580908
O7    O     O_R   0.395820 0.493460 0.402130 -0.553140
O8    O     O_R   0.604180 0.506540 0.597870 -0.533630
C3    C     C_R   0.367517 0.499396 0.501137 0.858211
C4    C     C_R   0.632470 0.500763 0.498868 0.852075
Cu1   Cu    Cu3+1 0.505120 0.507730 0.615930 1.010045
Cu2   Cu    Cu3+1 0.494880 0.492270 0.384070 1.000409
C5    C     C_R   0.260061 0.550449 0.600263 -0.334000
C6    C     C_R   0.740324 0.449406 0.400961 -0.331645
H1    H     H_    0.292002 0.593192 0.670915 0.197756
H2    H     H_    0.708644 0.406251 0.330223 0.199102
C7    C     C_R   0.187886 0.547623 0.607856 0.366136
C8    C     C_R   0.812601 0.451542 0.394719 0.364417
C9    C     C_R   0.146165 0.493104 0.514631 -0.120595
C10   C     C_R   0.853941 0.504745 0.489202 -0.121463
C11   C     C_R   0.177639 0.440467 0.418160 -0.263308
C12   C     C_R   0.822053 0.557892 0.584933 -0.264994
H3    H     H_    0.146013 0.397393 0.347138 0.193510
H4    H     H_    0.853493 0.596444 0.658749 0.192255
C13   C     C_R   0.249715 0.444600 0.410298 0.491528
C14   C     C_R   0.749741 0.559441 0.588572 0.503556
C15   C     C_R   0.291415 0.498001 0.503546 -0.182814
C16   C     C_R   0.708563 0.502846 0.496678 -0.182860
N1    N     N_R   0.031183 0.410186 0.460984 -0.202240
N2    N     N_R   0.968878 0.586648 0.544617 -0.209149
N3    N     N_R   0.962375 0.413245 0.453222 -0.153070
N4    N     N_R   0.037667 0.583586 0.552371 -0.156098
C17   C     C_R   0.930025 0.501802 0.494118 0.482791
C18   C     C_R   0.070042 0.495093 0.511380 0.480482
C19   C     C_R   0.506812 0.812236 0.527649 -0.102063
C20   C     C_R   0.492450 0.187832 0.472332 -0.116254
C21   C     C_R   0.422159 0.030844 0.413093 -0.136545
C22   C     C_R   0.576878 0.969328 0.587237 -0.141401
C23   C     C_R   0.434319 0.136389 0.412319 -0.247088
C24   C     C_R   0.564474 0.864002 0.588599 -0.265951
C25   C     C_R   0.539273 0.134385 0.535060 0.432624
C26   C     C_R   0.460208 0.865484 0.464251 0.435894
C27   C     C_R   0.529261 0.026120 0.530626 0.024539
C28   C     C_R   0.470033 0.973877 0.469027 0.016900
H5    H     H_    0.601379 0.821711 0.633937 0.158577
H6    H     H_    0.396863 0.179044 0.368219 0.190598
H7    H     H_    0.374933 0.994643 0.370109 0.196329
H8    H     H_    0.624011 0.005486 0.630559 0.189042
N5    N     N_R   0.512830 0.519350 0.790130 -0.253504
N6    N     N_R   0.487170 0.480650 0.209870 -0.249838
C29   C     C_R   0.448729 0.382148 0.026815 0.232008
C30   C     C_R   0.551745 0.617479 0.973122 0.241264
C31   C     C_R   0.449526 0.399888 0.147849 -0.094770
C32   C     C_R   0.550969 0.599629 0.852080 -0.044297
C33   C     C_R   0.526163 0.547006 0.155392 0.647550
C34   C     C_R   0.473854 0.453038 0.844674 0.642933
C35   C     C_R   0.519510 0.542386 0.032737 -0.251615
C36   C     C_R   0.480676 0.457535 0.967291 -0.245681
H9    H     H_    0.577260 0.654631 0.806654 0.194846
H10   H     H_    0.423575 0.344528 0.193224 0.206465
N7    N     N_R   0.419936 0.284046 0.967984 0.150053
O9    O     O_R   0.456494 0.226025 0.894679 -0.337193
O10   O     O_R   0.364383 0.243178 0.004629 -0.355745
N8    N     N_R   0.581042 0.715284 0.031838 0.147384
O11   O     O_R   0.636980 0.755171 0.995319 -0.355980
O12   O     O_R   0.544751 0.773972 0.104980 -0.342137
N9    N     N_R   0.158441 0.596173 0.712347 0.137347
O13   O     O_R   0.108844 0.548431 0.757610 -0.318920
O14   O     O_R   0.188115 0.679862 0.771870 -0.322138
N10   N     N_R   0.842623 0.402669 0.290908 0.139787
O15   O     O_R   0.893111 0.449704 0.247015 -0.316942
O16   O     O_R   0.812759 0.319562 0.230495 -0.317051
O17   O     O_3   0.279622 0.389336 0.315674 -0.572417
C37   C     C_3   0.267929 0.441084 0.219537 -0.224086
H11   H     H_    0.288690 0.523227 0.237211 0.155570
H12   H     H_    0.211988 0.438654 0.192184 0.171689
H13   H     H_    0.295653 0.400360 0.145944 0.203978
O18   O     O_3   0.719054 0.610333 0.684990 -0.561688
C38   C     C_3   0.731471 0.718882 0.692753 -0.272040
H14   H     H_    0.718002 0.746892 0.609662 0.137833
H15   H     H_    0.786176 0.741290 0.721256 0.187974
H16   H     H_    0.698104 0.759153 0.758963 0.212039
O19   O     O_3   0.402290 0.812504 0.406907 -0.601836
C39   C     C_3   0.414321 0.787908 0.287988 -0.208996
H17   H     H_    0.375184 0.727418 0.247946 0.178087
H18   H     H_    0.466252 0.755747 0.271875 0.223759
H19   H     H_    0.408438 0.856838 0.243452 0.173308
O20   O     O_3   0.597461 0.187135 0.591776 -0.600643
C40   C     C_3   0.585713 0.212761 0.710712 -0.193020
H20   H     H_    0.533186 0.242670 0.727064 0.221236
H21   H     H_    0.623841 0.275340 0.749339 0.193746
H22   H     H_    0.593486 0.144933 0.756446 0.167676
O21   O     O_3   0.425483 0.385932 0.778962 -0.538693
C41   C     C_3   0.358423 0.424387 0.798210 -0.170476
H23   H     H_    0.322556 0.387384 0.726216 0.192047
H24   H     H_    0.356853 0.510510 0.801602 0.129477
H25   H     H_    0.338098 0.403865 0.879010 0.169892
O22   O     O_3   0.574472 0.614154 0.221196 -0.542809
C42   C     C_3   0.641534 0.575447 0.202610 -0.161216
H26   H     H_    0.662127 0.595577 0.121843 0.184838
H27   H     H_    0.642992 0.489350 0.199603 0.133438
H28   H     H_    0.677267 0.612605 0.274728 0.182984

loop_
_geom_bond_atom_site_label_1
_geom_bond_atom_site_label_2
_geom_bond_distance
_ccdc_geom_bond_type
N8    O12   1.300229 A    
N7    O10   1.301477 A    
C42   H26   1.107546 S    
C13   C15   1.409206 A    
O21   C41   1.415971 S    
C37   H13   1.108276 S    
O17   C37   1.411565 S    
C38   H14   1.114473 S    
C21   C23   1.384575 A    
C9    C18   1.469900 S    
O19   C39   1.413791 S    
O5    C3    1.304450 A    
C10   C17   1.469693 S    
O1    C1    1.292495 A    
C7    C9    1.414479 A    
C37   H12   1.111712 S    
C39   H18   1.109915 S    
C33   C35   1.431193 A    
C6    C16   1.401554 A    
C41   H25   1.107718 S    
O4    Cu1   1.961934 S    
N5    C32   1.354440 A    
C19   C24   1.394281 A    
N9    O14   1.301410 A    
Cu1   N5    2.024979 S    
Cu2   N6    2.024981 S    
C41   H24   1.113677 S    
N1    N3    1.330047 A    
C11   C13   1.398880 A    
N6    C31   1.354261 A    
O6    C4    1.304205 A    
C22   C24   1.383611 A    
N8    O11   1.301562 A    
O2    Cu2   1.967212 S    
C35   C36   1.417414 A    
C42   H27   1.113758 S    
Cu1   Cu2   2.695243 S    
O2    C2    1.292450 A    
C13   O17   1.384342 S    
C38   H15   1.111081 S    
C29   C36   1.427220 A    
C26   C28   1.406321 A    
C5    C15   1.401647 A    
C30   C35   1.427451 A    
C29   C31   1.402810 A    
C22   C27   1.402042 A    
C30   C32   1.402937 A    
C25   O20   1.387819 S    
N2    C17   1.356933 A    
C37   H11   1.113985 S    
C20   C23   1.395231 A    
N10   O16   1.301412 A    
C40   H20   1.110416 S    
O7    Cu2   1.933919 S    
C39   H17   1.109386 S    
N10   O15   1.301393 A    
C27   C28   1.422821 A    
C33   O22   1.382473 S    
C39   H19   1.108952 S    
N2    N4    1.329686 A    
C5    C7    1.400211 A    
C34   O21   1.382480 S    
C40   H21   1.109707 S    
C25   C27   1.405547 A    
C6    C8    1.400476 A    
C41   H23   1.109171 S    
C2    C19   1.445644 S    
N5    C34   1.374558 A    
O7    C3    1.297681 A    
O3    Cu2   1.961934 S    
O8    C4    1.297655 A    
C21   C28   1.402536 A    
O4    C2    1.297480 A    
C21   H7    1.081652 S    
C8    C10   1.414550 A    
C42   H28   1.109235 S    
C9    C11   1.401507 A    
C10   C12   1.401403 A    
C7    N9    1.438092 S    
O1    Cu1   1.967213 S    
C26   O19   1.387713 S    
C38   H16   1.109205 S    
C5    H1    1.082108 S    
O6    Cu2   1.945305 S    
C4    C16   1.470284 S    
N1    C18   1.357220 A    
C12   C14   1.399512 A    
C12   H4    1.083392 S    
O18   C38   1.410651 S    
O3    C1    1.297115 A    
O8    Cu1   1.933922 S    
C30   N8    1.436569 S    
C19   C26   1.405629 A    
C14   C16   1.408767 A    
C20   C25   1.405301 A    
C40   H22   1.109201 S    
C29   N7    1.436760 S    
O20   C40   1.413960 S    
C22   H8    1.081477 S    
O22   C42   1.416074 S    
N3    C17   1.356477 A    
C23   H6    1.084215 S    
N4    C18   1.356324 A    
C24   H5    1.082146 S    
C11   H3    1.083484 S    
N9    O13   1.301404 A    
C14   O18   1.385361 S    
N6    C33   1.374676 A    
N7    O9    1.300083 A    
O5    Cu1   1.945305 S    
C31   H10   1.081668 S    
C3    C15   1.470707 S    
C6    H2    1.082206 S    
C32   H9    1.081746 S    
C8    N10   1.438063 S    
C1    C20   1.445273 S    
C34   C36   1.431082 A    
