data_mof_unit_47808.cif
_audit_creation_date              2012-12-10T17:10:22-0500
_audit_creation_method            fapswitch 2.2
_symmetry_space_group_name_H-M    P1
_symmetry_Int_Tables_number       1
_space_group_crystal_system       triclinic
_cell_length_a                    10.742201
_cell_length_b                    12.99238
_cell_length_c                    11.625444
_cell_angle_alpha                 100.440053
_cell_angle_beta                  92.769151
_cell_angle_gamma                 89.968718
_cell_volume                      1593.74575798

loop_
_atom_site_label
_atom_site_type_symbol
_atom_type_description
_atom_site_fract_x
_atom_site_fract_y
_atom_site_fract_z
_atom_type_partial_charge
C1    C     C_R   0.493655 0.298910 0.477964 0.814908
C2    C     C_R   0.506347 0.701091 0.522037 0.814926
C3    C     C_R   0.515795 0.814905 0.535531 -0.060943
C4    C     C_R   0.484201 0.185096 0.464476 -0.060917
C5    C     C_R   0.409503 0.014472 0.363979 -0.190452
C6    C     C_R   0.590472 0.985534 0.636037 -0.190449
C7    C     C_R   0.416723 0.122633 0.368774 0.172448
C8    C     C_R   0.583241 0.877376 0.631254 0.172467
C9    C     C_R   0.540892 0.138548 0.552900 -0.309905
C10   C     C_R   0.459116 0.861452 0.447099 -0.309902
C11   C     C_R   0.532953 0.031178 0.547532 0.127099
C12   C     C_R   0.467044 0.968824 0.452472 0.127100
C13   C     C_R   0.367464 0.417356 0.024786 -0.347551
C14   C     C_R   0.632535 0.582645 0.975213 -0.347541
C15   C     C_R   0.382045 0.423400 0.146505 0.076262
C16   C     C_R   0.617953 0.576602 0.853495 0.076256
C17   C     C_R   0.559586 0.533344 0.155385 0.005161
C18   C     C_R   0.440414 0.466655 0.844615 0.005155
C19   C     C_R   0.548774 0.529370 0.033004 0.069072
C20   C     C_R   0.451226 0.470630 0.966996 0.069074
C21   C     C_R   0.262203 0.513471 0.503351 0.824584
C22   C     C_R   0.737797 0.486524 0.496649 0.824583
C23   C     C_R   0.120365 0.539751 0.724127 -0.142516
C24   C     C_R   0.879643 0.460227 0.275872 -0.142518
C25   C     C_R   0.067892 0.506633 0.818451 -0.223766
C26   C     C_R   0.932128 0.493334 0.181547 -0.223760
C27   C     C_R   0.962473 0.442859 0.799941 -0.154910
C28   C     C_R   0.037546 0.557111 0.200058 -0.154917
C29   C     C_R   0.902239 0.419165 0.688626 0.226890
C30   C     C_R   0.097764 0.580819 0.311378 0.226907
C31   C     C_R   0.945457 0.466290 0.595777 0.069309
C32   C     C_R   0.054543 0.533695 0.404225 0.069303
C33   C     C_R   0.065275 0.512384 0.609658 0.041121
C34   C     C_R   0.934726 0.487599 0.390342 0.041122
C35   C     C_R   0.874137 0.469606 0.490733 -0.225917
C36   C     C_R   0.125862 0.530381 0.509268 -0.225915
Cu1   Cu    Cu3+1 0.509250 0.507730 0.615930 0.920934
Cu2   Cu    Cu3+1 0.490750 0.492270 0.384070 0.920937
H1    H     H_    0.071382 0.589617 0.127828 0.135494
H2    H     H_    0.928646 0.410345 0.872170 0.135491
H3    H     H_    0.291166 0.371738 0.976493 0.144001
H4    H     H_    0.708834 0.628262 0.023507 0.144003
H5    H     H_    0.202020 0.589706 0.742563 0.163100
H6    H     H_    0.797986 0.410275 0.257437 0.163095
H7    H     H_    0.112235 0.526841 0.905259 0.142734
H8    H     H_    0.887796 0.473116 0.094735 0.142736
H9    H     H_    0.408210 0.813869 0.373564 0.163004
H10   H     H_    0.591807 0.186131 0.626430 0.163004
H11   H     H_    0.358281 0.965671 0.291501 0.134756
H12   H     H_    0.641676 0.034341 0.708522 0.134755
H13   H     H_    0.366600 0.420835 0.792663 0.136617
H14   H     H_    0.633402 0.579163 0.207336 0.136614
H15   H     H_    0.683466 0.617306 0.809587 0.139194
H16   H     H_    0.316530 0.382697 0.190414 0.139195
N1    N     N_R   0.523180 0.519350 0.790130 -0.186254
N2    N     N_R   0.476820 0.480650 0.209870 -0.186252
O1    O     O_R   0.506570 0.354460 0.582000 -0.589877
O2    O     O_R   0.493430 0.645540 0.418000 -0.589877
O3    O     O_R   0.490940 0.341410 0.386200 -0.581771
O4    O     O_R   0.509060 0.658590 0.613800 -0.581773
O5    O     O_R   0.327470 0.506520 0.597900 -0.590593
O6    O     O_R   0.672530 0.493480 0.402100 -0.590588
O7    O     O_R   0.311840 0.493460 0.402100 -0.575701
O8    O     O_R   0.688160 0.506540 0.597900 -0.575696
C37   C     C_3   0.804586 0.333561 0.670162 -0.849572
H17   H     H_    0.843788 0.263121 0.699823 0.211383
H18   H     H_    0.722908 0.359531 0.722588 0.255003
H19   H     H_    0.774303 0.309041 0.576669 0.215414
C38   C     C_3   0.195399 0.666438 0.329854 -0.849574
H20   H     H_    0.156187 0.736872 0.300188 0.211387
H21   H     H_    0.225666 0.690964 0.423351 0.215407
H22   H     H_    0.277093 0.640485 0.277443 0.255003
C39   C     C_3   0.651454 0.831364 0.726322 -0.851772
H23   H     H_    0.708604 0.891144 0.786692 0.217171
H24   H     H_    0.583586 0.798908 0.779587 0.245033
H25   H     H_    0.715412 0.769008 0.686913 0.230768
C40   C     C_3   0.348448 0.168666 0.273756 -0.851789
H26   H     H_    0.291216 0.108906 0.213445 0.217187
H27   H     H_    0.284559 0.231054 0.313223 0.230777
H28   H     H_    0.416282 0.201089 0.220431 0.245023

loop_
_geom_bond_atom_site_label_1
_geom_bond_atom_site_label_2
_ccdc_geom_bond_type
C27   C29   A    
C39   H23   S    
C19   C20   A    
Cu1   O8    S    
C13   H3    S    
C21   C36   S    
C40   H26   S    
C22   C35   S    
C32   C36   A    
C24   C26   A    
C1    O3    A    
C2    O4    A    
C33   C36   A    
C23   H5    S    
C34   C35   A    
C38   H21   S    
C16   H15   S    
Cu2   O2    S    
C37   H18   S    
C31   C33   A    
C21   O5    A    
C7    C40   S    
C39   H24   S    
C5    H11   S    
C4    C7    A    
C17   H14   S    
C18   H13   S    
C40   H27   S    
C15   H16   S    
C5    C12   A    
C3    C8    A    
C6    C11   A    
C5    C7    A    
C6    C8    A    
C28   H1    S    
C23   C33   A    
C24   C34   A    
C32   C34   A    
C38   H22   S    
Cu1   Cu2   S    
C1    O1    A    
C22   O6    A    
C27   H2    S    
C37   H19   S    
C6    H12   S    
C9    C11   A    
C17   N2    A    
C10   C12   A    
C18   N1    A    
C29   C37   S    
C13   C15   A    
C24   H6    S    
C39   H25   S    
C14   C16   A    
C25   H7    S    
C30   C38   S    
Cu2   O7    S    
C40   H28   S    
C13   C20   A    
C14   C19   A    
Cu1   O5    S    
C11   C12   A    
C2    O2    A    
C25   C27   A    
C26   C28   A    
C14   H4    S    
C1    C4    S    
C15   N2    A    
C28   C30   A    
C2    C3    S    
C16   N1    A    
C29   C31   A    
C3    C10   A    
C30   C32   A    
C31   C35   A    
C8    C39   S    
C17   C19   A    
C18   C20   A    
C23   C25   A    
C38   H20   S    
C21   O7    A    
Cu1   O4    S    
C26   H8    S    
C22   O8    A    
Cu2   O3    S    
Cu1   N1    S    
Cu2   N2    S    
C9    H10   S    
C37   H17   S    
C10   H9    S    
C4    C9    A    
Cu1   O1    S    
Cu2   O6    S    
