data_mof_unit_61278.cif
_audit_creation_date              2013-03-05T15:58:22-0500
_audit_creation_method            fapswitch 2.2
_symmetry_space_group_name_H-M    P1
_symmetry_Int_Tables_number       1
_space_group_crystal_system       triclinic
_cell_length_a                    21.810932
_cell_length_b                    21.811185
_cell_length_c                    35.658095
_cell_angle_alpha                 90.002768
_cell_angle_beta                  89.888809
_cell_angle_gamma                 90.000243
_cell_volume                      16963.3180368

loop_
_atom_site_label
_atom_site_type_symbol
_atom_site_description
_atom_site_fract_x
_atom_site_fract_y
_atom_site_fract_z
_atom_type_partial_charge
O1    O     O_R   0.447910 0.909920 0.999900 -0.547294
O2    O     O_R   0.090080 0.447910 0.999900 -0.553456
O3    O     O_R   0.552090 0.090080 0.999900 -0.547010
O4    O     O_R   0.909920 0.552090 0.999900 -0.553584
O5    O     O_R   0.447910 0.090080 0.000100 -0.547011
O6    O     O_R   0.090080 0.552090 0.000100 -0.553588
O7    O     O_R   0.552090 0.909920 0.000100 -0.547293
O8    O     O_R   0.909920 0.447910 0.000100 -0.553458
O9    O     O_R   0.947910 0.409920 0.499900 -0.553528
O10   O     O_R   0.590080 0.947910 0.499900 -0.547964
O11   O     O_R   0.052090 0.590080 0.499900 -0.553069
O12   O     O_R   0.409920 0.052090 0.499900 -0.547550
O13   O     O_R   0.947910 0.590080 0.500100 -0.552997
O14   O     O_R   0.590080 0.052090 0.500100 -0.547711
O15   O     O_R   0.052090 0.409920 0.500100 -0.553539
O16   O     O_R   0.409920 0.947910 0.500100 -0.547795
C1    C     C_R   0.500000 0.881481 0.000000 0.883498
C2    C     C_R   0.118357 0.499998 0.000011 0.906039
C3    C     C_R   0.500000 0.118518 1.000000 0.884413
C4    C     C_R   0.881642 0.499998 0.999989 0.906031
C5    C     C_R   1.000000 0.381635 0.499997 0.905127
C6    C     C_R   0.618506 0.999998 0.500008 0.886868
C7    C     C_R   1.000000 0.618364 0.500003 0.905729
C8    C     C_R   0.381491 0.999997 0.499994 0.885832
O17   O     O_R   0.447910 0.000100 0.945520 -0.572449
O18   O     O_R   0.999900 0.447910 0.945520 -0.576954
O19   O     O_R   0.552090 0.999900 0.945520 -0.573504
O20   O     O_R   0.000100 0.552090 0.945520 -0.576453
O21   O     O_R   0.447910 0.999900 0.054480 -0.573507
O22   O     O_R   0.999900 0.552090 0.054480 -0.576457
O23   O     O_R   0.552090 0.000100 0.054480 -0.572447
O24   O     O_R   0.000100 0.447910 0.054480 -0.576948
O25   O     O_R   0.947910 0.500100 0.445520 -0.576271
O26   O     O_R   0.499900 0.947910 0.445520 -0.573312
O27   O     O_R   0.052090 0.499900 0.445520 -0.576972
O28   O     O_R   0.500100 0.052090 0.445520 -0.572527
O29   O     O_R   0.947910 0.499900 0.554480 -0.577037
O30   O     O_R   0.499900 0.052090 0.554480 -0.572397
O31   O     O_R   0.052090 0.500100 0.554480 -0.576272
O32   O     O_R   0.500100 0.947910 0.554480 -0.573434
C9    C     C_R   0.530845 0.783057 0.028594 0.306073
C10   C     C_R   0.215950 0.534867 0.026831 0.273898
C11   C     C_R   0.469140 0.216943 0.028660 0.304925
C12   C     C_R   0.783887 0.465000 0.026737 0.272500
C13   C     C_R   0.530858 0.216937 0.971338 0.304930
C14   C     C_R   0.216113 0.464999 0.973261 0.272499
C15   C     C_R   0.469152 0.783052 0.971409 0.306065
C16   C     C_R   0.784050 0.534866 0.973170 0.273894
C17   C     C_R   0.035120 0.283941 0.526650 0.274018
C18   C     C_R   0.716797 0.029934 0.529025 0.305562
C19   C     C_R   0.964759 0.716064 0.526671 0.272855
C20   C     C_R   0.282971 0.969679 0.528798 0.304481
C21   C     C_R   0.035212 0.716055 0.473304 0.272805
C22   C     C_R   0.717020 0.969951 0.471097 0.304294
C23   C     C_R   0.964855 0.283934 0.473356 0.274084
C24   C     C_R   0.283197 0.030198 0.471079 0.305767
C25   C     C_R   0.500079 0.999929 0.927692 0.859282
C26   C     C_R   0.999909 0.499974 0.927687 0.888111
C27   C     C_R   0.499921 0.999928 0.072307 0.859285
C28   C     C_R   0.000089 0.499976 0.072313 0.888107
C29   C     C_R   0.000076 0.499913 0.427687 0.887497
C30   C     C_R   0.499914 0.999972 0.427692 0.861416
C31   C     C_R   0.999924 0.499915 0.572313 0.887230
C32   C     C_R   0.500086 0.999974 0.572307 0.861399
Cu1   Cu    Cu3+1 0.438290 0.000000 0.000000 1.122492
Cu2   Cu    Cu3+1 0.000000 0.438290 0.000000 1.129996
Cu3   Cu    Cu3+1 0.561710 0.000000 0.000000 1.122492
Cu4   Cu    Cu3+1 0.000000 0.561710 0.000000 1.130148
Cu5   Cu    Cu3+1 0.938290 0.500000 0.500000 1.130326
Cu6   Cu    Cu3+1 0.500000 0.938290 0.500000 1.121089
Cu7   Cu    Cu3+1 0.061710 0.500000 0.500000 1.130261
Cu8   Cu    Cu3+1 0.500000 0.061710 0.500000 1.121981
C33   C     C_R   0.499998 0.686546 0.000002 -0.191434
C34   C     C_R   0.313048 0.499878 0.000075 -0.157120
C35   C     C_R   0.499998 0.313452 0.999998 -0.191189
C36   C     C_R   0.686952 0.499878 0.999925 -0.157119
C37   C     C_R   0.999980 0.186933 0.500008 -0.156777
C38   C     C_R   0.813415 0.999925 0.500089 -0.192522
C39   C     C_R   0.999980 0.813066 0.499987 -0.156389
C40   C     C_R   0.186574 0.999923 0.499908 -0.192160
C41   C     C_R   0.499999 0.814859 0.000001 -0.314114
C42   C     C_R   0.184788 0.499979 0.000025 -0.281047
C43   C     C_R   0.500000 0.185139 0.999999 -0.313980
C44   C     C_R   0.815212 0.499978 0.999975 -0.281047
C45   C     C_R   0.999997 0.315192 0.499998 -0.281276
C46   C     C_R   0.685102 0.999979 0.500038 -0.313707
C47   C     C_R   0.999995 0.684805 0.499993 -0.281176
C48   C     C_R   0.314887 0.999978 0.499963 -0.313776
C49   C     C_R   0.494872 0.943170 0.672721 0.318962
C50   C     C_R   0.054354 0.488809 0.673102 0.308772
C51   C     C_R   0.514757 0.053906 0.673064 0.312743
C52   C     C_R   0.942608 0.501824 0.672749 0.315747
C53   C     C_R   0.485306 0.053906 0.326936 0.312825
C54   C     C_R   0.057380 0.502029 0.327251 0.315650
C55   C     C_R   0.505077 0.943150 0.327277 0.318896
C56   C     C_R   0.945679 0.488629 0.326899 0.308733
C57   C     C_R   0.998282 0.442893 0.172725 0.315779
C58   C     C_R   0.553603 0.985433 0.173070 0.312890
C59   C     C_R   0.011512 0.554613 0.173105 0.308648
C60   C     C_R   0.442891 0.005452 0.172736 0.318787
C61   C     C_R   0.988527 0.554609 0.826896 0.308658
C62   C     C_R   0.557112 0.005471 0.827265 0.318766
C63   C     C_R   0.001666 0.442878 0.827274 0.315815
C64   C     C_R   0.446401 0.985442 0.826928 0.312891
C65   C     C_R   0.492488 0.944770 0.633459 -0.173356
C66   C     C_R   0.054286 0.491562 0.633790 -0.165926
C67   C     C_R   0.511836 0.053919 0.633752 -0.165574
C68   C     C_R   0.944160 0.504216 0.633483 -0.173157
C69   C     C_R   0.488223 0.053921 0.366248 -0.165794
C70   C     C_R   0.055822 0.504406 0.366518 -0.173051
C71   C     C_R   0.507461 0.944753 0.366539 -0.173162
C72   C     C_R   0.945739 0.491383 0.366212 -0.165945
C73   C     C_R   0.995789 0.444372 0.133467 -0.173270
C74   C     C_R   0.553700 0.988248 0.133754 -0.166567
C75   C     C_R   0.008654 0.554473 0.133796 -0.165295
C76   C     C_R   0.444574 0.007722 0.133466 -0.173404
C77   C     C_R   0.991385 0.554470 0.866205 -0.165303
C78   C     C_R   0.555427 0.007735 0.866536 -0.173386
C79   C     C_R   0.004161 0.444359 0.866532 -0.173270
C80   C     C_R   0.446302 0.988252 0.866244 -0.166586
H1    H     H_    0.484426 0.902586 0.618222 0.217717
H2    H     H_    0.097200 0.486698 0.618753 0.217394
H3    H     H_    0.519334 0.096389 0.618690 0.218915
H4    H     H_    0.901583 0.509571 0.618253 0.216376
H5    H     H_    0.480768 0.096400 0.381310 0.218866
H6    H     H_    0.098380 0.509908 0.381748 0.216483
H7    H     H_    0.515478 0.902562 0.381776 0.217700
H8    H     H_    0.902843 0.486368 0.381249 0.217498
H9    H     H_    0.990316 0.401773 0.118232 0.216391
H10   H     H_    0.596196 0.980662 0.118691 0.218882
H11   H     H_    0.013568 0.597343 0.118766 0.217413
H12   H     H_    0.402433 0.015797 0.118226 0.217790
H13   H     H_    0.986507 0.597346 0.881236 0.217390
H14   H     H_    0.597566 0.015813 0.881776 0.217795
H15   H     H_    0.009599 0.401757 0.881766 0.216369
H16   H     H_    0.403807 0.980661 0.881306 0.218882
C81   C     C_R   0.501069 0.999689 0.613748 -0.140623
C82   C     C_R   0.999554 0.498953 0.613768 -0.126470
C83   C     C_R   0.498933 0.999682 0.386252 -0.140572
C84   C     C_R   0.000447 0.498955 0.386233 -0.126635
C85   C     C_R   0.001109 0.499714 0.113765 -0.126137
C86   C     C_R   0.499524 0.999021 0.113749 -0.141118
C87   C     C_R   0.998886 0.499707 0.886235 -0.126099
C88   C     C_R   0.500477 0.999027 0.886250 -0.141121
C89   C     C_R   0.505593 0.998204 0.692711 -0.128397
C90   C     C_R   0.998150 0.494599 0.692740 -0.129630
C91   C     C_R   0.494413 0.998193 0.307288 -0.128393
C92   C     C_R   0.001862 0.494614 0.307261 -0.129682
C93   C     C_R   0.005669 0.498456 0.192727 -0.129689
C94   C     C_R   0.497874 0.994718 0.192723 -0.128482
C95   C     C_R   0.994324 0.498446 0.807273 -0.129665
C96   C     C_R   0.502130 0.994734 0.807276 -0.128490
C97   C     C_1   0.503552 0.997940 0.733117 0.209704
C98   C     C_1   0.997686 0.496827 0.733131 0.210921
C99   C     C_1   0.496454 0.997924 0.266882 0.209744
C100  C     C_1   0.002318 0.496842 0.266870 0.210875
C101  C     C_1   0.003514 0.498053 0.233122 0.210851
C102  C     C_1   0.497548 0.996823 0.233126 0.209690
C103  C     C_1   0.996484 0.498039 0.766879 0.210893
C104  C     C_1   0.502458 0.996841 0.766873 0.209661
Cu9   Cu    Cu3+1 0.500000 0.500000 0.037160 0.967795
Cu10  Cu    Cu3+1 0.500000 0.500000 0.962840 0.967799
Cu11  Cu    Cu3+1 1.000000 0.000000 0.537160 0.967980
Cu12  Cu    Cu3+1 1.000000 1.000000 0.462840 0.967917
C105  C     C_R   0.537254 0.719080 0.026142 0.030782
C106  C     C_R   0.280310 0.534697 0.027695 0.005697
C107  C     C_R   0.462743 0.280922 0.026228 0.030492
C108  C     C_R   0.719520 0.465046 0.027543 0.006273
C109  C     C_R   0.537253 0.280918 0.973768 0.030482
C110  C     C_R   0.280480 0.465046 0.972455 0.006279
C111  C     C_R   0.462742 0.719075 0.973862 0.030783
C112  C     C_R   0.719689 0.534696 0.972306 0.005698
C113  C     C_R   0.035061 0.219578 0.527461 0.006163
C114  C     C_R   0.780762 0.036573 0.526581 0.031380
C115  C     C_R   0.964810 0.780427 0.527478 0.006028
C116  C     C_R   0.219031 0.963067 0.526302 0.031418
C117  C     C_R   0.035122 0.780422 0.472479 0.005858
C118  C     C_R   0.780949 0.963249 0.473605 0.031766
C119  C     C_R   0.964883 0.219569 0.472563 0.006229
C120  C     C_R   0.219221 0.036746 0.473506 0.030998
O33   O     O_R   0.409810 0.500100 0.031350 -0.592228
O34   O     O_R   0.499900 0.409810 0.031350 -0.584426
O35   O     O_R   0.590190 0.499900 0.031350 -0.592342
O36   O     O_R   0.500100 0.590190 0.031350 -0.584289
O37   O     O_R   0.409810 0.499900 0.968650 -0.592342
O38   O     O_R   0.499900 0.590190 0.968650 -0.584283
O39   O     O_R   0.590190 0.500100 0.968650 -0.592226
O40   O     O_R   0.500100 0.409810 0.968650 -0.584432
O41   O     O_R   0.909810 0.000100 0.531350 -0.584365
O42   O     O_R   0.999900 0.909810 0.531350 -0.592374
O43   O     O_R   0.090190 0.999900 0.531350 -0.584357
O44   O     O_R   0.000100 0.090190 0.531350 -0.592253
O45   O     O_R   0.909810 0.999900 0.468650 -0.584382
O46   O     O_R   0.999900 0.090190 0.468650 -0.592250
O47   O     O_R   0.090190 0.000100 0.468650 -0.584388
O48   O     O_R   0.000100 0.909810 0.468650 -0.592406
C121  C     C_R   0.380600 0.499952 0.000029 0.833581
C122  C     C_R   0.500000 0.380748 0.999999 0.791433
C123  C     C_R   0.619400 0.499952 0.999971 0.833585
C124  C     C_R   0.500000 0.619251 0.000001 0.791693
C125  C     C_R   0.880734 0.999996 0.500032 0.791536
C126  C     C_R   0.999995 0.880607 0.499997 0.833896
C127  C     C_R   0.119262 0.999996 0.499968 0.791552
C128  C     C_R   0.999993 0.119392 0.500002 0.834210
C129  C     C_3   0.585570 0.687557 0.050683 -0.349866
C130  C     C_3   0.649883 0.714669 0.045407 -0.721496
H17   H     H_    0.656940 0.730445 0.016116 0.250687
H18   H     H_    0.657423 0.753559 0.064835 0.306434
H19   H     H_    0.685139 0.679486 0.051937 0.237832
H20   H     H_    0.571994 0.690654 0.080651 0.255647
H21   H     H_    0.590873 0.638394 0.044230 0.206404
C131  C     C_3   0.312218 0.572372 0.058220 -0.304085
C132  C     C_3   0.340654 0.630774 0.042395 -0.740483
H22   H     H_    0.373789 0.620172 0.019814 0.228802
H23   H     H_    0.304076 0.660805 0.031006 0.270116
H24   H     H_    0.365063 0.655855 0.064978 0.255468
H25   H     H_    0.280267 0.586508 0.080812 0.250782
H26   H     H_    0.346174 0.544980 0.073927 0.222825
C133  C     C_3   0.414443 0.312459 0.050894 -0.350244
C134  C     C_3   0.350131 0.285317 0.045819 -0.719455
H27   H     H_    0.343044 0.269468 0.016563 0.250355
H28   H     H_    0.342623 0.246472 0.065302 0.306990
H29   H     H_    0.314873 0.320507 0.052419 0.237945
H30   H     H_    0.428064 0.309410 0.080823 0.255645
H31   H     H_    0.409115 0.361611 0.044433 0.206375
C135  C     C_3   0.687423 0.427201 0.057994 -0.304944
C136  C     C_3   0.659095 0.368887 0.042046 -0.740794
H32   H     H_    0.626109 0.379622 0.019487 0.228791
H33   H     H_    0.695750 0.338924 0.030593 0.270155
H34   H     H_    0.634538 0.343680 0.064573 0.255045
H35   H     H_    0.719224 0.412933 0.080556 0.250450
H36   H     H_    0.653370 0.454487 0.073771 0.222620
C137  C     C_3   0.585550 0.312451 0.949099 -0.350254
C138  C     C_3   0.649864 0.285311 0.954172 -0.719425
H37   H     H_    0.656952 0.269463 0.983428 0.250356
H38   H     H_    0.657371 0.246466 0.934688 0.306993
H39   H     H_    0.685120 0.320502 0.947574 0.237940
H40   H     H_    0.571927 0.309396 0.919171 0.255643
H41   H     H_    0.590878 0.361604 0.955559 0.206377
C139  C     C_3   0.312576 0.427201 0.942002 -0.304941
C140  C     C_3   0.340905 0.368887 0.957947 -0.740805
H42   H     H_    0.373892 0.379622 0.980506 0.228795
H43   H     H_    0.304250 0.338924 0.969398 0.270155
H44   H     H_    0.365461 0.343680 0.935418 0.255041
H45   H     H_    0.280775 0.412932 0.919439 0.250447
H46   H     H_    0.346629 0.454487 0.926226 0.222621
C141  C     C_3   0.414423 0.687547 0.949322 -0.349860
C142  C     C_3   0.350111 0.714662 0.954600 -0.721486
H47   H     H_    0.343056 0.730441 0.983891 0.250682
H48   H     H_    0.342572 0.753549 0.935173 0.306437
H49   H     H_    0.314854 0.679479 0.948070 0.237840
H50   H     H_    0.427997 0.690639 0.919355 0.255654
H51   H     H_    0.409119 0.638386 0.955777 0.206400
C143  C     C_3   0.687781 0.572371 0.941784 -0.304084
C144  C     C_3   0.659345 0.630772 0.957612 -0.740487
H52   H     H_    0.626209 0.620169 0.980192 0.228805
H53   H     H_    0.695922 0.660803 0.969004 0.270112
H54   H     H_    0.634936 0.655852 0.935030 0.255467
H55   H     H_    0.719733 0.586507 0.919193 0.250777
H56   H     H_    0.653827 0.544978 0.926074 0.222827
C145  C     C_3   0.073178 0.187549 0.557724 -0.304621
C146  C     C_3   0.131387 0.159272 0.541500 -0.741988
H57   H     H_    0.120485 0.126234 0.518973 0.228530
H58   H     H_    0.161201 0.195942 0.529929 0.270231
H59   H     H_    0.156828 0.134787 0.563899 0.255117
H60   H     H_    0.087586 0.219389 0.580255 0.250587
H61   H     H_    0.046055 0.153461 0.573569 0.222909
C147  C     C_3   0.812099 0.084571 0.551465 -0.349214
C148  C     C_3   0.784546 0.148803 0.546843 -0.721731
H62   H     H_    0.769457 0.156668 0.517521 0.249843
H63   H     H_    0.745104 0.155395 0.566033 0.306762
H64   H     H_    0.819266 0.184116 0.554136 0.238842
H65   H     H_    0.809265 0.070369 0.581319 0.256249
H66   H     H_    0.861179 0.090364 0.544878 0.206614
C149  C     C_3   0.926550 0.812464 0.557762 -0.305174
C150  C     C_3   0.868408 0.840715 0.541572 -0.740837
H67   H     H_    0.879420 0.873821 0.519080 0.228130
H68   H     H_    0.838702 0.804044 0.529965 0.270197
H69   H     H_    0.842804 0.865119 0.563997 0.255638
H70   H     H_    0.912044 0.780628 0.580305 0.250926
H71   H     H_    0.953589 0.846579 0.573577 0.222838
C151  C     C_3   0.187487 0.914914 0.551049 -0.349881
C152  C     C_3   0.214987 0.850682 0.546236 -0.721130
H72   H     H_    0.230537 0.843127 0.516937 0.250181
H73   H     H_    0.254103 0.843793 0.565543 0.306954
H74   H     H_    0.180087 0.815349 0.553244 0.238383
H75   H     H_    0.190165 0.928887 0.580944 0.255631
H76   H     H_    0.138434 0.909246 0.544459 0.206461
C153  C     C_3   0.073242 0.812451 0.442127 -0.305080
C154  C     C_3   0.131437 0.840755 0.458213 -0.740354
H77   H     H_    0.120509 0.873839 0.480734 0.228232
H78   H     H_    0.161241 0.804110 0.469752 0.270271
H79   H     H_    0.156899 0.865196 0.435745 0.255546
H80   H     H_    0.087660 0.780603 0.419568 0.250849
H81   H     H_    0.046113 0.846527 0.426341 0.222721
C155  C     C_3   0.812459 0.915171 0.448783 -0.349723
C156  C     C_3   0.784807 0.850975 0.453431 -0.721643
H82   H     H_    0.769489 0.843173 0.482752 0.249981
H83   H     H_    0.745504 0.844390 0.434227 0.307012
H84   H     H_    0.819548 0.815618 0.446176 0.238652
H85   H     H_    0.809903 0.929313 0.418915 0.255730
H86   H     H_    0.861476 0.909349 0.455426 0.206486
C157  C     C_3   0.926677 0.187525 0.442345 -0.304646
C158  C     C_3   0.868497 0.159292 0.458639 -0.742054
H87   H     H_    0.879448 0.126267 0.481163 0.228360
H88   H     H_    0.838734 0.195985 0.470235 0.270216
H89   H     H_    0.842979 0.134800 0.436273 0.255159
H90   H     H_    0.912223 0.219346 0.419818 0.250622
H91   H     H_    0.953739 0.153404 0.426488 0.222941
C159  C     C_3   0.187851 0.084801 0.448680 -0.349372
C160  C     C_3   0.215259 0.149071 0.453440 -0.721168
H92   H     H_    0.230639 0.156702 0.482729 0.250100
H93   H     H_    0.254476 0.155960 0.434116 0.306687
H94   H     H_    0.180365 0.184358 0.446415 0.238495
H95   H     H_    0.190803 0.070736 0.418804 0.256099
H96   H     H_    0.138739 0.090449 0.455215 0.206596
N1    N     N_R   0.486054 0.885421 0.691648 0.156416
O49   O     O_R   0.452640 0.842818 0.676338 -0.272212
O50   O     O_R   0.516444 0.872436 0.721995 -0.282613
N2    N     N_R   0.111747 0.480259 0.692408 0.147033
O51   O     O_R   0.162754 0.498607 0.677083 -0.287870
O52   O     O_R   0.114374 0.448494 0.723255 -0.293070
N3    N     N_R   0.526948 0.110700 0.692355 0.147289
O53   O     O_R   0.511820 0.162717 0.677065 -0.287120
O54   O     O_R   0.558892 0.111414 0.723138 -0.284410
N4    N     N_R   0.884372 0.507052 0.691678 0.153899
O55   O     O_R   0.839774 0.537637 0.676298 -0.273074
O56   O     O_R   0.873263 0.476018 0.722110 -0.284790
N5    N     N_R   0.473177 0.110712 0.307645 0.147305
O57   O     O_R   0.488364 0.162714 0.322935 -0.287015
O58   O     O_R   0.441231 0.111457 0.276864 -0.284485
N6    N     N_R   0.115596 0.507466 0.308321 0.153967
O59   O     O_R   0.160083 0.538214 0.323702 -0.272968
O60   O     O_R   0.126815 0.476475 0.277887 -0.284841
N7    N     N_R   0.513835 0.885390 0.308349 0.156386
O61   O     O_R   0.547200 0.842753 0.323660 -0.272343
O62   O     O_R   0.483436 0.872435 0.278000 -0.282647
N8    N     N_R   0.888315 0.479879 0.307592 0.147026
O63   O     O_R   0.837244 0.498039 0.322921 -0.287880
O64   O     O_R   0.885799 0.448108 0.276743 -0.292904
N9    N     N_R   0.992987 0.384705 0.191637 0.153887
O65   O     O_R   0.962230 0.340155 0.176315 -0.273686
O66   O     O_R   0.024125 0.373574 0.221976 -0.284959
N10   N     N_R   0.610345 0.973224 0.192360 0.147138
O67   O     O_R   0.662408 0.988301 0.177028 -0.287095
O68   O     O_R   0.610966 0.941298 0.223186 -0.285294
N11   N     N_R   0.020223 0.612025 0.192422 0.147235
O69   O     O_R   0.001995 0.663046 0.177144 -0.287617
O70   O     O_R   0.052009 0.614639 0.223227 -0.292041
N12   N     N_R   0.385114 0.014396 0.191670 0.156461
O71   O     O_R   0.342569 0.047787 0.176295 -0.271301
O72   O     O_R   0.372049 0.984149 0.222109 -0.282442
N13   N     N_R   0.979865 0.612027 0.807581 0.147260
O73   O     O_R   0.998137 0.663034 0.822859 -0.287575
O74   O     O_R   0.948081 0.614665 0.776775 -0.292163
N14   N     N_R   0.614888 0.014423 0.808332 0.156479
O75   O     O_R   0.657429 0.047817 0.823711 -0.271275
O76   O     O_R   0.627958 0.984180 0.777891 -0.282389
N15   N     N_R   0.006911 0.384685 0.808360 0.153813
O77   O     O_R   0.037628 0.340110 0.823681 -0.273764
O78   O     O_R   0.975764 0.373578 0.778020 -0.284905
N16   N     N_R   0.389660 0.973230 0.807635 0.147125
O79   O     O_R   0.337596 0.988302 0.822968 -0.287112
O80   O     O_R   0.389043 0.941307 0.776806 -0.285258
N17   N     N_R   0.553306 0.815163 0.061024 0.112345
O81   O     O_R   0.598768 0.853514 0.058306 -0.337173
O82   O     O_R   0.530960 0.802511 0.093974 -0.333586
N18   N     N_R   0.181496 0.569847 0.053735 0.122249
O83   O     O_R   0.180407 0.629389 0.051658 -0.317364
O84   O     O_R   0.148587 0.542053 0.079010 -0.369775
N19   N     N_R   0.446631 0.184830 0.061126 0.113101
O85   O     O_R   0.401226 0.146417 0.058474 -0.334029
O86   O     O_R   0.468866 0.197532 0.094044 -0.333201
N20   N     N_R   0.818177 0.430024 0.053641 0.122675
O87   O     O_R   0.819357 0.370486 0.051523 -0.315683
O88   O     O_R   0.851029 0.457818 0.078869 -0.366833
N21   N     N_R   0.553369 0.184817 0.938873 0.113099
O89   O     O_R   0.598776 0.146409 0.941526 -0.334030
O90   O     O_R   0.531133 0.197510 0.905954 -0.333220
N22   N     N_R   0.181823 0.430022 0.946355 0.122672
O91   O     O_R   0.180642 0.370484 0.948472 -0.315689
O92   O     O_R   0.148970 0.457815 0.921129 -0.366811
N23   N     N_R   0.446692 0.815150 0.938978 0.112349
O93   O     O_R   0.401232 0.853504 0.941694 -0.337165
O94   O     O_R   0.469037 0.802489 0.906028 -0.333568
N24   N     N_R   0.818504 0.569845 0.946268 0.122252
O95   O     O_R   0.819593 0.629388 0.948348 -0.317367
O96   O     O_R   0.851415 0.542052 0.920992 -0.369766
N25   N     N_R   0.070243 0.318301 0.553447 0.122397
O97   O     O_R   0.129765 0.319555 0.551107 -0.317631
O98   O     O_R   0.042580 0.351071 0.578839 -0.369291
N26   N     N_R   0.684630 0.051260 0.561789 0.111484
O99   O     O_R   0.645285 0.095929 0.559609 -0.339359
O100  O     O_R   0.698024 0.028588 0.594502 -0.332668
N27   N     N_R   0.929512 0.681713 0.553491 0.122739
O101  O     O_R   0.870009 0.680324 0.551130 -0.315222
O102  O     O_R   0.957058 0.649044 0.578914 -0.366252
N28   N     N_R   0.314890 0.947984 0.561482 0.112696
O103  O     O_R   0.353964 0.903084 0.559164 -0.335292
O104  O     O_R   0.301439 0.970488 0.594263 -0.333177
N29   N     N_R   0.070472 0.681696 0.446489 0.122942
O105  O     O_R   0.129992 0.680603 0.448729 -0.315391
O106  O     O_R   0.042943 0.648737 0.421197 -0.366536
N30   N     N_R   0.685131 0.948633 0.438306 0.112472
O107  O     O_R   0.645723 0.904001 0.440454 -0.335917
O108  O     O_R   0.698878 0.971240 0.405598 -0.332979
N31   N     N_R   0.929736 0.318287 0.446556 0.122375
O109  O     O_R   0.870217 0.319587 0.448914 -0.317609
O110  O     O_R   0.957403 0.351047 0.421162 -0.369320
N32   N     N_R   0.315401 0.051902 0.438425 0.111717
O111  O     O_R   0.354389 0.096861 0.440775 -0.338650
O112  O     O_R   0.302334 0.029314 0.405639 -0.332953

loop_
_geom_bond_atom_site_label_1
_geom_bond_atom_site_label_2
_geom_bond_distance
_ccdc_geom_bond_type
C144  H53   1.109836 S    
O29   Cu5   1.954358 S    
C154  H79   1.110315 S    
C79   C87   1.401356 A    
C80   C88   1.401275 A    
C77   H13   1.082981 S    
C75   C85   1.401465 A    
Cu12  O47   1.978409 S    
C71   C83   1.401235 A    
C159  H96   1.102711 S    
C141  H50   1.110346 S    
O23   Cu3   1.953548 S    
C59   C93   1.416254 A    
C112  C143  1.532042 S    
C151  C152  1.533468 S    
N22   O92   1.301006 A    
C58   C74   1.403282 A    
O47   C127  1.285268 A    
C129  H21   1.102742 S    
O45   C125  1.285143 A    
C22   N30   1.438827 S    
C12   C108  1.404143 A    
O23   C27   1.302307 A    
Cu9   O34   1.978024 S    
C106  C131  1.532037 S    
C26   C87   1.478344 S    
C158  H89   1.110324 S    
C27   C86   1.477881 S    
C35   C109  1.426744 A    
C15   N23   1.438649 S    
N4    O55   1.301575 A    
C30   C83   1.477899 S    
C91   C99   1.441425 S    
O25   Cu5   1.953552 S    
O27   Cu7   1.954361 S    
C38   C118  1.426787 A    
C99   C102  1.204099 T    
C74   H10   1.083048 S    
C138  H38   1.107648 S    
C68   H4    1.083001 S    
O28   C30   1.302414 A    
C21   N29   1.436822 S    
N18   O83   1.301028 A    
N13   O74   1.301343 A    
C59   N11   1.441891 S    
N13   O73   1.301562 A    
O30   C32   1.302420 A    
C132  H23   1.109839 S    
N3    O53   1.301570 A    
C51   C67   1.403351 A    
N26   O100  1.300760 A    
O19   C25   1.301464 A    
N7    O62   1.301298 A    
C17   C113  1.404148 A    
C60   C94   1.415725 A    
C61   C95   1.416252 A    
C22   C118  1.405030 A    
C111  C141  1.533877 S    
C138  H39   1.111369 S    
N24   O96   1.300962 A    
C39   C115  1.432936 A    
C28   C85   1.478328 S    
C157  C158  1.524531 S    
C90   C98   1.441103 S    
O40   C122  1.285091 A    
C64   N16   1.441890 S    
O44   C128  1.286581 A    
C55   C91   1.415687 A    
N30   O107  1.300770 A    
C76   C86   1.401232 A    
C33   C105  1.426709 A    
C155  C156  1.533423 S    
C148  H63   1.107555 S    
N25   O97   1.301042 A    
C56   N8    1.441888 S    
N23   O93   1.300755 A    
C37   C128  1.473138 S    
O4    Cu4   1.975913 S    
C58   C94   1.416423 A    
C35   C122  1.467806 S    
C11   N19   1.438645 S    
C21   C117  1.404214 A    
C15   C111  1.405101 A    
O20   C26   1.302465 A    
C117  C153  1.532069 S    
C60   N12   1.441740 S    
O41   C125  1.285324 A    
C64   C96   1.416427 A    
Cu9   O36   1.978041 S    
C149  H70   1.107913 S    
C137  H41   1.102745 S    
C145  H60   1.107890 S    
N17   O81   1.300754 A    
C63   N15   1.441734 S    
C16   N24   1.436754 S    
C143  H55   1.107919 S    
C135  H36   1.104846 S    
O11   C7    1.292822 A    
C2    C42   1.448908 S    
C36   C108  1.433301 A    
Cu11  O42   1.978024 S    
C130  H18   1.107624 S    
C15   C41   1.405713 A    
N12   O71   1.301568 A    
C115  C149  1.532063 S    
N7    O61   1.301559 A    
O4    C4    1.292785 A    
C131  C132  1.524582 S    
O25   C29   1.302354 A    
C147  H66   1.102745 S    
N15   O77   1.301552 A    
O31   Cu7   1.953548 S    
O37   C121  1.286494 A    
C105  C129  1.533877 S    
C20   N28   1.438778 S    
C95   C103  1.441089 S    
N22   O91   1.301041 A    
C68   C82   1.401359 A    
C11   C43   1.405678 A    
C72   C84   1.401455 A    
O9    C5    1.292830 A    
N29   O105  1.301039 A    
C49   C89   1.415684 A    
C153  H81   1.104861 S    
C109  C137  1.533910 S    
O20   Cu4   1.953942 S    
C108  C135  1.532191 S    
C145  C146  1.524501 S    
Cu12  O46   1.978021 S    
C24   C48   1.405654 A    
C40   C127  1.468151 S    
N16   O79   1.301571 A    
O13   C7    1.292803 A    
C140  H42   1.105336 S    
C36   C112  1.433112 A    
C116  C151  1.533912 S    
N20   O87   1.301041 A    
C133  H30   1.110339 S    
C14   C42   1.398948 A    
C52   C68   1.401469 A    
O36   C124  1.285093 A    
O1    Cu1   1.975929 S    
C39   C117  1.433030 A    
C137  C138  1.533555 S    
C78   H14   1.083067 S    
C157  H91   1.104831 S    
C158  H88   1.109884 S    
C151  H75   1.110322 S    
C18   N26   1.438823 S    
C152  H74   1.111344 S    
C156  H83   1.107552 S    
C13   C43   1.405675 A    
O17   C25   1.302310 A    
C3    C43   1.453076 S    
C107  C133  1.533915 S    
C134  H27   1.110104 S    
N9    O66   1.301299 A    
C54   C92   1.415586 A    
O30   Cu8   1.953959 S    
C52   C90   1.415586 A    
O18   Cu2   1.953971 S    
C20   C48   1.405603 A    
O16   Cu6   1.975901 S    
N6    O59   1.301566 A    
O27   C29   1.301606 A    
C22   C46   1.405596 A    
C58   N10   1.441894 S    
O42   C126  1.286660 A    
C133  H31   1.102747 S    
C14   C110  1.404143 A    
N3    O54   1.301326 A    
N2    O52   1.301335 A    
Cu9   O35   1.977609 S    
O21   C27   1.301464 A    
C76   H12   1.083070 S    
O46   C128  1.286638 A    
C66   H2    1.082987 S    
N14   O76   1.301291 A    
C153  C154  1.524484 S    
C21   C47   1.399114 A    
C57   N9    1.441741 S    
O3    C3    1.294422 A    
N32   O111  1.300758 A    
Cu11  O44   1.978041 S    
C70   H6    1.083004 S    
O21   Cu1   1.954358 S    
C136  H33   1.109845 S    
N8    O64   1.301322 A    
C160  H93   1.107596 S    
N28   O104  1.300754 A    
C51   C89   1.416447 A    
C24   C120  1.405183 A    
C133  C134  1.533551 S    
C20   C116  1.405031 A    
C25   C88   1.477881 S    
O14   Cu8   1.975912 S    
N10   O68   1.301319 A    
O2    Cu2   1.975897 S    
C36   C123  1.473375 S    
C13   C109  1.405135 A    
Cu10  O37   1.977611 S    
Cu12  O48   1.978044 S    
C29   C84   1.478317 S    
C157  H90   1.107882 S    
C11   C107  1.405131 A    
O12   C8    1.294387 A    
O1    C1    1.294442 A    
C140  H44   1.110306 S    
O14   C6    1.294348 A    
C97   C104  1.204101 T    
C4    C44   1.448908 S    
C98   C103  1.203913 T    
O13   Cu5   1.975927 S    
C129  H20   1.110348 S    
C139  C140  1.524519 S    
C31   C82   1.478345 S    
C73   C85   1.401362 A    
N31   O110  1.300981 A    
Cu9   O33   1.978411 S    
C149  H71   1.104854 S    
N21   O90   1.300751 A    
O19   Cu3   1.954361 S    
C65   C81   1.401230 A    
N10   O67   1.301574 A    
C135  C136  1.524516 S    
C49   C65   1.401514 A    
C152  H72   1.110096 S    
C57   C93   1.415547 A    
N4    O56   1.301310 A    
C13   N21   1.438646 S    
O48   C126  1.286559 A    
C134  H29   1.111368 S    
O28   Cu8   1.953942 S    
C62   C96   1.415723 A    
C149  C150  1.524480 S    
C60   C76   1.401587 A    
C38   C125  1.468299 S    
C67   H3    1.083044 S    
C146  H59   1.110317 S    
N18   O84   1.300964 A    
Cu9   Cu10  2.650113 S    
C132  H22   1.105379 S    
O10   C6    1.294265 A    
O8    Cu2   1.975901 S    
C37   C119  1.432987 A    
O43   C127  1.285118 A    
O9    Cu5   1.975929 S    
C59   C75   1.403197 A    
O11   Cu7   1.975929 S    
C23   C45   1.399129 A    
O2    C2    1.292729 A    
C131  H25   1.107919 S    
N19   O85   1.300755 A    
C33   C124  1.467773 S    
C35   C107  1.426741 A    
O26   C30   1.301389 A    
C154  H77   1.105275 S    
N5    O57   1.301569 A    
N1    O50   1.301296 A    
C49   N1    1.441732 S    
O29   C31   1.301613 A    
C142  H48   1.107623 S    
Cu1   Cu3   2.691907 S    
O34   C122  1.285087 A    
C51   N3    1.441896 S    
O26   Cu6   1.953971 S    
C63   C95   1.415543 A    
C32   C81   1.477889 S    
C62   N14   1.441740 S    
O12   Cu8   1.975913 S    
C144  H54   1.110306 S    
O33   C121  1.286867 A    
C148  H62   1.110088 S    
C139  H46   1.104849 S    
O38   C124  1.285083 A    
C23   C119  1.404163 A    
C159  H95   1.110330 S    
C56   C92   1.416226 A    
C5    C45   1.449196 S    
C54   N6    1.441749 S    
C50   C66   1.403108 A    
C61   N13   1.441888 S    
N11   O69   1.301571 A    
C129  C130  1.533524 S    
C54   C70   1.401476 A    
C79   H15   1.082997 S    
O39   C123  1.286865 A    
C80   H16   1.083048 S    
C67   C81   1.401287 A    
C155  H86   1.102826 S    
C137  H40   1.110341 S    
C143  C144  1.524586 S    
C53   N5    1.441895 S    
O24   Cu2   1.953947 S    
C150  H69   1.110318 S    
C143  H56   1.104900 S    
C39   C126  1.473151 S    
C9    C41   1.405712 A    
Cu11  O41   1.978411 S    
N12   O72   1.301291 A    
O18   C26   1.301516 A    
C146  H57   1.105325 S    
O32   Cu6   1.953947 S    
O10   Cu6   1.975897 S    
C120  C159  1.533879 S    
C118  C155  1.533905 S    
C138  H37   1.110103 S    
O24   C28   1.301512 A    
C40   C120  1.426839 A    
C34   C106  1.433115 A    
C142  H47   1.110115 S    
C114  C147  1.533863 S    
C132  H24   1.110305 S    
C10   N18   1.436751 S    
C159  C160  1.533497 S    
C37   C113  1.433011 A    
C94   C102  1.441431 S    
C130  H17   1.110114 S    
N6    O60   1.301296 A    
N26   O99   1.300770 A    
C12   C44   1.398950 A    
N27   O101  1.301057 A    
O5    C3    1.294419 A    
O15   Cu7   1.975928 S    
C153  H80   1.107921 S    
C18   C114  1.405177 A    
C61   C77   1.403190 A    
N24   O95   1.301026 A    
C50   N2    1.441886 S    
Cu10  O40   1.978044 S    
C14   N22   1.436858 S    
Cu10  O39   1.978409 S    
N16   O80   1.301323 A    
C1    C41   1.453103 S    
C6    C46   1.452530 S    
N20   O88   1.301002 A    
C72   H8    1.082986 S    
C147  C148  1.533437 S    
C24   N32   1.438768 S    
C148  H64   1.111334 S    
N25   O98   1.300979 A    
C9    N17   1.438649 S    
C92   C100  1.441110 S    
C93   C101  1.441112 S    
O22   Cu4   1.953959 S    
C10   C106  1.404170 A    
C64   C80   1.403282 A    
Cu2   Cu4   2.691939 S    
C160  H92   1.110092 S    
C96   C104  1.441429 S    
C151  H76   1.102797 S    
C152  H73   1.107578 S    
C156  H82   1.110098 S    
Cu11  Cu12  2.650113 S    
C10   C42   1.398967 A    
C12   N20   1.436860 S    
C134  H28   1.107649 S    
C75   H11   1.082984 S    
N9    O65   1.301564 A    
C56   C72   1.403116 A    
O8    C4    1.292732 A    
C73   H9    1.083003 S    
C74   C86   1.401275 A    
C100  C101  1.203898 T    
C77   C87   1.401463 A    
N30   O108  1.300755 A    
C145  H61   1.104843 S    
C78   C88   1.401229 A    
N17   O82   1.300752 A    
C55   N7    1.441731 S    
C66   C82   1.401460 A    
C135  H35   1.107877 S    
O3    Cu3   1.975929 S    
Cu5   Cu7   2.691907 S    
C17   N25   1.436765 S    
C16   C112  1.404170 A    
C136  H32   1.105338 S    
N19   O86   1.300753 A    
C9    C105  1.405106 A    
C147  H65   1.110324 S    
N31   O109  1.301044 A    
C23   N31   1.436768 S    
C33   C111  1.426713 A    
C113  C145  1.532080 S    
C62   C78   1.401590 A    
C142  H49   1.111368 S    
C89   C97   1.441432 S    
O6    Cu4   1.975912 S    
O16   C8    1.294298 A    
C7    C47   1.449164 S    
N29   O106  1.301009 A    
C155  H85   1.110322 S    
O6    C2    1.292788 A    
C17   C45   1.399116 A    
O17   Cu1   1.953552 S    
C40   C116  1.426790 A    
O5    Cu1   1.975927 S    
C19   C47   1.399117 A    
Cu10  O38   1.978021 S    
Cu12  O45   1.977611 S    
C146  H58   1.109862 S    
O7    C1    1.294443 A    
O7    Cu3   1.975928 S    
O35   C123  1.286497 A    
C16   C44   1.398968 A    
O22   C28   1.302476 A    
C140  H43   1.109846 S    
C19   N27   1.436720 S    
C19   C115  1.404125 A    
N23   O94   1.300750 A    
N11   O70   1.301327 A    
C8    C48   1.452685 S    
C34   C121  1.473377 S    
N5    O58   1.301322 A    
C65   H1    1.083066 S    
N15   O78   1.301323 A    
C150  H67   1.105273 S    
C119  C157  1.532083 S    
N21   O89   1.300754 A    
C52   N4    1.441756 S    
C141  H51   1.102743 S    
C69   H5    1.083043 S    
C158  H87   1.105328 S    
C150  H68   1.109875 S    
C71   H7    1.083065 S    
C156  H84   1.111333 S    
C57   C73   1.401396 A    
C144  H52   1.105380 S    
C110  C139  1.532193 S    
N32   O112  1.300755 A    
C63   C79   1.401399 A    
Cu11  O43   1.977609 S    
C141  C142  1.533522 S    
O31   C31   1.302357 A    
O32   C32   1.301379 A    
C69   C83   1.401289 A    
N2    O51   1.301578 A    
C70   C84   1.401354 A    
C50   C90   1.416219 A    
C55   C71   1.401515 A    
N27   O102  1.301038 A    
C130  H19   1.111370 S    
C139  H45   1.107876 S    
C131  H26   1.104903 S    
N14   O75   1.301568 A    
C53   C91   1.416444 A    
C154  H78   1.109853 S    
N1    O49   1.301564 A    
C34   C110  1.433300 A    
C18   C46   1.405659 A    
O15   C5    1.292836 A    
C136  H34   1.110308 S    
N8    O63   1.301571 A    
C160  H94   1.111349 S    
C53   C69   1.403350 A    
C38   C114  1.426821 A    
N28   O103  1.300761 A    
Cu6   Cu8   2.691939 S    
