data_mof_unit_64486.cif
_audit_creation_date              2012-10-26T19:38:23-0400
_audit_creation_method            fapswitch 2.2
_symmetry_space_group_name_H-M    P1
_symmetry_Int_Tables_number       1
_space_group_crystal_system       triclinic
_cell_length_a                    16.023127
_cell_length_b                    17.103731
_cell_length_c                    23.47497
_cell_angle_alpha                 93.19218
_cell_angle_beta                  92.374831
_cell_angle_gamma                 95.012312
_cell_volume                      6391.95570697

loop_
_atom_site_label
_atom_site_type_symbol
_atom_type_description
_atom_site_fract_x
_atom_site_fract_y
_atom_site_fract_z
_atom_type_partial_charge
C1    C     C_R   0.490931 0.349383 0.502165 0.564032
C2    C     C_R   0.530147 0.569085 0.703902 0.045252
C3    C     C_R   0.506207 0.435181 0.235808 -0.047713
C4    C     C_R   0.537664 0.568227 0.762868 -0.053895
C5    C     C_R   0.516077 0.507627 0.209676 0.190913
C6    C     C_R   0.503770 0.503992 0.791339 0.211413
C7    C     C_R   0.490767 0.263941 0.503545 -0.022148
C8    C     C_R   0.510014 0.737733 0.499352 -0.034468
C9    C     C_R   0.549553 0.229732 0.538853 0.094515
C10   C     C_R   0.440737 0.776716 0.478756 0.095095
C11   C     C_R   0.558097 0.148390 0.531412 0.022297
C12   C     C_R   0.508925 0.651186 0.498587 0.552185
C13   C     C_R   0.441594 0.859267 0.489296 0.026914
C14   C     C_R   0.505634 0.101514 0.490035 0.165658
C15   C     C_R   0.512882 0.901999 0.517411 0.175381
C16   C     C_R   0.500028 0.499245 0.391204 0.541601
C17   C     C_R   0.499643 0.500272 0.608774 0.555973
C18   C     C_R   0.448517 0.137213 0.455345 0.110433
C19   C     C_R   0.580595 0.862443 0.536458 0.116039
C20   C     C_R   0.440475 0.217159 0.462841 -0.119840
C21   C     C_R   0.579338 0.781868 0.526359 -0.120758
C22   C     C_R   0.752351 0.461685 0.469156 0.221881
C23   C     C_R   0.491698 0.573816 0.242451 0.089239
C24   C     C_R   0.247905 0.540749 0.529115 0.223398
C25   C     C_R   0.841388 0.468382 0.466305 -0.017497
C26   C     C_R   0.158888 0.536478 0.530153 -0.015991
C27   C     C_R   0.891286 0.522205 0.504006 0.146784
C28   C     C_R   0.108932 0.481306 0.493363 0.147196
C29   C     C_R   0.849657 0.569845 0.542180 0.079978
C30   C     C_R   0.150719 0.430015 0.457842 0.084533
C31   C     C_R   0.760737 0.561964 0.543778 0.108685
C32   C     C_R   0.239792 0.435124 0.458202 0.110154
C33   C     C_R   0.490088 0.568169 0.884925 0.411894
C34   C     C_R   0.459903 0.438870 0.759483 0.074083
C35   C     C_R   0.568639 0.448650 0.120030 0.397951
C36   C     C_R   0.553495 0.447572 0.877841 0.446761
C37   C     C_R   0.548725 0.581851 0.124300 0.452436
C38   C     C_R   0.558185 0.444429 0.938109 0.011542
C39   C     C_R   0.535727 0.582781 0.064513 0.005259
C40   C     C_R   0.537655 0.511218 0.971386 -0.035451
C41   C     C_R   0.544328 0.512326 0.031621 -0.035549
C42   C     C_R   0.510255 0.577040 0.944289 -0.010373
C43   C     C_R   0.564594 0.444474 0.059342 -0.004923
C44   C     C_R   0.580120 0.376627 0.965767 -0.000200
C45   C     C_R   0.499556 0.574640 0.302693 -0.063794
C46   C     C_R   0.516290 0.651446 0.037197 0.006441
C47   C     C_R   0.580876 0.375792 0.026092 -0.002272
C48   C     C_R   0.501541 0.648066 0.977167 -0.001786
C49   C     C_2   0.594930 0.303399 0.932167 0.371248
C50   C     C_2   0.506597 0.725791 0.071376 0.372391
C51   C     C_2   0.118765 0.584735 0.573395 0.312014
C52   C     C_2   0.881899 0.424276 0.420734 0.313049
C53   C     C_2   0.722167 0.608252 0.588231 0.326615
C54   C     C_2   0.279986 0.378313 0.421418 0.319907
C55   C     C_2   0.594308 0.301224 0.053628 0.361831
C56   C     C_R   0.462876 0.434879 0.698873 -0.057148
C57   C     C_2   0.481101 0.720186 0.948817 0.369787
C58   C     C_2   0.434708 0.628174 0.216851 0.305069
C59   C     C_2   0.405451 0.379513 0.788729 0.332643
C60   C     C_2   0.505606 0.649953 0.338079 0.246074
C61   C     C_2   0.429476 0.362903 0.663766 0.215350
C62   C     C_2   0.366931 0.901873 0.475685 0.333161
C63   C     C_2   0.627367 0.114058 0.561804 0.333135
C64   C     C_R   0.500247 0.502218 0.328821 -0.020242
C65   C     C_R   0.498033 0.501002 0.671323 -0.011480
C66   C     C_R   0.496218 0.432174 0.294336 0.048596
Cu1   Cu    Cu3+1 0.415220 0.496180 0.497250 1.016222
Cu2   Cu    Cu3+1 0.584780 0.503820 0.502750 1.043934
H1    H     H_    0.398086 0.243548 0.434303 0.208499
H2    H     H_    0.321230 0.397796 0.388872 0.144354
H3    H     H_    0.551663 0.279767 0.085161 0.158321
H4    H     H_    0.515614 0.738870 0.912388 0.150533
H5    H     H_    0.426184 0.684691 0.237889 0.182764
H6    H     H_    0.381483 0.324130 0.767157 0.178275
H7    H     H_    0.492625 0.650352 0.382839 0.123631
H8    H     H_    0.395268 0.367492 0.623475 0.146603
H9    H     H_    0.351191 0.949437 0.504737 0.145164
H10   H     H_    0.668798 0.079536 0.537581 0.145744
H11   H     H_    0.632209 0.753289 0.541825 0.224021
H12   H     H_    0.502445 0.379799 0.211151 0.195530
H13   H     H_    0.567714 0.619464 0.787162 0.167686
H14   H     H_    0.650339 0.301219 0.907290 0.171500
H15   H     H_    0.467802 0.725160 0.108157 0.174289
H16   H     H_    0.077729 0.556179 0.603088 0.141022
H17   H     H_    0.923830 0.455777 0.392998 0.146158
H18   H     H_    0.691615 0.579162 0.622416 0.141978
I1    I     I_    0.315609 0.624205 0.590292 -0.132803
I2    I     I_    0.686750 0.919941 0.582818 -0.108354
I3    I     I_    0.685070 0.374999 0.410846 -0.116989
I4    I     I_    0.922781 0.652471 0.599984 -0.107677
I5    I     I_    0.077740 0.345860 0.401224 -0.096493
I6    I     I_    0.474414 0.319493 0.326999 -0.256924
I7    I     I_    0.558374 0.678958 0.668120 -0.222897
I8    I     I_    0.334853 0.713074 0.431815 -0.147589
I9    I     I_    0.628467 0.301177 0.601641 -0.121762
I10   I     I_    0.374785 0.073622 0.388335 -0.077898
N1    N     N_R   0.515056 0.506073 0.852874 -0.360029
N2    N     N_R   0.541655 0.512034 0.150214 -0.355400
N3    N     N_2   0.507993 0.018794 0.481909 -0.215426
N4    N     N_2   0.516696 0.984739 0.527146 -0.225312
N5    N     N_R   0.712130 0.509560 0.506880 -0.279680
N6    N     N_R   0.287870 0.490440 0.493120 -0.280278
N7    N     N_2   0.981928 0.532633 0.503530 -0.202332
N8    N     N_2   0.018194 0.471457 0.493411 -0.205389
O1    O     O_R   0.420530 0.382500 0.497430 -0.502211
O2    O     O_2   0.606848 0.394295 0.148260 -0.480356
O3    O     O_2   0.586157 0.392863 0.844015 -0.478543
O4    O     O_2   0.574247 0.648805 0.155553 -0.458305
O5    O     O_2   0.545080 0.245205 0.932350 -0.410274
O6    O     O_2   0.543463 0.787817 0.059394 -0.412063
O7    O     O_2   0.128642 0.656414 0.574655 -0.404098
O8    O     O_2   0.872398 0.352587 0.415781 -0.410773
O9    O     O_2   0.730809 0.679870 0.589897 -0.472092
O10   O     O_2   0.265174 0.307892 0.426401 -0.472848
O11   O     O_2   0.653645 0.264058 0.041917 -0.418897
O12   O     O_R   0.579470 0.617500 0.502570 -0.491986
O13   O     O_2   0.424358 0.757884 0.965032 -0.401562
O14   O     O_2   0.392344 0.608090 0.173187 -0.497563
O15   O     O_2   0.382749 0.393292 0.836986 -0.445952
O16   O     O_2   0.529143 0.712124 0.318192 -0.452723
O17   O     O_2   0.443469 0.297638 0.678165 -0.458136
O18   O     O_2   0.325041 0.887803 0.431121 -0.404246
O19   O     O_2   0.636764 0.121417 0.613741 -0.395510
O20   O     O_R   0.563720 0.388950 0.502070 -0.463760
O21   O     O_R   0.436280 0.611050 0.497930 -0.462607
O22   O     O_R   0.428390 0.496750 0.415560 -0.531544
O23   O     O_R   0.571610 0.503250 0.584440 -0.511455
O24   O     O_R   0.571580 0.503200 0.420200 -0.468242
O25   O     O_R   0.428420 0.496800 0.579800 -0.497115
O26   O     O_2   0.443940 0.619628 0.859276 -0.461395

loop_
_geom_bond_atom_site_label_1
_geom_bond_atom_site_label_2
_ccdc_geom_bond_type
C44   C49   S    
C33   O26   S    
C23   C58   S    
C38   C40   A    
C45   C60   S    
C34   C56   A    
C23   C45   A    
C27   C29   A    
C18   I10   S    
C14   C18   A    
C62   H9    S    
C50   O6    D    
C15   N4    S    
C2    C65   A    
Cu2   O20   S    
C48   C57   S    
C39   C41   A    
C15   C19   A    
C22   N5    A    
C33   C42   A    
C31   N5    A    
C57   O13   D    
C52   H17   S    
C19   C21   A    
C24   C26   A    
C11   C63   S    
Cu1   O21   S    
C11   C14   A    
C52   O8    D    
C56   C65   A    
C58   O14   D    
C61   O17   D    
C27   N7    S    
C29   I4    S    
C4    H13   S    
C22   C25   A    
C5    C23   A    
C59   O15   D    
C36   N1    A    
C35   N2    A    
C35   C43   A    
Cu2   O24   S    
C33   N1    A    
C44   C47   A    
C40   C42   A    
C47   C55   S    
C36   O3    S    
C41   C43   A    
C16   O22   A    
Cu1   O25   S    
C3    H12   S    
C32   C54   S    
C37   N2    A    
C53   O9    D    
C50   H15   S    
C61   H8    S    
C46   C48   A    
C13   C62   S    
C17   O25   A    
Cu1   Cu2   S    
C6    N1    S    
C14   N3    S    
Cu2   N5    S    
C37   O4    S    
C4    C6    A    
C19   I2    S    
Cu1   O22   S    
Cu1   O1    S    
C66   I6    S    
C12   O21   A    
C6    C34   A    
C64   C66   A    
C49   H14   S    
C2    C4    A    
C38   C44   A    
C24   N6    A    
C16   O24   A    
C28   N8    S    
N3    N4    D    
C54   H2    S    
C8    C12   S    
C21   H11   S    
C8    C21   A    
C42   C48   A    
C31   C53   S    
C9    C11   A    
C59   H6    S    
C53   H18   S    
Cu2   O12   S    
C39   C46   A    
C8    C10   A    
C40   C41   A    
C13   C15   A    
C34   C59   S    
C32   N6    A    
C20   H1    S    
C3    C66   A    
C62   O18   D    
C49   O5    D    
C7    C9    A    
C9    I9    S    
C51   O7    D    
C60   H7    S    
C1    C7    S    
C26   C28   A    
C2    I7    S    
C17   O23   A    
C30   I5    S    
C3    C5    A    
C10   C13   A    
C63   O19   D    
C25   C27   A    
C46   C50   S    
C45   C64   A    
C17   C65   S    
C36   C38   A    
C1    O20   A    
C29   C31   A    
C35   O2    S    
C26   C51   S    
C30   C32   A    
C55   O11   D    
C54   O10   D    
C28   C30   A    
C22   I3    S    
C60   O16   D    
C18   C20   A    
C57   H4    S    
C24   I1    S    
C25   C52   S    
Cu2   O23   S    
C5    N2    S    
C58   H5    S    
C37   C39   A    
C7    C20   A    
N7    N8    D    
C10   I8    S    
C56   C61   S    
C16   C64   S    
C43   C47   A    
C51   H16   S    
C55   H3    S    
Cu1   N6    S    
C1    O1    A    
C12   O12   A    
C63   H10   S    
