data_mof_unit_29408.cif
_audit_creation_date              2013-03-05T15:48:37-0500
_audit_creation_method            fapswitch 2.2
_symmetry_space_group_name_H-M    P1
_symmetry_Int_Tables_number       1
_space_group_crystal_system       triclinic
_cell_length_a                    11.664771
_cell_length_b                    12.985173
_cell_length_c                    13.906595
_cell_angle_alpha                 88.988496
_cell_angle_beta                  91.719884
_cell_angle_gamma                 100.461854
_cell_volume                      2070.30919793

loop_
_atom_site_label
_atom_site_type_symbol
_atom_site_description
_atom_site_fract_x
_atom_site_fract_y
_atom_site_fract_z
_atom_type_partial_charge
O1    O     O_R   0.581500 0.354430 0.495010 -0.583340
O2    O     O_R   0.418500 0.645570 0.504990 -0.580146
O3    O     O_R   0.386890 0.341450 0.506880 -0.581158
O4    O     O_R   0.613110 0.658550 0.493120 -0.579831
C1    C     C_R   0.477524 0.298930 0.497761 0.799113
C2    C     C_R   0.522486 0.701061 0.502339 0.802833
O5    O     O_R   0.611060 0.507430 0.631070 -0.588580
O6    O     O_R   0.388940 0.492570 0.368930 -0.589167
O7    O     O_R   0.416450 0.494450 0.642940 -0.556965
O8    O     O_R   0.583550 0.505550 0.357060 -0.560577
C3    C     C_R   0.519332 0.501748 0.681849 0.810642
C4    C     C_R   0.480678 0.498496 0.318147 0.810019
Cu1   Cu    Cu3+1 0.615220 0.507680 0.492970 0.962503
Cu2   Cu    Cu3+1 0.384780 0.492320 0.507030 0.964407
C5    C     C_1   0.468195 0.498744 0.215960 -0.106904
C6    C     C_1   0.532259 0.507427 0.783878 -0.104830
C7    C     C_2   0.450649 0.502764 0.026130 -0.106954
C8    C     C_2   0.549033 0.522312 0.973185 -0.105219
C9    C     C_1   0.540869 0.513730 0.869900 0.051432
C10   C     C_1   0.459449 0.500116 0.129735 0.053124
C11   C     C_R   0.536926 0.814988 0.508440 -0.097906
C12   C     C_R   0.463102 0.184990 0.491876 -0.101164
C13   C     C_R   0.349333 0.012119 0.461693 -0.236274
C14   C     C_R   0.650676 0.987827 0.538893 -0.229234
C15   C     C_R   0.356100 0.120605 0.462902 -0.006671
C16   C     C_R   0.643840 0.879307 0.537718 -0.009501
C17   C     C_R   0.560289 0.139688 0.516623 -0.250529
C18   C     C_R   0.439799 0.860322 0.483674 -0.255370
C19   C     C_R   0.553114 0.032042 0.513851 0.151032
C20   C     C_R   0.446959 0.967946 0.486552 0.152853
H1    H     H_    0.358084 0.811681 0.461068 0.189535
H2    H     H_    0.642052 0.188355 0.539164 0.188727
H3    H     H_    0.268169 0.962188 0.439626 0.153788
H4    H     H_    0.731770 0.037754 0.561192 0.164835
N1    N     N_R   0.788370 0.519230 0.482390 -0.198853
N2    N     N_R   0.211630 0.480770 0.517610 -0.200326
C21   C     C_R   0.031460 0.397820 0.588828 -0.118180
C22   C     C_R   0.968710 0.602049 0.411372 -0.119900
C23   C     C_R   0.153345 0.410668 0.580773 0.066688
C24   C     C_R   0.846785 0.589411 0.419356 0.060664
C25   C     C_R   0.153242 0.541821 0.460714 0.054139
C26   C     C_R   0.846620 0.458058 0.539286 0.049338
C27   C     C_R   0.031089 0.536964 0.467797 -0.036903
C28   C     C_R   0.968845 0.462890 0.532383 -0.042516
H5    H     H_    0.796477 0.406649 0.590525 0.172679
H6    H     H_    0.203074 0.593149 0.409219 0.172756
H7    H     H_    0.798213 0.638363 0.376829 0.161878
H8    H     H_    0.202109 0.361881 0.623303 0.165361
C29   C     C_2   0.669473 0.550280 0.016370 0.870478
O9    O     O_2   0.753102 0.537981 0.969622 -0.578395
O10   O     O_R   0.688617 0.593401 0.108196 -0.752899
H9    H     H_    0.774279 0.609009 0.128158 0.361623
C30   C     C_2   0.329897 0.479579 0.982829 0.879533
O11   O     O_2   0.249575 0.434802 0.031377 -0.582193
O12   O     O_R   0.306392 0.511058 0.888677 -0.752142
H10   H     H_    0.221002 0.490620 0.868877 0.355144
C31   C     C_R   0.748502 0.836916 0.570508 0.126454
C32   C     C_R   0.854692 0.867627 0.523727 -0.161443
C33   C     C_R   0.953453 0.827898 0.554511 -0.140947
C34   C     C_R   0.946958 0.757034 0.631826 -0.107256
C35   C     C_R   0.842185 0.727230 0.679649 -0.106458
C36   C     C_R   0.743585 0.767856 0.649945 -0.080993
H11   H     H_    0.860731 0.921712 0.463110 0.140076
H12   H     H_    0.034924 0.851774 0.518176 0.165338
H13   H     H_    0.023195 0.725491 0.654844 0.148550
H14   H     H_    0.837365 0.672749 0.739839 0.157064
H15   H     H_    0.663121 0.744647 0.688000 0.108992
C37   C     C_R   0.251136 0.162829 0.430654 0.123809
C38   C     C_R   0.255217 0.231506 0.350990 -0.081868
C39   C     C_R   0.156286 0.271897 0.321777 -0.101762
C40   C     C_R   0.052025 0.242262 0.370355 -0.112197
C41   C     C_R   0.046366 0.171813 0.447949 -0.142726
C42   C     C_R   0.145455 0.132295 0.478214 -0.161648
H16   H     H_    0.335286 0.254596 0.312373 0.107680
H17   H     H_    0.160447 0.326078 0.261392 0.160507
H18   H     H_    0.975547 0.273652 0.347737 0.146238
H19   H     H_    0.965307 0.148158 0.484945 0.161568
H20   H     H_    0.140082 0.078524 0.539043 0.140113
C43   C     C_2   0.974946 0.314164 0.655126 0.802020
O13   O     O_2   0.881897 0.258896 0.632736 -0.642834
O14   O     O_R   0.031971 0.294996 0.741712 -0.752760
H21   H     H_    0.986367 0.235012 0.780206 0.348857
C44   C     C_2   0.026457 0.685848 0.345827 0.806799
O15   O     O_2   0.980143 0.700888 0.268035 -0.583737
O16   O     O_R   0.130359 0.751044 0.374483 -0.814204
H22   H     H_    0.159662 0.806053 0.324006 0.334276

loop_
_geom_bond_atom_site_label_1
_geom_bond_atom_site_label_2
_geom_bond_distance
_ccdc_geom_bond_type
C24   H7    1.082704 S    
C11   C16   1.421940 A    
C22   C44   1.484682 S    
C17   C19   1.386206 A    
O12   H10   1.014142 S    
O14   H21   1.013967 S    
C31   C36   1.406400 A    
C30   O11   1.223934 D    
O5    C3    1.289898 A    
C21   C43   1.485159 S    
C33   H12   1.082075 S    
C19   C20   1.406703 A    
C36   H15   1.083205 S    
O1    C1    1.294691 A    
C14   C16   1.397231 A    
Cu1   N1    2.007637 S    
C38   C39   1.398572 A    
Cu2   N2    2.007636 S    
C40   H18   1.082404 S    
C7    C10   1.441624 S    
C8    C9    1.441581 S    
O4    Cu1   1.963731 S    
N1    C26   1.363907 A    
C14   C19   1.397311 A    
C35   H14   1.082474 S    
C1    C12   1.461877 S    
C37   C38   1.406325 A    
C13   H3    1.085153 S    
C12   C15   1.421956 A    
C25   H6    1.078139 S    
C39   C40   1.397755 A    
C33   C34   1.397548 A    
Cu1   Cu2   2.671888 S    
C25   C27   1.421113 A    
N2    C25   1.363805 A    
O2    C2    1.294686 A    
C15   C37   1.484255 S    
C26   C28   1.421741 A    
C42   H20   1.083268 S    
C30   O12   1.398874 S    
C5    C10   1.200461 T    
O10   H9    1.014089 S    
C13   C20   1.397116 A    
O4    C2    1.288863 A    
C43   O14   1.398505 S    
C29   O10   1.398871 S    
C32   C33   1.398220 A    
O16   H22   1.013825 S    
C2    C11   1.461910 S    
C14   H4    1.085385 S    
C34   C35   1.397740 A    
C26   H5    1.077926 S    
O7    Cu2   1.914611 S    
C41   H19   1.082232 S    
C3    C6    1.424144 S    
C44   O15   1.223160 D    
C4    C5    1.424172 S    
O5    Cu1   1.922501 S    
O6    C4    1.289697 A    
C7    C8    1.364522 D    
C38   H16   1.083217 S    
O7    C3    1.289775 A    
O3    Cu2   1.963729 S    
O8    C4    1.289974 A    
C44   O16   1.398116 S    
C11   C18   1.400136 A    
C34   H13   1.082419 S    
C12   C17   1.400463 A    
C18   H1    1.084764 S    
C27   C28   1.419185 A    
O1    Cu1   1.957025 S    
C7    C30   1.496233 S    
C32   H11   1.083271 S    
O6    Cu2   1.922500 S    
C17   H2    1.085087 S    
N2    C23   1.358406 A    
C41   C42   1.398225 A    
O3    C1    1.288858 A    
O8    Cu1   1.914609 S    
C21   C28   1.424733 A    
C18   C20   1.385999 A    
N1    C24   1.358435 A    
C37   C42   1.405874 A    
C22   C27   1.423053 A    
C21   C23   1.408737 A    
C22   C24   1.409278 A    
C31   C32   1.405863 A    
C6    C9    1.200469 T    
C13   C15   1.396904 A    
C35   C36   1.398527 A    
O2    Cu2   1.957025 S    
C16   C31   1.484316 S    
C43   O13   1.222610 D    
C40   C41   1.397532 A    
C29   O9    1.223958 D    
C39   H17   1.082453 S    
C8    C29   1.496017 S    
C23   H8    1.082653 S    
