data_mof_unit_44517.cif
_audit_creation_date              2012-12-11T14:44:25-0500
_audit_creation_method            fapswitch 2.2
_symmetry_space_group_name_H-M    P1
_symmetry_Int_Tables_number       1
_space_group_crystal_system       triclinic
_cell_length_a                    24.958781
_cell_length_b                    16.773924
_cell_length_c                    15.609309
_cell_angle_alpha                 89.829654
_cell_angle_beta                  50.033708
_cell_angle_gamma                 90.103268
_cell_volume                      5008.44531302

loop_
_atom_site_label
_atom_site_type_symbol
_atom_type_description
_atom_site_fract_x
_atom_site_fract_y
_atom_site_fract_z
_atom_type_partial_charge
C1    C     C_R   0.354047 0.147879 0.752226 -0.101038
C2    C     C_3   0.702537 0.704677 0.602191 -0.146855
C3    C     C_1   0.567344 0.839015 0.702127 0.001992
C4    C     C_1   0.092840 0.590095 0.701518 -0.009052
C5    C     C_1   0.936171 0.336022 0.297618 0.006518
C6    C     C_1   0.907605 0.591488 0.297990 -0.010460
C7    C     C_1   0.063706 0.336183 0.703376 0.006649
C8    C     C_1   0.203869 0.932004 0.032772 0.062443
C9    C     C_1   0.755964 0.218928 0.026139 0.065205
C10   C     C_1   0.808136 0.924198 0.954094 0.058986
C11   C     C_1   0.244362 0.216465 0.974816 0.066055
C12   C     C_1   0.691545 0.426324 0.046396 0.059238
C13   C     C_3   0.752917 0.205022 0.607961 -0.146504
C14   C     C_1   0.183974 0.816983 0.244025 0.059377
C15   C     C_1   0.308380 0.424687 0.953784 0.050096
C16   C     C_1   0.744551 0.715657 0.974601 0.064352
C17   C     C_3   0.298662 0.704183 0.397008 -0.143365
C18   C     C_3   0.746588 0.706015 0.393225 -0.147304
C19   C     C_3   0.201284 0.203012 0.603018 -0.148175
C20   C     C_3   0.252885 0.705520 0.607047 -0.149659
C21   C     C_3   0.799192 0.202968 0.397608 -0.147898
C22   C     C_2   0.637118 0.268533 0.162520 -0.283089
C23   C     C_2   0.300397 0.848168 0.986055 -0.269829
C24   C     C_2   0.363022 0.267646 0.837592 -0.282813
C25   C     C_R   0.667659 0.895674 0.194476 -0.112363
C26   C     C_2   0.699471 0.875077 0.005351 -0.253202
C27   C     C_2   0.144904 0.763535 0.145178 -0.275059
C28   C     C_2   0.800012 0.378977 0.996288 -0.252303
C29   C     C_2   0.863035 0.767503 0.837620 -0.281629
C30   C     C_2   0.199668 0.375863 0.005010 -0.259613
C31   C     C_2   0.705775 0.284074 0.084213 0.035137
C32   C     C_2   0.232010 0.868214 0.055948 0.041466
C33   C     C_2   0.294344 0.282260 0.916320 0.035075
C34   C     C_2   0.767357 0.863542 0.952408 0.035729
C35   C     C_2   0.182781 0.816441 0.152395 0.043143
C36   C     C_R   0.646035 0.148270 0.247789 -0.102477
C37   C     C_2   0.732206 0.366459 0.049246 0.034183
C38   C     C_2   0.794313 0.781759 0.916480 0.034401
C39   C     C_2   0.267554 0.364149 0.952047 0.040615
C40   C     C_R   0.615753 0.105048 0.591763 0.048049
C41   C     C_R   0.410544 0.851693 0.408613 0.070782
C42   C     C_R   0.384266 0.105432 0.408261 0.048441
C43   C     C_R   0.590075 0.852211 0.591898 0.072276
C44   C     C_R   0.115693 0.605451 0.591631 0.049936
C45   C     C_R   0.910685 0.351368 0.408967 0.071607
C46   C     C_R   0.884573 0.605868 0.408015 0.055298
C47   C     C_R   0.333530 0.887435 0.800926 -0.114227
C48   C     C_R   0.089454 0.351649 0.591762 0.071192
C49   C     C_R   0.689610 0.106499 0.406416 -0.175206
C50   C     C_R   0.335850 0.853070 0.594719 -0.153375
C51   C     C_R   0.310593 0.106592 0.593598 -0.174945
C52   C     C_R   0.663605 0.853218 0.405574 -0.153798
C53   C     C_R   0.189420 0.607167 0.406158 -0.158704
C54   C     C_R   0.836410 0.352730 0.595158 -0.153675
C55   C     C_R   0.810693 0.606770 0.593454 -0.175339
C56   C     C_R   0.163542 0.353132 0.405548 -0.154165
C57   C     C_R   0.557318 0.145581 0.245846 -0.141628
C58   C     C_R   0.854205 0.647984 0.751876 -0.100909
C59   C     C_R   0.419348 0.894870 0.807042 -0.130858
C60   C     C_R   0.442843 0.145345 0.754002 -0.140303
C61   C     C_R   0.581015 0.903446 0.190591 -0.127620
C62   C     C_R   0.060130 0.644144 0.240488 -0.146759
C63   C     C_R   0.918928 0.403750 0.809681 -0.126550
C64   C     C_R   0.942907 0.645355 0.753891 -0.139277
C65   C     C_R   0.081069 0.403613 0.190499 -0.128049
C66   C     C_R   0.386069 0.189558 0.784524 0.143667
C67   C     C_R   0.651221 0.888347 0.126024 0.133753
C68   C     C_R   0.614110 0.190054 0.215398 0.145417
C69   C     C_R   0.167710 0.395855 0.194374 -0.113905
C70   C     C_R   0.349966 0.872830 0.868014 0.138499
C71   C     C_R   0.886245 0.689622 0.784155 0.145585
C72   C     C_R   0.151324 0.388673 0.125840 0.135156
C73   C     C_R   0.117407 0.688890 0.209836 0.145449
C74   C     C_R   0.848523 0.389246 0.874798 0.132978
C75   C     C_R   0.682805 0.122610 0.498930 -0.008632
C76   C     C_R   0.359755 0.808036 0.502846 -0.025646
C77   C     C_R   0.317391 0.123119 0.501116 -0.008531
C78   C     C_R   0.640341 0.808543 0.497870 -0.026050
C79   C     C_R   0.182565 0.623446 0.498612 -0.010131
C80   C     C_R   0.149025 0.645886 0.241846 -0.101012
C81   C     C_R   0.860104 0.307551 0.503413 -0.024999
C82   C     C_R   0.817718 0.623548 0.500806 -0.010150
C83   C     C_R   0.139943 0.308102 0.497794 -0.024177
C84   C     C_3   0.288328 0.236270 0.428628 -0.152016
C85   C     C_3   0.659525 0.674554 0.569053 -0.151165
C86   C     C_3   0.711829 0.235112 0.571704 -0.151971
C87   C     C_3   0.340565 0.673972 0.432155 -0.153717
C88   C     C_3   0.789144 0.736159 0.426803 -0.151748
C89   C     C_3   0.159165 0.173176 0.568069 -0.149330
C90   C     C_3   0.211495 0.735789 0.571447 -0.148265
C91   C     C_R   0.832130 0.396027 0.806167 -0.112140
C92   C     C_3   0.840787 0.172919 0.433415 -0.149311
C93   C     C_3   0.725309 0.779147 0.528434 -0.137322
C94   C     C_3   0.224981 0.130078 0.465409 -0.145043
C95   C     C_3   0.276100 0.778648 0.469753 -0.132292
C96   C     C_3   0.774647 0.129169 0.535866 -0.145688
C97   C     C_3   0.223795 0.278201 0.530592 -0.138979
C98   C     C_3   0.724629 0.630414 0.466718 -0.146179
C99   C     C_3   0.776648 0.277673 0.469976 -0.138575
C100  C     C_3   0.274657 0.629935 0.534561 -0.146884
C101  C     C_3   0.682825 0.748801 0.495386 0.182967
C102  C     C_3   0.246708 0.206378 0.393239 -0.146384
C103  C     C_3   0.265796 0.161320 0.500916 0.180519
C104  C     C_3   0.317437 0.748193 0.504865 0.180129
C105  C     C_3   0.734393 0.160631 0.499444 0.180641
C106  C     C_3   0.182233 0.248134 0.495691 0.182142
C107  C     C_3   0.766338 0.661928 0.500437 0.181234
C108  C     C_3   0.817705 0.247409 0.505734 0.182184
C109  C     C_3   0.234101 0.661562 0.498830 0.179976
C110  C     C_1   0.592642 0.089649 0.701800 -0.005273
C111  C     C_1   0.435858 0.836881 0.297248 0.007100
C112  C     C_1   0.407032 0.090544 0.298491 -0.006394
H1    H     H_    0.309796 0.166159 0.759511 0.104468
H2    H     H_    0.292639 0.839256 0.681060 0.105488
H3    H     H_    0.262933 0.105623 0.679815 0.107129
H4    H     H_    0.705671 0.839292 0.318845 0.108808
H5    H     H_    0.237106 0.606609 0.319984 0.102102
H6    H     H_    0.794208 0.338630 0.682042 0.109019
H7    H     H_    0.762970 0.605811 0.679617 0.106689
H8    H     H_    0.205679 0.339282 0.318820 0.108861
H9    H     H_    0.520543 0.162937 0.234835 0.115647
H10   H     H_    0.443814 0.904740 0.843203 0.123744
H11   H     H_    0.479683 0.162695 0.764943 0.115504
H12   H     H_    0.719378 0.898169 0.168868 0.100353
H13   H     H_    0.555281 0.916705 0.157158 0.120575
H14   H     H_    0.024879 0.660542 0.225832 0.115857
H15   H     H_    0.944921 0.417350 0.842603 0.119727
H16   H     H_    0.979671 0.662631 0.765023 0.115697
H17   H     H_    0.055285 0.416884 0.157143 0.119669
H18   H     H_    0.725425 0.841170 0.553105 0.119098
H19   H     H_    0.227082 0.067954 0.439135 0.120387
H20   H     H_    0.276854 0.840664 0.443801 0.121239
H21   H     H_    0.772218 0.066863 0.562358 0.118450
H22   H     H_    0.223138 0.339963 0.556762 0.118203
H23   H     H_    0.690234 0.166750 0.240694 0.104755
H24   H     H_    0.726013 0.568034 0.441860 0.117640
H25   H     H_    0.777553 0.339602 0.443599 0.118490
H26   H     H_    0.272392 0.567536 0.560611 0.117595
H27   H     H_    0.342021 0.261722 0.371947 0.116423
H28   H     H_    0.605269 0.650854 0.626644 0.120872
H29   H     H_    0.658238 0.260269 0.627862 0.116356
H30   H     H_    0.394605 0.650183 0.375856 0.122668
H31   H     H_    0.843036 0.760990 0.368988 0.118130
H32   H     H_    0.105117 0.148821 0.624514 0.122948
H33   H     H_    0.157830 0.760742 0.627969 0.117467
H34   H     H_    0.281977 0.886619 0.825875 0.097628
H35   H     H_    0.894754 0.148912 0.377495 0.122808
H36   H     H_    0.264185 0.208544 0.307514 0.117796
H37   H     H_    0.685032 0.703982 0.687965 0.116421
H38   H     H_    0.735116 0.206705 0.693891 0.117696
H39   H     H_    0.316724 0.703453 0.310907 0.117992
H40   H     H_    0.763436 0.707439 0.307886 0.117593
H41   H     H_    0.183200 0.201482 0.689143 0.116388
H42   H     H_    0.235338 0.706913 0.692803 0.115039
H43   H     H_    0.817581 0.201938 0.311292 0.116641
H44   H     H_    0.318912 0.803715 0.012392 0.140376
H45   H     H_    0.809980 0.666302 0.759107 0.104533
H46   H     H_    0.598432 0.315427 0.196650 0.142463
H47   H     H_    0.675563 0.840945 0.978403 0.135921
H48   H     H_    0.401625 0.315040 0.803277 0.142830
H49   H     H_    0.823492 0.346142 0.024949 0.135230
H50   H     H_    0.142147 0.769816 0.078743 0.137227
H51   H     H_    0.175788 0.341960 0.977843 0.136432
H52   H     H_    0.901511 0.815041 0.803458 0.143749
H53   H     H_    0.219430 0.398479 0.168753 0.100727
H54   H     H_    0.196761 0.659801 0.226621 0.103029
H55   H     H_    0.780382 0.399132 0.831994 0.100464
H56   H     H_    0.737355 0.105700 0.320288 0.106964
N1    N     N_R   0.389620 0.081040 0.705440 -0.047959
N2    N     N_R   0.417680 0.920160 0.443370 -0.061715
N3    N     N_R   0.417680 0.079840 0.443370 -0.059517
N4    N     N_R   0.582320 0.920160 0.556630 -0.061201
N5    N     N_R   0.082320 0.579840 0.556630 -0.059118
N6    N     N_R   0.917680 0.420160 0.443370 -0.062116
N7    N     N_R   0.917680 0.579840 0.443370 -0.058319
N8    N     N_R   0.082320 0.420160 0.556630 -0.062078
N9    N     N_R   0.627920 0.078930 0.443400 -0.046023
N10   N     N_R   0.372080 0.921070 0.556600 -0.047097
N11   N     N_R   0.372080 0.078930 0.556600 -0.045949
N12   N     N_R   0.610380 0.918960 0.294560 -0.047860
N13   N     N_R   0.627920 0.921070 0.443400 -0.047555
N14   N     N_R   0.127920 0.578930 0.443400 -0.045671
N15   N     N_R   0.872080 0.421070 0.556600 -0.047862
N16   N     N_R   0.872080 0.578930 0.556600 -0.045626
N17   N     N_R   0.127920 0.421070 0.443400 -0.048460
N18   N     N_R   0.555090 0.077730 0.294590 -0.046326
N19   N     N_R   0.444910 0.922270 0.705410 -0.048854
N20   N     N_R   0.444910 0.077730 0.705410 -0.046148
N21   N     N_R   0.555090 0.922270 0.294590 -0.048604
N22   N     N_R   0.055090 0.577730 0.294590 -0.045603
N23   N     N_R   0.610380 0.081040 0.294560 -0.048207
N24   N     N_R   0.944910 0.422270 0.705410 -0.048511
N25   N     N_R   0.944910 0.577730 0.705410 -0.046393
N26   N     N_R   0.055090 0.422270 0.294590 -0.048292
N27   N     N_1   0.574149 0.077176 0.790152 -0.085511
N28   N     N_1   0.455075 0.824178 0.208593 -0.094743
N29   N     N_1   0.425251 0.078482 0.210349 -0.085613
N30   N     N_1   0.550310 0.827727 0.789793 -0.095673
N31   N     N_1   0.074549 0.577659 0.789749 -0.088104
N32   N     N_1   0.955541 0.322898 0.208965 -0.095694
N33   N     N_1   0.926022 0.579824 0.209642 -0.088276
N34   N     N_R   0.389620 0.918960 0.705440 -0.046652
N35   N     N_1   0.044078 0.322988 0.792298 -0.095366
N36   N     N_1   0.181126 0.982838 0.014499 -0.092731
N37   N     N_1   0.795810 0.167475 0.979880 -0.085415
N38   N     N_1   0.840721 0.972592 0.955372 -0.093685
N39   N     N_1   0.204534 0.164614 0.021651 -0.084200
N40   N     N_1   0.659026 0.474053 0.044180 -0.094323
N41   N     N_1   0.185001 0.817527 0.317121 -0.097383
N42   N     N_1   0.340972 0.473041 0.955114 -0.102375
N43   N     N_1   0.705032 0.663448 0.020925 -0.085437
N44   N     N_R   0.889620 0.581040 0.705440 -0.048258
N45   N     N_R   0.110380 0.418960 0.294560 -0.047819
N46   N     N_R   0.110380 0.581040 0.294560 -0.048548
N47   N     N_R   0.889620 0.418960 0.705440 -0.047885
N48   N     N_R   0.582320 0.079840 0.556630 -0.059368
Ni1   Ni    Ni4+2 0.382970 0.000000 0.629840 0.210040
Ni2   Ni    Ni4+2 0.617030 0.000000 0.370160 0.208194
Ni3   Ni    Ni4+2 0.882970 0.500000 0.629840 0.208988
Ni4   Ni    Ni4+2 0.117030 0.500000 0.370160 0.207146
Ni5   Ni    Ni4+2 0.514540 0.000000 0.629840 0.222880
Ni6   Ni    Ni4+2 0.485460 0.000000 0.370160 0.221372
Ni7   Ni    Ni4+2 0.014540 0.500000 0.629840 0.222096
Ni8   Ni    Ni4+2 0.985460 0.500000 0.370160 0.221752

loop_
_geom_bond_atom_site_label_1
_geom_bond_atom_site_label_2
_ccdc_geom_bond_type
C76   C104  S    
N1    Ni1   S    
C96   C105  S    
N14   Ni4   S    
C85   C98   S    
N8    Ni7   S    
C69   C72   A    
C36   N23   A    
C84   C102  S    
N10   Ni1   S    
N12   Ni2   S    
C25   C67   A    
N9    Ni2   S    
C28   C74   S    
N26   N45   A    
C19   C97   S    
C25   N12   A    
N8    N17   A    
C62   N22   A    
C55   H7    S    
C43   C78   A    
C99   C108  S    
C63   H15   S    
N19   N34   A    
C3    C43   S    
C33   C39   S    
C11   N39   T    
N2    N10   A    
C20   C90   S    
C26   C67   S    
C97   H22   S    
N34   Ni1   S    
C91   H55   S    
C53   C79   A    
C13   H38   S    
C87   C100  S    
C90   H33   S    
N47   Ni3   S    
N12   N21   A    
C27   H50   S    
C21   C99   S    
C53   H5    S    
C58   C71   A    
C63   N24   A    
C98   H24   S    
C2    C107  S    
C92   C96   S    
C3    N30   T    
C52   C78   A    
C2    C85   S    
N9    N48   A    
C64   C71   A    
C89   C94   S    
C42   C112  S    
N48   Ni5   S    
C91   N47   A    
N4    Ni5   S    
C102  H36   S    
C46   C82   A    
C19   C103  S    
N4    N13   A    
C26   C34   D    
C4    N31   T    
C84   H27   S    
C64   H16   S    
C13   C86   S    
C7    N35   T    
C55   N16   A    
C49   C75   A    
C62   C73   A    
C59   N19   A    
C17   C95   S    
C88   H31   S    
C27   C73   S    
C18   H40   S    
C24   C66   S    
C111  N28   T    
N20   Ni5   S    
C59   H10   S    
C17   C87   S    
N18   Ni6   S    
C81   C108  S    
C60   C66   A    
C100  C109  S    
C44   C79   A    
N2    Ni6   S    
C23   H44   S    
N11   Ni1   S    
C78   C101  S    
C61   N21   A    
C56   H8    S    
C23   C70   S    
N3    N11   A    
C17   H39   S    
C1    H1    S    
C30   H51   S    
C13   C108  S    
C51   N11   A    
N23   Ni2   S    
C80   H54   S    
N45   Ni4   S    
C92   C108  S    
C28   H49   S    
C5    N32   T    
C49   N9    A    
C52   H4    S    
N24   N47   A    
C40   C75   A    
C22   C31   D    
C79   C109  S    
C13   C96   S    
C8    C32   S    
C32   C35   S    
C8    N36   T    
C69   N45   A    
C52   N13   A    
N1    N20   A    
C49   H56   S    
C93   C101  S    
C14   C35   S    
C62   H14   S    
C88   C107  S    
N21   Ni6   S    
N25   N44   A    
C40   C110  S    
C22   H46   S    
C27   C35   D    
C20   H42   S    
C5    C45   S    
C16   N43   T    
C51   H3    S    
C98   C107  S    
C31   C37   S    
C47   N34   A    
C4    C44   S    
C50   H2    S    
C18   C101  S    
C74   C91   A    
C29   C38   D    
C60   H11   S    
C51   C77   A    
C47   C70   A    
C19   C89   S    
C50   C76   A    
N46   Ni4   S    
C61   C67   A    
C65   H17   S    
C20   C100  S    
C11   C33   S    
N7    Ni8   S    
C15   C39   S    
C64   N25   A    
C40   N48   A    
C24   H48   S    
C1    C66   A    
C21   H43   S    
N6    Ni8   S    
C26   H47   S    
C10   C34   S    
C82   C107  S    
C44   N5    A    
C55   C82   A    
N19   Ni5   S    
C86   C99   S    
N22   N46   A    
C85   H28   S    
C22   C68   S    
C57   N18   A    
C100  H26   S    
C6    N33   T    
C97   C106  S    
N44   Ni3   S    
C94   C103  S    
C75   C105  S    
C69   H53   S    
C54   H6    S    
N17   Ni4   S    
C41   C111  S    
C95   H20   S    
C19   H41   S    
C89   C106  S    
N16   Ni3   S    
C86   C105  S    
C84   C97   S    
C57   C68   A    
C93   H18   S    
C65   C72   A    
C36   H23   S    
C12   N40   T    
C112  N29   T    
N13   Ni2   S    
N3    Ni6   S    
C85   C101  S    
C95   C104  S    
C56   C83   A    
N26   Ni8   S    
C65   N26   A    
N18   N23   A    
C88   C93   S    
N15   Ni3   S    
C6    C46   S    
C14   N41   T    
C50   N10   A    
C34   C38   S    
C2    C93   S    
C45   C81   A    
C24   C33   D    
N24   Ni7   S    
C29   C71   S    
C30   C72   S    
C58   H45   S    
C90   C95   S    
N6    N15   A    
N5    N14   A    
C80   N46   A    
C43   N4    A    
C36   C68   A    
C96   H21   S    
C20   C104  S    
C63   C74   A    
C58   N44   A    
C15   N42   T    
C89   H32   S    
C29   H52   S    
C41   N2    A    
C94   H19   S    
C83   C106  S    
C7    C48   S    
C10   N38   T    
C9    N37   T    
C53   N14   A    
C23   C32   D    
C41   C76   A    
C17   C109  S    
C28   C37   D    
C2    H37   S    
C1    N1    A    
C73   C80   A    
C30   C39   D    
C102  C106  S    
C87   H30   S    
C25   H12   S    
C18   C88   S    
C47   H34   S    
C77   C103  S    
C42   N3    A    
C9    C31   S    
C59   C70   A    
C57   H9    S    
C87   C104  S    
C46   N7    A    
N22   Ni8   S    
N25   Ni7   S    
C56   N17   A    
C94   C102  S    
C42   C77   A    
C60   N20   A    
C12   C37   S    
C110  N27   T    
C84   C103  S    
C48   C83   A    
C54   N15   A    
C99   H25   S    
C61   H13   S    
C18   C98   S    
C90   C109  S    
C48   N8    A    
C45   N6    A    
C54   C81   A    
C21   C105  S    
C86   H29   S    
C16   C38   S    
N7    N16   A    
C92   H35   S    
C21   C92   S    
N5    Ni7   S    
