data_mof_unit_19644.cif
_audit_creation_date              2013-03-05T15:49:58-0500
_audit_creation_method            fapswitch 2.2
_symmetry_space_group_name_H-M    P1
_symmetry_Int_Tables_number       1
_space_group_crystal_system       triclinic
_cell_length_a                    17.1126
_cell_length_b                    17.123901
_cell_length_c                    17.319425
_cell_angle_alpha                 89.990768
_cell_angle_beta                  89.987863
_cell_angle_gamma                 90.04343
_cell_volume                      5075.18685744

loop_
_atom_site_label
_atom_site_type_symbol
_atom_site_description
_atom_site_fract_x
_atom_site_fract_y
_atom_site_fract_z
_atom_type_partial_charge
C1    C     C_R   0.423205 0.667794 0.647065 -0.001436
C2    C     C_R   0.605259 0.301373 0.394768 -0.069213
C3    C     C_R   0.699495 0.606313 0.602231 -0.150812
C4    C     C_R   0.332862 0.423794 0.352525 -0.046691
C5    C     C_R   0.576644 0.332342 0.647170 -0.001713
C6    C     C_R   0.394779 0.698601 0.394654 -0.069707
C7    C     C_R   0.300456 0.393742 0.602048 -0.136329
C8    C     C_R   0.667026 0.576100 0.352452 -0.046998
C9    C     C_R   0.423816 0.329809 0.354804 -0.051692
C10   C     C_R   0.608451 0.698995 0.601899 -0.037699
C11   C     C_R   0.698228 0.392421 0.394872 -0.117709
C12   C     C_R   0.329304 0.576380 0.644842 -0.079068
C13   C     C_R   0.576100 0.670094 0.354734 -0.051996
C14   C     C_R   0.391600 0.301190 0.602633 -0.047092
C15   C     C_R   0.301809 0.607541 0.394768 -0.117748
C16   C     C_R   0.670501 0.423754 0.644924 -0.075204
C17   C     C_R   0.924530 0.169650 0.145455 -0.006431
C18   C     C_R   0.108193 0.801439 0.896734 -0.048878
C19   C     C_R   0.198470 0.108161 0.104118 -0.098862
C20   C     C_R   0.828995 0.923109 0.855433 -0.066120
C21   C     C_R   0.075458 0.830338 0.145468 -0.005979
C22   C     C_R   0.891937 0.198551 0.896518 -0.055101
C23   C     C_R   0.801548 0.891865 0.104223 -0.098240
C24   C     C_R   0.170593 0.076419 0.855149 -0.068496
C25   C     C_R   0.922467 0.831410 0.853400 -0.010665
C26   C     C_R   0.105722 0.199243 0.103364 -0.082812
C27   C     C_R   0.199194 0.894379 0.896418 -0.123603
C28   C     C_R   0.833407 0.075730 0.147771 -0.069163
C29   C     C_R   0.076887 0.167761 0.852933 -0.013834
C30   C     C_R   0.894317 0.800790 0.103520 -0.083977
C31   C     C_R   0.800915 0.105622 0.896121 -0.119258
C32   C     C_R   0.166563 0.924272 0.147768 -0.069651
H1    H     H_    0.458442 0.717431 0.663578 0.150391
H2    H     H_    0.576258 0.245665 0.397943 0.131264
H3    H     H_    0.755110 0.576821 0.600487 0.112144
H4    H     H_    0.283587 0.459303 0.335624 0.109107
H5    H     H_    0.541467 0.282665 0.663716 0.149427
H6    H     H_    0.423739 0.754329 0.397842 0.131629
H7    H     H_    0.244722 0.422627 0.598090 0.143557
H8    H     H_    0.716299 0.540591 0.335536 0.108717
H9    H     H_    0.458659 0.279326 0.341624 0.102889
H10   H     H_    0.580593 0.755681 0.601659 0.159909
H11   H     H_    0.755245 0.419732 0.395498 0.122081
H12   H     H_    0.279310 0.540715 0.658071 0.101986
H13   H     H_    0.541312 0.720616 0.341542 0.102530
H14   H     H_    0.419370 0.244461 0.602617 0.161489
H15   H     H_    0.244783 0.580251 0.395424 0.121983
H16   H     H_    0.720612 0.459232 0.658083 0.092341
H17   H     H_    0.959469 0.220188 0.158569 0.096546
H18   H     H_    0.080482 0.744667 0.896904 0.174424
H19   H     H_    0.255399 0.080732 0.104190 0.112939
H20   H     H_    0.779702 0.959366 0.841961 0.085028
H21   H     H_    0.040573 0.779753 0.158594 0.096144
H22   H     H_    0.919586 0.255358 0.896887 0.175043
H23   H     H_    0.744606 0.919266 0.104261 0.112178
H24   H     H_    0.220041 0.040335 0.841712 0.086731
H25   H     H_    0.957786 0.781890 0.836908 0.158510
H26   H     H_    0.077131 0.255139 0.098947 0.092758
H27   H     H_    0.254896 0.923700 0.898698 0.101984
H28   H     H_    0.783949 0.040351 0.164647 0.102965
H29   H     H_    0.041278 0.216956 0.836141 0.156062
H30   H     H_    0.922911 0.744886 0.099166 0.093654
H31   H     H_    0.745182 0.076388 0.898501 0.100140
H32   H     H_    0.216019 0.959645 0.164628 0.102776
N1    N     N_R   0.424590 0.632770 0.578330 -0.055829
N2    N     N_R   0.575410 0.367230 0.421670 -0.060896
N3    N     N_R   0.632770 0.575410 0.578330 -0.055721
N4    N     N_R   0.367230 0.424590 0.421670 -0.051188
N5    N     N_R   0.575410 0.367230 0.578330 -0.055296
N6    N     N_R   0.424590 0.632770 0.421670 -0.060896
N7    N     N_R   0.367230 0.424590 0.578330 -0.059945
N8    N     N_R   0.632770 0.575410 0.421670 -0.050511
N9    N     N_R   0.424590 0.367230 0.421670 -0.055077
N10   N     N_R   0.575410 0.632770 0.578330 -0.072501
N11   N     N_R   0.632770 0.424590 0.421670 -0.054615
N12   N     N_R   0.367230 0.575410 0.578330 -0.043289
N13   N     N_R   0.575410 0.632770 0.421670 -0.055236
N14   N     N_R   0.424590 0.367230 0.578330 -0.071567
N15   N     N_R   0.367230 0.575410 0.421670 -0.054559
N16   N     N_R   0.632770 0.424590 0.578330 -0.042481
N17   N     N_R   0.924590 0.132770 0.078330 -0.054967
N18   N     N_R   0.075410 0.867230 0.921670 -0.070630
N19   N     N_R   0.132770 0.075410 0.078330 -0.058855
N20   N     N_R   0.867230 0.924590 0.921670 -0.047067
N21   N     N_R   0.075410 0.867230 0.078330 -0.055042
N22   N     N_R   0.924590 0.132770 0.921670 -0.070225
N23   N     N_R   0.867230 0.924590 0.078330 -0.058792
N24   N     N_R   0.132770 0.075410 0.921670 -0.046441
N25   N     N_R   0.924590 0.867230 0.921670 -0.059185
N26   N     N_R   0.075410 0.132770 0.078330 -0.061446
N27   N     N_R   0.132770 0.924590 0.921670 -0.054215
N28   N     N_R   0.867230 0.075410 0.078330 -0.043509
N29   N     N_R   0.075410 0.132770 0.921670 -0.057712
N30   N     N_R   0.924590 0.867230 0.078330 -0.061452
N31   N     N_R   0.867230 0.075410 0.921670 -0.054281
N32   N     N_R   0.132770 0.924590 0.078330 -0.043391
C33   C     C_3   0.327604 0.322954 0.248589 -0.029992
C34   C     C_3   0.739078 0.735154 0.655661 -0.100965
C35   C     C_3   0.266394 0.737801 0.338224 -0.098147
C36   C     C_3   0.678845 0.326367 0.749624 -0.070494
C37   C     C_3   0.672270 0.676917 0.248507 -0.030040
C38   C     C_3   0.260625 0.265315 0.656493 -0.074605
C39   C     C_3   0.733703 0.262119 0.338460 -0.097846
C40   C     C_3   0.320943 0.673950 0.749528 -0.063796
C41   C     C_3   0.820352 0.825602 0.750349 -0.045930
C42   C     C_3   0.233846 0.239296 0.158807 -0.098077
C43   C     C_3   0.761735 0.233764 0.840717 -0.088670
C44   C     C_3   0.172470 0.822377 0.250152 -0.116391
C45   C     C_3   0.178856 0.173493 0.749749 -0.042501
C46   C     C_3   0.766176 0.760750 0.159001 -0.097701
C47   C     C_3   0.238571 0.766455 0.841167 -0.086175
C48   C     C_3   0.827522 0.177594 0.250198 -0.116289
Ni1   Ni    Ni4+2 0.500000 0.631570 0.500000 0.274038
Ni2   Ni    Ni4+2 0.500000 0.368430 0.500000 0.274352
Ni3   Ni    Ni4+2 0.631570 0.500000 0.500000 0.267163
Ni4   Ni    Ni4+2 0.368430 0.500000 0.500000 0.268037
Ni5   Ni    Ni4+2 1.000000 0.131570 0.000000 0.266398
Ni6   Ni    Ni4+2 0.000000 0.868430 0.000000 0.265722
Ni7   Ni    Ni4+2 0.131570 0.000000 0.000000 0.261676
Ni8   Ni    Ni4+2 0.868430 0.000000 0.000000 0.261640
C49   C     C_R   0.362952 0.633902 0.688835 0.118442
C50   C     C_R   0.681555 0.315901 0.377207 0.164796
C51   C     C_R   0.685766 0.683356 0.616344 0.138504
C52   C     C_R   0.367211 0.364261 0.310243 0.144227
C53   C     C_R   0.636721 0.366395 0.689027 0.118546
C54   C     C_R   0.318527 0.684030 0.376985 0.164239
C55   C     C_R   0.314274 0.316986 0.617258 0.133842
C56   C     C_R   0.632614 0.635560 0.310116 0.144660
C57   C     C_R   0.868071 0.135092 0.190143 0.067935
C58   C     C_R   0.185148 0.817793 0.880709 0.120796
C59   C     C_R   0.182105 0.185156 0.120108 0.188491
C60   C     C_R   0.862032 0.865023 0.811793 0.123615
C61   C     C_R   0.131883 0.864912 0.190157 0.067899
C62   C     C_R   0.815085 0.182195 0.880163 0.122173
C63   C     C_R   0.817952 0.814905 0.120346 0.188757
C64   C     C_R   0.137132 0.133962 0.811161 0.121544
C65   C     C_3   0.823415 0.717662 0.682930 -0.248766
C66   C     C_3   0.295444 0.350775 0.170110 -0.255618
C67   C     C_3   0.651248 0.296200 0.828870 -0.271019
C68   C     C_3   0.288504 0.817868 0.302217 -0.163443
C69   C     C_3   0.176584 0.282859 0.684679 -0.270504
C70   C     C_3   0.704957 0.649064 0.170247 -0.254745
C71   C     C_3   0.348161 0.702454 0.829502 -0.268402
C72   C     C_3   0.711660 0.181930 0.302703 -0.164363
C73   C     C_3   0.769323 0.289558 0.261077 -0.309362
C74   C     C_3   0.238902 0.654163 0.781885 -0.260099
C75   C     C_3   0.651518 0.757560 0.213933 -0.239511
C76   C     C_3   0.285445 0.241356 0.739051 -0.205800
C77   C     C_3   0.230441 0.710288 0.261043 -0.309268
C78   C     C_3   0.760180 0.347070 0.783124 -0.236613
C79   C     C_3   0.348220 0.242161 0.214291 -0.239231
C80   C     C_3   0.714466 0.757180 0.738800 -0.208720
C81   C     C_3   0.266600 0.212344 0.237415 -0.294897
C82   C     C_3   0.736106 0.842896 0.722725 -0.220627
C83   C     C_3   0.150585 0.742854 0.286248 -0.225894
C84   C     C_3   0.789035 0.264742 0.761367 -0.182401
C85   C     C_3   0.732899 0.787748 0.237378 -0.294945
C86   C     C_3   0.262856 0.156122 0.721414 -0.223947
C87   C     C_3   0.849340 0.257238 0.286047 -0.226219
C88   C     C_3   0.211738 0.737267 0.761046 -0.189451
C89   C     C_3   0.320678 0.786247 0.809202 -0.257864
C90   C     C_3   0.792628 0.149417 0.327273 -0.245276
C91   C     C_3   0.153494 0.196898 0.667688 -0.269301
C92   C     C_3   0.787025 0.679782 0.193164 -0.233303
C93   C     C_3   0.680318 0.213232 0.807576 -0.257501
C94   C     C_3   0.207703 0.850618 0.327029 -0.244465
C95   C     C_3   0.845395 0.804269 0.667592 -0.258227
C96   C     C_3   0.213128 0.320416 0.192696 -0.234861
C97   C     C_3   0.245687 0.292303 0.270222 0.349601
C98   C     C_3   0.761057 0.820514 0.640310 0.298179
C99   C     C_3   0.186665 0.770438 0.362777 0.391007
C100  C     C_3   0.708491 0.243796 0.729205 0.328138
C101  C     C_3   0.753954 0.707936 0.270467 0.349098
C102  C     C_3   0.237629 0.180436 0.639586 0.302229
C103  C     C_3   0.813599 0.229715 0.362772 0.392615
C104  C     C_3   0.292981 0.757341 0.730052 0.329014
C105  C     C_3   0.797939 0.739564 0.765194 0.322592
C106  C     C_3   0.315161 0.269459 0.136159 0.368357
C107  C     C_3   0.732875 0.315668 0.862041 0.309747
C108  C     C_3   0.252681 0.789184 0.226000 0.362793
C109  C     C_3   0.202216 0.258923 0.766133 0.314404
C110  C     C_3   0.685105 0.730229 0.136020 0.368096
C111  C     C_3   0.265864 0.683800 0.861529 0.311408
C112  C     C_3   0.747149 0.210545 0.226286 0.362274
N33   N     N_R   0.207814 0.302380 0.345300 0.245676
O1    O     O_R   0.144077 0.343122 0.351715 -0.375714
O2    O     O_R   0.238983 0.271987 0.406772 -0.349050
N34   N     N_R   0.741742 0.865590 0.571465 0.247345
O3    O     O_R   0.767463 0.936689 0.564210 -0.321332
O4    O     O_R   0.697345 0.836074 0.518032 -0.329967
N35   N     N_R   0.150019 0.759769 0.438091 0.253154
O5    O     O_R   0.085851 0.796815 0.454583 -0.349046
O6    O     O_R   0.177083 0.708286 0.486286 -0.353096
N36   N     N_R   0.699802 0.202782 0.655564 0.239312
O7    O     O_R   0.705651 0.127106 0.654189 -0.324482
O8    O     O_R   0.710577 0.240843 0.591510 -0.357921
N37   N     N_R   0.791446 0.698190 0.345768 0.245426
O9    O     O_R   0.855239 0.657602 0.352625 -0.377320
O10   O     O_R   0.759881 0.728718 0.406988 -0.350922
N38   N     N_R   0.256269 0.136457 0.569876 0.247971
O11   O     O_R   0.229401 0.065944 0.561250 -0.322642
O12   O     O_R   0.301943 0.165956 0.517470 -0.331450
N39   N     N_R   0.850543 0.240628 0.437889 0.253572
O13   O     O_R   0.914555 0.203310 0.454362 -0.349806
O14   O     O_R   0.824372 0.293082 0.485531 -0.355583
N40   N     N_R   0.303215 0.798881 0.656878 0.237028
O15   O     O_R   0.301657 0.874768 0.656378 -0.327261
O16   O     O_R   0.290327 0.762200 0.592428 -0.357939
N41   N     N_R   0.813488 0.696537 0.836614 0.219946
O17   O     O_R   0.847830 0.628928 0.835216 -0.316472
O18   O     O_R   0.787456 0.723299 0.901983 -0.380642
N42   N     N_R   0.353491 0.257058 0.061943 0.243355
O19   O     O_R   0.419768 0.291156 0.047253 -0.321804
O20   O     O_R   0.323369 0.209845 0.011267 -0.364396
N43   N     N_R   0.748557 0.353533 0.935899 0.250581
O21   O     O_R   0.691346 0.375978 0.980011 -0.313313
O22   O     O_R   0.820210 0.366659 0.957231 -0.347055
N44   N     N_R   0.286329 0.797153 0.148589 0.255640
O23   O     O_R   0.351494 0.834608 0.137871 -0.387070
O24   O     O_R   0.249112 0.769440 0.089098 -0.328936
N45   N     N_R   0.185613 0.300985 0.837851 0.219157
O25   O     O_R   0.138161 0.360197 0.838525 -0.317952
O26   O     O_R   0.215230 0.276516 0.902591 -0.379876
N46   N     N_R   0.647185 0.742317 0.061559 0.243079
O27   O     O_R   0.580963 0.708200 0.046706 -0.322695
O28   O     O_R   0.677831 0.788951 0.010638 -0.363932
N47   N     N_R   0.248870 0.644988 0.934653 0.249625
O29   O     O_R   0.305297 0.621282 0.979088 -0.315930
O30   O     O_R   0.176838 0.632220 0.954953 -0.349614
N48   N     N_R   0.713247 0.202360 0.149025 0.255849
O31   O     O_R   0.648058 0.164861 0.138652 -0.385948
O32   O     O_R   0.750251 0.229941 0.089323 -0.327494
C113  C     C_2   0.875470 0.653741 0.653276 0.634623
H33   H     H_    0.884291 0.647918 0.591520 0.022036
O33   O     O_2   0.908865 0.609182 0.697071 -0.435707
C114  C     C_2   0.314931 0.426238 0.130873 0.781841
H34   H     H_    0.288425 0.440181 0.075702 0.073778
O34   O     O_2   0.360916 0.471850 0.160275 -0.521226
C115  C     C_2   0.574977 0.315227 0.867007 0.737372
H35   H     H_    0.559481 0.287087 0.920987 0.071373
O35   O     O_2   0.530349 0.362356 0.837982 -0.555350
C116  C     C_2   0.363928 0.861862 0.311284 0.562386
H36   H     H_    0.407227 0.861627 0.265856 0.079980
O36   O     O_2   0.378719 0.895514 0.371627 -0.495107
C117  C     C_2   0.124407 0.349387 0.661906 0.696644
H37   H     H_    0.081000 0.341086 0.617047 0.025008
O37   O     O_2   0.131924 0.413567 0.691413 -0.514365
C118  C     C_2   0.685910 0.573464 0.131093 0.779404
H38   H     H_    0.712825 0.559439 0.076129 0.074399
O38   O     O_2   0.639795 0.527843 0.160316 -0.521087
C119  C     C_2   0.423753 0.681673 0.868046 0.736013
H39   H     H_    0.438961 0.708467 0.922755 0.072137
O39   O     O_2   0.468171 0.634671 0.838506 -0.554044
C120  C     C_2   0.636402 0.137734 0.312211 0.563305
H40   H     H_    0.593044 0.137474 0.266854 0.079840
O40   O     O_2   0.621820 0.104456 0.372821 -0.494268
C121  C     C_2   0.757883 0.368080 0.223880 0.702945
H41   H     H_    0.782490 0.419801 0.250614 -0.046102
O41   O     O_2   0.721218 0.374377 0.163855 -0.435904
C122  C     C_2   0.194524 0.579051 0.774244 0.726185
H42   H     H_    0.220206 0.525280 0.795472 0.030589
O42   O     O_2   0.129961 0.577710 0.744515 -0.437783
C123  C     C_2   0.576121 0.801559 0.219626 0.579852
H43   H     H_    0.574583 0.858926 0.246008 -0.018203
O43   O     O_2   0.515925 0.772666 0.194934 -0.500311
C124  C     C_2   0.356508 0.269153 0.782165 0.700476
H44   H     H_    0.351399 0.316151 0.823803 0.063373
O44   O     O_2   0.420652 0.241390 0.768551 -0.551266
C125  C     C_2   0.241579 0.631659 0.223994 0.702267
H45   H     H_    0.216848 0.580068 0.250887 -0.044471
O45   O     O_2   0.278146 0.625125 0.163920 -0.436754
C126  C     C_2   0.802514 0.423555 0.776815 0.696276
H46   H     H_    0.775590 0.476032 0.799615 0.028520
O46   O     O_2   0.866500 0.427565 0.746077 -0.459714
C127  C     C_2   0.423370 0.197793 0.220423 0.579099
H47   H     H_    0.424543 0.140600 0.247205 -0.017295
O47   O     O_2   0.483789 0.226211 0.195691 -0.500055
C128  C     C_2   0.643768 0.728080 0.781771 0.701727
H48   H     H_    0.649605 0.681213 0.823474 0.060970
O48   O     O_2   0.579180 0.754753 0.768089 -0.551154
C129  C     C_2   0.249277 0.136917 0.278118 0.679328
H49   H     H_    0.295798 0.095643 0.289672 0.018399
O49   O     O_2   0.182520 0.121393 0.297601 -0.520758
C130  C     C_2   0.687399 0.914300 0.737082 0.659349
H50   H     H_    0.707257 0.970444 0.715741 0.077405
O50   O     O_2   0.626151 0.910201 0.772847 -0.473353
C131  C     C_2   0.074170 0.700358 0.282385 0.581522
H51   H     H_    0.071018 0.642908 0.256250 0.002617
O51   O     O_2   0.015099 0.730514 0.308151 -0.499606
C132  C     C_2   0.863341 0.244473 0.719449 0.669118
H52   H     H_    0.862645 0.200666 0.674251 0.083809
O52   O     O_2   0.925131 0.274971 0.737463 -0.557209
C133  C     C_2   0.749750 0.863319 0.277981 0.679563
H53   H     H_    0.702999 0.904371 0.289420 0.017458
O53   O     O_2   0.816388 0.879188 0.297560 -0.521223
C134  C     C_2   0.310604 0.083783 0.734172 0.660329
H54   H     H_    0.289438 0.028235 0.712597 0.076551
O54   O     O_2   0.372495 0.086466 0.768938 -0.471913
C135  C     C_2   0.925607 0.299979 0.281837 0.581431
H55   H     H_    0.928509 0.357352 0.255491 0.002708
O55   O     O_2   0.984840 0.270101 0.307540 -0.499095
C136  C     C_2   0.138358 0.759505 0.718490 0.680929
H56   H     H_    0.140790 0.802545 0.672619 0.080507
O56   O     O_2   0.075458 0.731411 0.736598 -0.541656
C137  C     C_2   0.371447 0.855169 0.828156 0.629387
H57   H     H_    0.384478 0.868254 0.888054 0.018981
O57   O     O_2   0.399958 0.895350 0.777308 -0.460355
C138  C     C_2   0.813719 0.072899 0.363755 0.731714
H58   H     H_    0.874710 0.058738 0.373316 0.046023
O58   O     O_2   0.763294 0.026447 0.382855 -0.480893
C139  C     C_2   0.081128 0.170289 0.626695 0.682546
H59   H     H_    0.070123 0.189529 0.568041 0.065629
O59   O     O_2   0.034556 0.127125 0.658745 -0.545044
C140  C     C_2   0.861723 0.634779 0.184531 0.603947
H60   H     H_    0.915720 0.658694 0.207088 0.062131
O60   O     O_2   0.862307 0.571194 0.152691 -0.569436
C141  C     C_2   0.630214 0.143254 0.824406 0.627737
H61   H     H_    0.615869 0.129124 0.883785 0.018616
O61   O     O_2   0.603607 0.103387 0.772347 -0.465839
C142  C     C_2   0.186868 0.927223 0.363458 0.729792
H62   H     H_    0.125932 0.941527 0.373167 0.046626
O62   O     O_2   0.237439 0.973582 0.382364 -0.481755
C143  C     C_2   0.917393 0.832235 0.626791 0.702384
H63   H     H_    0.928452 0.813959 0.567846 0.060881
O63   O     O_2   0.963618 0.875369 0.659333 -0.545733
C144  C     C_2   0.138672 0.365764 0.183758 0.608284
H64   H     H_    0.084335 0.341785 0.205424 0.060212
O64   O     O_2   0.138705 0.429834 0.152957 -0.569450

loop_
_geom_bond_atom_site_label_1
_geom_bond_atom_site_label_2
_geom_bond_distance
_ccdc_geom_bond_type
N36   O8    1.299624 A    
C72   C112  1.536092 S    
C5    H5    1.080365 S    
C100  N36   1.463645 S    
C47   C89   1.547406 S    
C107  N43   1.459076 S    
C4    H4    1.080394 S    
C48   C112  1.543683 S    
C34   C80   1.546981 S    
C35   C77   1.545148 S    
C73   C112  1.528819 S    
C71   C119  1.498853 S    
C74   C111  1.540548 S    
C130  H50   1.084305 S    
C33   C52   1.449057 S    
C32   C61   1.386748 A    
N21   N32   1.388094 A    
N23   N30   1.389147 A    
N17   Ni5   1.872289 S    
C37   C56   1.448901 S    
C82   C98   1.538427 S    
C104  N40   1.463629 S    
N37   O10   1.299872 A    
C120  O40   1.220017 D    
C82   C130  1.501057 S    
C86   C102  1.539015 S    
C127  H47   1.083780 S    
C126  H46   1.084603 S    
C116  O36   1.220018 D    
C131  O51   1.219958 D    
C144  H64   1.083165 S    
C38   C69   1.548314 S    
C48   C57   1.446970 S    
C2    H2    1.076365 S    
C117  H37   1.084304 S    
N1    Ni1   1.872289 S    
C20   C60   1.371555 A    
N13   Ni1   1.872262 S    
C21   C61   1.371685 A    
C3    C51   1.362343 A    
C136  O56   1.219596 D    
C109  N45   1.463818 S    
C143  H63   1.084484 S    
N26   Ni5   1.872662 S    
C119  H39   1.084488 S    
C88   C136  1.505369 S    
C45   C91   1.539250 S    
C78   C126  1.500205 S    
C46   C92   1.549301 S    
N40   O15   1.299798 A    
C36   C78   1.548949 S    
C140  H60   1.083408 S    
C67   C115  1.498777 S    
N9    Ni2   1.872664 S    
C16   N16   1.321999 A    
C47   C88   1.544799 S    
C31   H31   1.077571 S    
N39   O14   1.299581 A    
C47   C58   1.441797 S    
N47   O29   1.300095 A    
C42   C81   1.543116 S    
C106  N42   1.458583 S    
C92   C101  1.531516 S    
N3    N10   1.389147 A    
N24   Ni7   1.872895 S    
N48   O32   1.300902 A    
C46   C85   1.543029 S    
N4    Ni4   1.873204 S    
C96   C97   1.531517 S    
C70   C110  1.548894 S    
C125  O45   1.219210 D    
C18   C58   1.374380 A    
N11   Ni3   1.873219 S    
N18   Ni6   1.872288 S    
C75   C123  1.497848 S    
C123  O43   1.219960 D    
C44   C94   1.539576 S    
C43   C107  1.532484 S    
N6    N15   1.388094 A    
C25   N25   1.332607 A    
C41   C105  1.543638 S    
C23   H23   1.081837 S    
C26   N26   1.323667 A    
C9    H9    1.075036 S    
C77   C83   1.539462 S    
C44   C61   1.446870 S    
C30   N30   1.323616 A    
C13   H13   1.075097 S    
C44   C83   1.544112 S    
C18   N18   1.330978 A    
N22   Ni5   1.872680 S    
C69   C109  1.533273 S    
C79   C81   1.539655 S    
C67   C107  1.546632 S    
N22   N31   1.388094 A    
C77   C125  1.503856 S    
C96   C144  1.500646 S    
N42   O19   1.300310 A    
N38   O12   1.299549 A    
C7    H7    1.076911 S    
C108  N44   1.465316 S    
C8    H8    1.080395 S    
C71   C89   1.550675 S    
C17   C57   1.371634 A    
C78   C107  1.540996 S    
C43   C93   1.547215 S    
C117  O37   1.218832 D    
C36   C100  1.543649 S    
C37   C101  1.542688 S    
C40   C104  1.543642 S    
N12   Ni4   1.873218 S    
N8    Ni3   1.872895 S    
N45   O25   1.299548 A    
C43   C62   1.442692 S    
C73   C87   1.539356 S    
N33   O2    1.299756 A    
C74   C88   1.540251 S    
N19   Ni7   1.873203 S    
C114  H34   1.084450 S    
C4    C52   1.386360 A    
C66   C96   1.551168 S    
C121  H41   1.084315 S    
C67   C93   1.550196 S    
C68   C108  1.536120 S    
N17   N28   1.388094 A    
C8    C56   1.386355 A    
C15   N15   1.331997 A    
C12   C49   1.371810 A    
C76   C109  1.529521 S    
C137  O57   1.219073 D    
C1    N1    1.333293 A    
C6    H6    1.076395 S    
C27   N27   1.323531 A    
C16   C53   1.371513 A    
C24   C64   1.371139 A    
N21   Ni6   1.872679 S    
C87   C135  1.497612 S    
C31   C62   1.361576 A    
C19   N19   1.333193 A    
C138  O58   1.218826 D    
C35   C54   1.447648 S    
C28   H28   1.080653 S    
N6    Ni1   1.872680 S    
C29   H29   1.079979 S    
C101  N37   1.463144 S    
C40   C74   1.548798 S    
C32   H32   1.080660 S    
C17   H17   1.075799 S    
C4    N4    1.334360 A    
C89   C104  1.532636 S    
C111  N47   1.459279 S    
C90   C103  1.548254 S    
C72   C120  1.502276 S    
C84   C100  1.529157 S    
C143  O63   1.219992 D    
C142  O62   1.218801 D    
C133  H53   1.083651 S    
C36   C67   1.540366 S    
C113  O33   1.218505 D    
C37   C70   1.542020 S    
N44   O24   1.300927 A    
C3    H3    1.078166 S    
C47   C111  1.531896 S    
N41   O17   1.298953 A    
C40   C71   1.540730 S    
C84   C132  1.504920 S    
C115  O35   1.219922 D    
C124  O44   1.219507 D    
N47   O30   1.300097 A    
C137  H57   1.084523 S    
C139  O59   1.219985 D    
N27   Ni7   1.873219 S    
C11   C50   1.375342 A    
C39   C73   1.545164 S    
C45   C109  1.542632 S    
C37   C75   1.546669 S    
C122  H42   1.084763 S    
C2    N2    1.323151 A    
C129  O49   1.220223 D    
C110  N46   1.458606 S    
N29   Ni5   1.872262 S    
C20   N20   1.321021 A    
N28   Ni8   1.873218 S    
C11   N11   1.332077 A    
N30   Ni6   1.872263 S    
N7    Ni4   1.872897 S    
N37   O9    1.300017 A    
C1    C49   1.386353 A    
C34   C98   1.532219 S    
C126  O46   1.219311 D    
C5    C53   1.386379 A    
C27   C58   1.360640 A    
C128  H48   1.084297 S    
C12   H12   1.075398 S    
C144  O64   1.219853 D    
C7    C55   1.361335 A    
C25   C60   1.386094 A    
C65   C113  1.502292 S    
C42   C106  1.534793 S    
C26   C59   1.360669 A    
C75   C85   1.539727 S    
C10   H10   1.081768 S    
N32   Ni7   1.872924 S    
C66   C114  1.497272 S    
C115  H35   1.084484 S    
N39   O13   1.300314 A    
N46   O27   1.300314 A    
C123  H43   1.083805 S    
C14   H14   1.081749 S    
N1    N12   1.388094 A    
C70   C92   1.551045 S    
N40   O16   1.299727 A    
C140  O60   1.220639 D    
C129  H49   1.083600 S    
C132  H52   1.084358 S    
C85   C133  1.500715 S    
C80   C105  1.530128 S    
C141  O61   1.219114 D    
C5    N5    1.333665 A    
N24   N29   1.389147 A    
C74   C122  1.499060 S    
C118  O38   1.219821 D    
C134  O54   1.219279 D    
N36   O7    1.300033 A    
C125  H45   1.084310 S    
N14   Ni2   1.872263 S    
C41   C60   1.447985 S    
C92   C140  1.500552 S    
C2    C50   1.363205 A    
C68   C94   1.553081 S    
C42   C59   1.446338 S    
C21   N21   1.323226 A    
C8    N8    1.334402 A    
C34   C65   1.548090 S    
C89   C137  1.501378 S    
C6    C54   1.363187 A    
C22   H22   1.081414 S    
C10   C51   1.373122 A    
N10   Ni1   1.872662 S    
C73   C121  1.503818 S    
C77   C108  1.528815 S    
C14   C55   1.374311 A    
N35   O5    1.300312 A    
C71   C111  1.546605 S    
C135  H55   1.084278 S    
N35   O6    1.299602 A    
C120  H40   1.080700 S    
C131  H51   1.084277 S    
N16   Ni3   1.872924 S    
N20   Ni8   1.873204 S    
C70   C118  1.497244 S    
C39   C103  1.534862 S    
C116  H36   1.080669 S    
C33   C79   1.546698 S    
C99   N35   1.458595 S    
C26   H26   1.078018 S    
C80   C128  1.504813 S    
C76   C124  1.504204 S    
C75   C110  1.539655 S    
N42   O20   1.299785 A    
C12   N12   1.322190 A    
C86   C134  1.500797 S    
C91   C139  1.498286 S    
C65   C95   1.552566 S    
C118  H38   1.084462 S    
C18   H18   1.081320 S    
C6    N6    1.323157 A    
N2    Ni2   1.872288 S    
N31   Ni8   1.872923 S    
C102  N38   1.458442 S    
C23   C63   1.376215 A    
C103  N39   1.458571 S    
C29   N29   1.332903 A    
N33   O1    1.299920 A    
C31   N31   1.323746 A    
N2    N11   1.388094 A    
C130  O50   1.219322 D    
C114  O34   1.219830 D    
C17   N17   1.323105 A    
C22   N22   1.331068 A    
N48   O31   1.299271 A    
C112  N48   1.465275 S    
N18   N27   1.388094 A    
C29   C64   1.386348 A    
C46   C110  1.534751 S    
C20   H20   1.073444 S    
C30   C63   1.360680 A    
C81   C97   1.525310 S    
C39   C50   1.447778 S    
C85   C101  1.525340 S    
C93   C141  1.501420 S    
C139  H59   1.084463 S    
C48   C87   1.544167 S    
C90   C138  1.498960 S    
C15   H15   1.081733 S    
C24   H24   1.073653 S    
N43   O21   1.300091 A    
C39   C72   1.552713 S    
C16   H16   1.075041 S    
C1    H1    1.080383 S    
C22   C62   1.373997 A    
N34   O4    1.299591 A    
C127  O47   1.219946 D    
N43   O22   1.300132 A    
C7    N7    1.323743 A    
C119  O39   1.219927 D    
C35   C99   1.534817 S    
C9    C52   1.372240 A    
C33   C97   1.542575 S    
C44   C108  1.543738 S    
C28   C57   1.386808 A    
C105  N41   1.464198 S    
N3    Ni3   1.873203 S    
C38   C76   1.547105 S    
C13   C56   1.372169 A    
N38   O11   1.300351 A    
C15   C54   1.375315 A    
C11   H11   1.081735 S    
C68   C116  1.502258 S    
C43   C84   1.545130 S    
C133  O53   1.220222 D    
C93   C100  1.532253 S    
C41   C82   1.547877 S    
C94   C99   1.548185 S    
C87   C103  1.536554 S    
N15   Ni4   1.872923 S    
C45   C64   1.448466 S    
C88   C104  1.529083 S    
C46   C63   1.446207 S    
C9    N9    1.323696 A    
C45   C86   1.547898 S    
C95   C98   1.544172 S    
C19   C59   1.376269 A    
C34   C51   1.442907 S    
C13   N13   1.323753 A    
N5    Ni2   1.872679 S    
C81   C129  1.500716 S    
C36   C53   1.446281 S    
C25   H25   1.080146 S    
C122  O42   1.219221 D    
C38   C55   1.444238 S    
C79   C106  1.539564 S    
C40   C49   1.446616 S    
N4    N9    1.389147 A    
C41   C95   1.540004 S    
N34   O3    1.300354 A    
C121  O41   1.219189 D    
C42   C96   1.549406 S    
N8    N13   1.389147 A    
C83   C99   1.536616 S    
C24   N24   1.321456 A    
C69   C117  1.500725 S    
C28   N28   1.334612 A    
C76   C86   1.540239 S    
C135  O55   1.219955 D    
C32   N32   1.334561 A    
C80   C82   1.538840 S    
C69   C91   1.552016 S    
C94   C142  1.498946 S    
C128  O48   1.219525 D    
C35   C68   1.552630 S    
N20   N25   1.389147 A    
C98   N34   1.458431 S    
C66   C106  1.549003 S    
C33   C66   1.542008 S    
C138  H58   1.084426 S    
C113  H33   1.084768 S    
N19   N26   1.389147 A    
C136  H56   1.084358 S    
C134  H54   1.084083 S    
C72   C90   1.553131 S    
C3    N3    1.324591 A    
N46   O28   1.299807 A    
C38   C102  1.533778 S    
C48   C90   1.539583 S    
C142  H62   1.084430 S    
C30   H30   1.078072 S    
C97   N33   1.463055 S    
N23   Ni8   1.872897 S    
N45   O26   1.300037 A    
C27   H27   1.077747 S    
C21   H21   1.075863 S    
C10   N10   1.331021 A    
N44   O23   1.299284 A    
C79   C127  1.497945 S    
C83   C131  1.497538 S    
N41   O18   1.300194 A    
C132  O52   1.219641 D    
C14   N14   1.331722 A    
C141  H61   1.084498 S    
C124  H44   1.084268 S    
C78   C84   1.540927 S    
C19   H19   1.081832 S    
C65   C105  1.536506 S    
N25   Ni6   1.872664 S    
N5    N16   1.388094 A    
C23   N23   1.333134 A    
C91   C102  1.545846 S    
C95   C143  1.498427 S    
N7    N14   1.389147 A    
