data_mof_unit_18536.cif
_audit_creation_date              2012-10-26T19:06:51-0400
_audit_creation_method            fapswitch 2.2
_symmetry_space_group_name_H-M    P1
_symmetry_Int_Tables_number       1
_space_group_crystal_system       triclinic
_cell_length_a                    12.383713
_cell_length_b                    13.115821
_cell_length_c                    27.702715
_cell_angle_alpha                 76.873358
_cell_angle_beta                  101.174289
_cell_angle_gamma                 116.805975
_cell_volume                      3889.41122289

loop_
_atom_site_label
_atom_site_type_symbol
_atom_type_description
_atom_site_fract_x
_atom_site_fract_y
_atom_site_fract_z
_atom_type_partial_charge
C1    C     C_R   0.854377 0.285817 0.503785 0.524160
C2    C     C_R   0.870682 0.412099 0.023578 0.061590
C3    C     C_R   0.092524 0.491659 0.036286 -0.036544
C4    C     C_R   0.999505 0.499587 0.592543 0.549347
C5    C     C_R   0.980096 0.450025 0.055548 -0.089036
C6    C     C_R   0.762805 0.396391 0.040418 0.275272
C7    C     C_R   0.758452 0.391311 0.091686 0.240474
C8    C     C_R   0.866561 0.418832 0.124746 0.036885
C9    C     C_R   0.977572 0.447691 0.106595 -0.144852
C10   C     C_R   0.086221 0.474130 0.139405 -0.008712
C11   C     C_R   0.081187 0.472599 0.189948 0.465283
C12   C     C_R   0.066582 0.440844 0.732407 0.299616
C13   C     C_R   0.868026 0.421762 0.175484 0.461488
C14   C     C_R   0.966478 0.364720 0.295079 0.292063
C15   C     C_R   0.974168 0.375850 0.344871 0.143088
C16   C     C_R   0.144963 0.714445 0.490485 0.556463
C17   C     C_R   0.988078 0.572589 0.317847 0.165858
C18   C     C_R   0.986188 0.562227 0.267855 0.234089
C19   C     C_R   0.974078 0.457960 0.257005 0.200079
C20   C     C_R   0.875062 0.398540 0.974577 0.096293
C21   C     C_R   0.987326 0.459874 0.953609 -0.074087
C22   C     C_R   0.095489 0.516281 0.983796 -0.034130
C23   C     C_R   0.996138 0.482714 0.748863 0.189540
C24   C     C_R   0.773212 0.323193 0.946627 0.279660
C25   C     C_R   0.205849 0.599658 0.909687 0.303020
C26   C     C_R   0.196721 0.501507 0.070143 0.246484
C27   C     C_R   0.195865 0.499687 0.120903 0.271677
C28   C     C_R   0.997711 0.496350 0.408051 0.583181
C29   C     C_R   0.201481 0.596029 0.960310 0.268947
C30   C     C_R   0.275353 0.043870 0.459331 -0.124868
C31   C     C_R   0.227502 0.838493 0.477530 -0.004231
C32   C     C_R   0.807700 0.074778 0.528130 0.294084
C33   C     C_R   0.728035 0.957390 0.528109 0.204552
C34   C     C_R   0.991122 0.464972 0.902424 -0.105944
C35   C     C_R   0.606303 0.926300 0.509290 -0.116977
C36   C     C_R   0.563889 0.010277 0.485380 0.018842
C37   C     C_R   0.648304 0.128342 0.478437 -0.043246
C38   C     C_R   0.437615 0.981237 0.472269 0.075170
C39   C     C_R   0.397985 0.070044 0.459476 -0.023418
C40   C     C_R   0.889738 0.405728 0.822718 0.387392
C41   C     C_R   0.481459 0.183091 0.445182 -0.126027
C42   C     C_R   0.604534 0.209312 0.450308 -0.099480
C43   C     C_R   0.349160 0.867385 0.471633 0.166154
C44   C     C_R   0.189335 0.928316 0.469881 0.230120
C45   C     C_R   0.885482 0.399583 0.873526 0.000290
C46   C     C_R   0.770489 0.161725 0.501827 -0.047222
C47   C     C_R   0.373649 0.379785 0.594074 0.223305
C48   C     C_R   0.757968 0.639108 0.429973 0.074411
C49   C     C_R   0.668110 0.678668 0.415575 0.180873
C50   C     C_R   0.566115 0.630395 0.443168 0.252547
C51   C     C_R   0.555288 0.540343 0.484629 -0.013761
C52   C     C_R   0.098652 0.540918 0.828511 0.453658
C53   C     C_R   0.655787 0.510723 0.499189 0.067615
C54   C     C_R   0.451823 0.481645 0.513604 -0.066196
C55   C     C_R   0.464371 0.417447 0.561441 0.002751
C56   C     C_R   0.778839 0.326685 0.896128 -0.110849
C57   C     C_R   0.561897 0.385512 0.574003 0.226417
C58   C     C_R   0.652217 0.428456 0.541803 -0.056987
C59   C     C_R   0.332761 0.476100 0.496088 0.458982
C60   C     C_R   0.266857 0.392536 0.576507 0.041046
C61   C     C_R   0.926096 0.530141 0.714101 -0.089227
C62   C     C_R   0.928051 0.539587 0.662784 0.238273
C63   C     C_R   0.068620 0.449509 0.681392 -0.179338
C64   C     C_3   0.394349 0.624686 0.899436 0.034788
C65   C     C_3   0.503342 0.699303 0.870111 -0.332356
C66   C     C_3   0.280383 0.393107 0.053399 0.014204
C67   C     C_R   0.100143 0.535079 0.880168 -0.022187
C68   C     C_3   0.392939 0.397077 0.037549 -0.356936
C69   C     C_3   0.379921 0.632240 0.148889 0.028299
C70   C     C_3   0.490558 0.648540 0.186954 -0.325829
C71   C     C_3   0.011476 0.937276 0.430706 -0.003425
C72   C     C_3   0.905951 0.954341 0.441975 -0.320375
C73   C     C_3   0.071195 0.275267 0.777511 -0.011345
C74   C     C_3   0.145564 0.226073 0.817591 -0.352547
C75   C     C_3   0.909851 0.065501 0.606548 0.021851
C76   C     C_3   0.016597 0.147731 0.636653 -0.373553
C77   C     C_3   0.276778 0.401338 0.423889 -0.007170
C78   C     C_R   0.998089 0.496511 0.646108 -0.037017
C79   C     C_3   0.284440 0.439012 0.368019 -0.317588
C80   C     C_3   0.840342 0.180810 0.281763 0.008862
C81   C     C_3   0.836926 0.067597 0.274846 -0.352191
C82   C     C_3   0.901449 0.704734 0.628226 -0.030714
C83   C     C_3   0.968528 0.770172 0.582239 -0.282414
C84   C     C_R   0.987600 0.481437 0.356279 -0.029221
Cu1   Cu    Cu3+1 0.098270 0.475420 0.511360 1.010154
Cu2   Cu    Cu3+1 0.901730 0.524580 0.488640 0.938735
H1    H     H_    0.124595 0.417586 0.669665 0.145498
H2    H     H_    0.719090 0.395306 0.551380 0.181685
H3    H     H_    0.352053 0.536432 0.888957 0.128312
H4    H     H_    0.427675 0.619289 0.939801 0.171726
H5    H     H_    0.548826 0.787611 0.880166 0.170880
H6    H     H_    0.569412 0.660338 0.878856 0.102782
H7    H     H_    0.473395 0.705309 0.829503 0.197261
H8    H     H_    0.201538 0.351620 0.026124 0.120396
H9    H     H_    0.265017 0.339210 0.091022 0.164026
H10   H     H_    0.473600 0.441223 0.063328 0.198318
H11   H     H_    0.381688 0.307750 0.038499 0.111226
H12   H     H_    0.870403 0.560711 0.726983 0.146069
H13   H     H_    0.407288 0.444963 0.999071 0.139911
H14   H     H_    0.950547 0.705880 0.302321 0.337307
H15   H     H_    0.334594 0.682609 0.156654 0.139136
H16   H     H_    0.411917 0.667430 0.111153 0.169922
H17   H     H_    0.538910 0.600672 0.179787 0.189529
H18   H     H_    0.553702 0.741870 0.184261 0.100018
H19   H     H_    0.461870 0.615706 0.225184 0.190325
H20   H     H_    0.046858 0.726653 0.241894 0.334107
H21   H     H_    0.268339 0.697261 0.010233 0.325667
H22   H     H_    0.976164 0.868236 0.407306 0.162217
H23   H     H_    0.451551 0.250658 0.429093 0.103176
H24   H     H_    0.070120 0.019483 0.408342 0.126969
H25   H     H_    0.940869 0.024636 0.464719 0.199222
H26   H     H_    0.856717 0.978792 0.406700 0.130534
H27   H     H_    0.842123 0.873267 0.462876 0.190427
H28   H     H_    0.051757 0.234148 0.743897 0.122928
H29   H     H_    0.983889 0.252770 0.791979 0.155864
H30   H     H_    0.165263 0.264896 0.851799 0.157799
H31   H     H_    0.093856 0.130803 0.826766 0.107046
H32   H     H_    0.232713 0.245442 0.804140 0.181498
H33   H     H_    0.311261 0.743707 0.435476 0.366096
H34   H     H_    0.247599 0.113661 0.453186 0.116718
H35   H     H_    0.911144 0.979105 0.616899 0.180397
H36   H     H_    0.824995 0.059545 0.617793 0.115263
H37   H     H_    0.013488 0.233166 0.629383 0.145401
H38   H     H_    0.011091 0.113013 0.677015 0.093607
H39   H     H_    0.103457 0.157216 0.626482 0.190796
H40   H     H_    0.704728 0.796650 0.544955 0.319921
H41   H     H_    0.637846 0.292871 0.619707 0.324455
H42   H     H_    0.473394 0.382193 0.656804 0.375712
H43   H     H_    0.184360 0.332531 0.430643 0.186685
H44   H     H_    0.343644 0.363669 0.438661 0.078649
H45   H     H_    0.545126 0.835952 0.516904 0.199834
H46   H     H_    0.380143 0.496802 0.360713 0.145518
H47   H     H_    0.252162 0.361990 0.349554 0.151206
H48   H     H_    0.227731 0.486637 0.351931 0.185720
H49   H     H_    0.467421 0.694572 0.396067 0.338734
H50   H     H_    0.645891 0.814924 0.379737 0.335312
H51   H     H_    0.945908 0.288304 0.412015 0.323120
H52   H     H_    0.784211 0.207794 0.249698 0.160869
H53   H     H_    0.799342 0.164501 0.316753 0.165854
H54   H     H_    0.891411 0.037907 0.306665 0.174241
H55   H     H_    0.741550 0.000304 0.273103 0.118580
H56   H     H_    0.663219 0.294453 0.433158 0.162329
H57   H     H_    0.874774 0.079783 0.239667 0.166738
H58   H     H_    0.582551 0.307616 0.088249 0.327630
H59   H     H_    0.623003 0.432056 0.018812 0.317256
H60   H     H_    0.611931 0.193693 0.945552 0.325528
H61   H     H_    0.962625 0.737080 0.662021 0.109256
H62   H     H_    0.823108 0.725829 0.625875 0.175262
H63   H     H_    0.907220 0.742289 0.548079 0.218098
H64   H     H_    0.999199 0.864594 0.580130 0.161814
H65   H     H_    0.049494 0.753180 0.584235 0.154821
H66   H     H_    0.200937 0.367944 0.602107 0.149523
H67   H     H_    0.835307 0.675313 0.408829 0.180900
H68   H     H_    0.699656 0.270828 0.874726 0.154513
N1    N     N_R   0.994814 0.476314 0.801238 -0.388772
N2    N     N_R   0.973990 0.448636 0.206394 -0.364329
N3    N     N_R   0.246290 0.438210 0.528570 -0.266020
N4    N     N_R   0.754320 0.561170 0.471730 -0.288204
O1    O     O_R   0.972510 0.318140 0.514280 -0.456456
O2    O     O_R   0.082990 0.479230 0.439860 -0.462177
O3    O     O_R   0.917010 0.520730 0.420680 -0.489205
O4    O     O_2   0.789750 0.341290 0.794929 -0.502411
O5    O     O_3   0.311528 0.675647 0.888236 -0.479606
O6    O     O_3   0.298961 0.506945 0.054565 -0.523063
O7    O     O_3   0.991897 0.670384 0.330410 -0.707155
O8    O     O_3   0.300621 0.513161 0.152821 -0.496711
O9    O     O_3   0.999925 0.652596 0.228883 -0.675526
O10   O     O_3   0.298502 0.679549 0.984001 -0.639484
O11   O     O_3   0.071435 0.904082 0.476149 -0.556454
O12   O     O_2   0.765247 0.399712 0.194004 -0.426610
O13   O     O_3   0.138225 0.396194 0.766278 -0.521749
O14   O     O_3   0.379886 0.789976 0.458115 -0.653718
O15   O     O_3   0.921889 0.105550 0.554926 -0.522178
O16   O     O_3   0.770087 0.874384 0.549415 -0.745708
O17   O     O_3   0.562594 0.304411 0.615770 -0.657424
O18   O     O_3   0.388163 0.336438 0.643871 -0.659619
O19   O     O_3   0.299136 0.497536 0.445762 -0.485247
O20   O     O_3   0.484087 0.677924 0.432765 -0.631302
O21   O     O_3   0.686340 0.767731 0.375751 -0.747663
O22   O     O_3   0.967256 0.281231 0.380758 -0.711068
O23   O     O_2   0.199244 0.611325 0.805343 -0.422416
O24   O     O_3   0.962101 0.265416 0.283746 -0.510058
O25   O     O_3   0.649304 0.358746 0.109865 -0.657873
O26   O     O_3   0.667939 0.400266 0.005487 -0.667059
O27   O     O_3   0.673682 0.239782 0.970170 -0.645515
O28   O     O_3   0.855272 0.583915 0.629214 -0.542098
O29   O     O_2   0.182339 0.496318 0.222575 -0.453198
O30   O     O_R   0.806530 0.359640 0.495100 -0.550269
O31   O     O_R   0.082990 0.479270 0.579320 -0.535007
O32   O     O_R   0.917010 0.520770 0.560140 -0.470594
O33   O     O_R   0.193470 0.640360 0.504900 -0.460086
O34   O     O_R   0.027490 0.681860 0.485720 -0.474042

loop_
_geom_bond_atom_site_label_1
_geom_bond_atom_site_label_2
_ccdc_geom_bond_type
C10   C27   A    
C65   H6    S    
C66   C68   S    
C48   H67   S    
C72   H26   S    
C41   C42   A    
Cu2   O30   S    
C8    C13   A    
C76   H39   S    
C22   C29   A    
C23   N1    S    
C75   O15   S    
C75   H36   S    
C73   C74   S    
C54   C55   A    
H60   O27   S    
C61   H12   S    
C25   C67   A    
C64   H4    S    
C82   H61   S    
C7    C8    A    
C39   C41   A    
C72   H25   S    
Cu1   Cu2   S    
C16   C31   S    
C52   N1    A    
C12   C23   A    
C53   N4    A    
C68   H10   S    
C81   H57   S    
C31   C43   A    
C82   O28   S    
C11   O29   S    
C29   O10   S    
C36   C37   A    
C50   O20   S    
C38   C39   A    
C70   H18   S    
C1    C46   S    
C28   C84   S    
Cu1   O31   S    
C71   H24   S    
Cu1   O33   S    
C28   O2    A    
C77   H44   S    
C18   C19   A    
C60   H66   S    
C37   C42   A    
C79   H48   S    
C44   O11   S    
C16   O34   A    
C47   C60   A    
C69   O8    S    
C35   C36   A    
C45   C56   A    
C8    C9    A    
C42   H56   S    
C71   O11   S    
C40   N1    A    
Cu1   O2    S    
C80   O24   S    
C73   O13   S    
C9    C10   A    
C81   H54   S    
C47   O18   S    
H40   O16   S    
H33   O14   S    
C66   H8    S    
C83   H64   S    
C61   C62   A    
C81   H55   S    
H58   O25   S    
C41   H23   S    
C15   O22   S    
C25   C29   A    
C19   N2    S    
C30   C44   A    
C2    C6    A    
Cu1   N3    S    
C64   H3    S    
C64   O5    S    
C79   H47   S    
C14   C19   A    
C14   O24   S    
C28   O3    A    
C50   C51   A    
C12   O13   S    
C83   H65   S    
C54   C59   A    
C77   C79   S    
H41   O17   S    
C40   C45   A    
C74   H32   S    
H42   O18   S    
Cu2   O32   S    
C31   C44   A    
C2    C20   A    
C76   H38   S    
C20   C24   A    
C1    O1    A    
C60   N3    A    
C56   H68   S    
Cu2   O3    S    
C12   C63   A    
C70   H17   S    
C68   H11   S    
C21   C34   A    
C69   H16   S    
C48   N4    A    
C72   H27   S    
C77   O19   S    
C73   H28   S    
C32   C33   A    
C6    O26   S    
H14   O7    S    
C51   C53   A    
C75   C76   S    
C13   N2    A    
C40   O4    S    
C16   O33   A    
C4    O32   A    
H59   O26   S    
C59   O19   S    
C53   C58   A    
C74   H30   S    
C17   C18   A    
C26   C27   A    
C66   O6    S    
C34   C45   A    
C77   H43   S    
C52   O23   S    
C33   O16   S    
Cu2   N4    S    
C15   C84   A    
C52   C67   A    
C11   N2    A    
C48   C49   A    
C82   C83   S    
C55   C57   A    
H50   O21   S    
C2    C5    A    
C24   C56   A    
C57   O17   S    
C47   C55   A    
C1    O30   A    
C65   H5    S    
C74   H31   S    
H21   O10   S    
C13   O12   S    
C63   H1    S    
C75   H35   S    
C76   H37   S    
C32   C46   A    
C4    O31   A    
C62   C78   A    
C3    C26   A    
H49   O20   S    
C5    C9    A    
C80   C81   S    
C3    C5    A    
C70   H19   S    
C58   H2    S    
C34   C67   A    
C82   H62   S    
C43   O14   S    
C6    C7    A    
C69   H15   S    
C4    C78   S    
C80   H53   S    
C32   O15   S    
Cu2   O34   S    
C73   H29   S    
C62   O28   S    
C17   C84   A    
H20   O9    S    
C51   C54   A    
C36   C38   A    
C35   H45   S    
C38   C43   A    
C17   O7    S    
C64   C65   S    
C59   N3    A    
C57   C58   A    
H51   O22   S    
C30   H34   S    
C25   O5    S    
C80   H52   S    
C79   H46   S    
C26   O6    S    
C65   H7    S    
C33   C35   A    
C30   C39   A    
C7    O25   S    
C69   C70   S    
C68   H13   S    
C10   C11   A    
C27   O8    S    
C23   C61   A    
C18   O9    S    
C71   C72   S    
C20   C21   A    
C49   C50   A    
C14   C15   A    
C24   O27   S    
C3    C22   A    
Cu1   O1    S    
C83   H63   S    
C37   C46   A    
C21   C22   A    
C71   H22   S    
C66   H9    S    
C49   O21   S    
C63   C78   A    
