data_mof_unit_66759.cif
_audit_creation_date              2013-03-05T15:40:48-0500
_audit_creation_method            fapswitch 2.2
_symmetry_space_group_name_H-M    P1
_symmetry_Int_Tables_number       1
_space_group_crystal_system       triclinic
_cell_length_a                    8.297981
_cell_length_b                    12.677572
_cell_length_c                    14.998763
_cell_angle_alpha                 94.08068
_cell_angle_beta                  99.246009
_cell_angle_gamma                 97.513704
_cell_volume                      1537.1070242

loop_
_atom_site_label
_atom_site_type_symbol
_atom_site_description
_atom_site_fract_x
_atom_site_fract_y
_atom_site_fract_z
_atom_type_partial_charge
P1    P     P_3+3 0.998660 0.747790 0.570900 0.456940
O1    O     O_2   0.168170 0.764170 0.543850 -0.372734
O2    O     O_3   0.898670 0.629780 0.545890 -0.397100
O3    O     O_3   0.365980 0.695510 0.380810 -0.327919
O4    O     O_2   0.276274 0.888594 0.418141 -0.414877
O5    O     O_3   0.040951 0.770981 0.689332 -0.597588
O6    O     O_3   0.417310 0.873711 0.271240 -0.598679
H1    H     H_    0.162794 0.826930 0.244985 0.063485
C1    C     C_3   0.243891 0.930941 0.146695 -0.632507
H2    H     H_    0.223668 0.002971 0.186650 0.221111
P2    P     P_3+3 0.306970 0.411860 0.294270 0.512815
P3    P     P_3+3 0.879034 0.618809 0.215961 0.485716
O7    O     O_2   0.136040 0.444100 0.280280 -0.347072
O8    O     O_3   0.934510 0.640480 0.335500 -0.371068
O9    O     O_2   0.009808 0.563620 0.175578 -0.322565
O10   O     O_3   0.262894 0.272932 0.281127 -0.530354
O11   O     O_3   0.887031 0.740651 0.167464 -0.563035
C2    C     C_3   0.775355 0.801602 0.200745 0.381518
H3    H     H_    0.667478 0.752911 0.220741 0.081625
C3    C     C_3   0.708948 0.873520 0.129837 -0.598241
H4    H     H_    0.807363 0.936167 0.117899 0.192310
C4    C     C_3   0.673917 0.258408 0.257180 0.860677
H5    H     H_    0.625850 0.323476 0.293475 -0.045289
C5    C     C_3   0.751207 0.300844 0.178639 -0.924169
H6    H     H_    0.809405 0.237870 0.145734 0.274511
H7    H     H_    0.656822 0.325733 0.126551 0.244623
H8    H     H_    0.847081 0.369973 0.204278 0.247129
Ba1   Ba    Ba6+2 0.153570 0.551840 0.456200 1.589938
C6    C     C_3   0.096435 0.682218 0.727490 0.304763
H9    H     H_    0.208884 0.667050 0.701744 0.127577
H10   H     H_    0.002105 0.609726 0.709724 0.113933
C7    C     C_3   0.137490 0.707492 0.830570 -0.638107
H11   H     H_    0.223976 0.655505 0.860872 0.179568
H12   H     H_    0.197616 0.791623 0.848356 0.227900
C8    C     C_3   0.235852 0.235093 0.363427 0.408871
H13   H     H_    0.128360 0.266223 0.384535 0.099606
H14   H     H_    0.345326 0.257484 0.417527 0.141934
C9    C     C_3   0.201904 0.114767 0.348873 -0.895528
H15   H     H_    0.097111 0.090724 0.292084 0.253196
H16   H     H_    0.171494 0.080900 0.410582 0.237929
H17   H     H_    0.313188 0.082893 0.333333 0.288864
P4    P     P_3+3 0.811620 0.252200 0.429030 0.461876
O12   O     O_2   0.642110 0.235770 0.456130 -0.406931
O13   O     O_3   0.911620 0.370210 0.454030 -0.392487
O14   O     O_3   0.444310 0.304480 0.619110 -0.359040
O15   O     O_3   0.796603 0.215696 0.312702 -0.600629
P5    P     P_3+3 0.920572 0.361862 0.782407 0.500793
O16   O     O_3   0.400800 0.556680 0.607590 -0.382359
O17   O     O_3   0.875770 0.359510 0.664420 -0.401425
O18   O     O_2   0.805299 0.431297 0.822862 -0.331170
O19   O     O_3   0.862341 0.233903 0.812854 -0.457041
Ba2   Ba    Ba6+2 0.656590 0.448150 0.543720 1.581033
P6    P     P_3+3 0.413929 0.835530 0.381968 0.473992
C10   C     C_3   0.269432 0.840477 0.209400 0.779822
H18   H     H_    0.355542 0.951864 0.116287 0.241792
O20   O     O_3   0.409490 0.443300 0.392340 -0.421794
C11   C     C_3   0.623924 0.778776 0.694048 0.406214
H19   H     H_    0.745135 0.809320 0.736967 0.098725
H20   H     H_    0.646305 0.728372 0.634764 0.102827
C12   C     C_3   0.544350 0.872672 0.659018 -0.947796
H21   H     H_    0.490077 0.913004 0.712712 0.278515
H22   H     H_    0.636539 0.930986 0.635871 0.226305
H23   H     H_    0.446179 0.844310 0.600411 0.279097
P7    P     P_3+3 0.497723 0.587083 0.720506 0.438684
O21   O     O_2   0.674250 0.555830 0.719690 -0.374745
O22   O     O_3   0.522845 0.725294 0.748429 -0.579024
H24   H     H_    0.614965 0.915373 0.155551 0.228693
C13   C     C_3   0.901845 0.159061 0.749393 0.512465
H25   H     H_    0.823943 0.160132 0.681926 0.125853
H26   H     H_    0.034316 0.175723 0.743602 -0.021343
C14   C     C_3   0.866857 0.047885 0.780131 -0.947409
H27   H     H_    0.905087 0.988216 0.733029 0.203226
H28   H     H_    0.933030 0.043825 0.849578 0.268872
H29   H     H_    0.733940 0.027765 0.781862 0.299864
P8    P     P_3+3 0.394506 0.166056 0.622770 0.433499
C15   C     C_3   0.422792 0.166094 0.800033 0.827830
H30   H     H_    0.349946 0.232359 0.783578 -0.051721
O23   O     O_2   0.486660 0.115406 0.553117 -0.386090
O24   O     O_3   0.492936 0.128804 0.726126 -0.573674
C16   C     C_3   0.310020 0.073378 0.828653 -0.797490
H31   H     H_    0.379255 0.005607 0.843695 0.233312
H32   H     H_    0.206042 0.043904 0.772931 0.182782
C17   C     C_R   0.070901 0.187748 0.547996 -0.508315
C18   C     C_R   0.723284 0.819239 0.479770 -0.509579
C19   C     C_R   0.684669 0.999253 0.448522 -0.128740
C20   C     C_R   0.621321 0.890391 0.445526 0.252306
C21   C     C_R   0.884744 0.854156 0.523512 0.281822
C22   C     C_R   0.947033 0.966799 0.535055 -0.052149
C23   C     C_R   0.846584 0.040683 0.494107 -0.084036
C24   C     C_R   0.913733 0.152155 0.497558 0.301460
C25   C     C_R   0.171313 0.116339 0.585592 0.171733
C26   C     C_R   0.109356 0.006944 0.580109 -0.226616
H33   H     H_    0.605938 0.049582 0.413616 0.207907
H34   H     H_    0.191177 0.953954 0.608844 0.185340
H35   H     H_    0.122209 0.271122 0.550760 0.166638
H36   H     H_    0.675466 0.734883 0.472191 0.176704
C27   C     C_R   0.234418 0.454326 0.764869 -0.494208
C28   C     C_R   0.137726 0.414553 0.825895 0.201164
C29   C     C_R   0.204108 0.420757 0.918528 -0.254314
C30   C     C_R   0.368255 0.471324 0.951842 0.137236
C31   C     C_R   0.458250 0.516811 0.888197 -0.172668
C32   C     C_R   0.391775 0.508735 0.796519 0.290332
C33   C     C_R   0.609789 0.529141 0.082714 -0.226261
C34   C     C_R   0.674368 0.545514 0.175359 0.193077
C35   C     C_R   0.419115 0.463792 0.209723 0.373256
C36   C     C_R   0.351238 0.445856 0.117478 -0.149310
C37   C     C_R   0.443599 0.481653 0.051285 0.111294
C38   C     C_R   0.578267 0.515502 0.238471 -0.441283
H37   H     H_    0.692997 0.554722 0.037898 0.156623
H38   H     H_    0.124230 0.387135 0.962338 0.155598
H39   H     H_    0.226520 0.405259 0.100110 0.134486
H40   H     H_    0.578579 0.562443 0.907498 0.131557
H41   H     H_    0.629176 0.530196 0.310094 0.165597
H42   H     H_    0.182522 0.450632 0.693550 0.161776
C39   C     C_1   0.988159 0.690009 0.871159 0.306900
N1    N     N_1   0.870576 0.675656 0.903404 -0.061653
C40   C     C_1   0.105213 0.905283 0.071120 0.249832
N2    N     N_1   0.998554 0.886674 0.009867 -0.072199
N3    N     N_R   0.285423 0.740984 0.157955 0.227661
O25   O     O_R   0.274683 0.731813 0.070141 -0.457130
O26   O     O_R   0.322936 0.661304 0.202202 -0.393365
N4    N     N_R   0.556007 0.205420 0.876277 0.262573
O27   O     O_R   0.577365 0.304714 0.909394 -0.403766
O28   O     O_R   0.643998 0.139526 0.917159 -0.376960
C41   C     C_1   0.246157 0.107951 0.910202 0.242620
N5    N     N_1   0.196384 0.135820 0.974368 -0.021155
C42   C     C_1   0.866260 0.869564 0.279454 0.083407
N6    N     N_1   0.943004 0.923081 0.340753 -0.066763
C43   C     C_1   0.632000 0.812701 0.043296 0.314971
N7    N     N_1   0.570908 0.765843 0.974610 -0.065922
N8    N     N_R   0.539378 0.172873 0.220510 0.221828
O29   O     O_R   0.421384 0.189077 0.156849 -0.427721
O30   O     O_R   0.548126 0.076499 0.242884 -0.445202

loop_
_geom_bond_atom_site_label_1
_geom_bond_atom_site_label_2
_geom_bond_distance
_ccdc_geom_bond_type
P1    C21   1.863042 S    
C21   C22   1.442042 A    
C31   C32   1.388158 A    
C4    N8    1.458054 S    
C1    C40   1.464709 S    
C3    H24   1.101921 S    
C8    H13   1.103006 S    
C5    H8    1.104637 S    
C3    C43   1.466116 S    
C27   C28   1.389854 A    
Ba1   O20   2.924192 S    
P5    O17   1.746135 S    
C19   C20   1.406024 A    
C31   H40   1.071293 S    
P7    C32   1.820491 S    
P5    C28   1.834157 S    
C12   H23   1.101769 S    
O4    P6    1.549131 D    
O2    Ba1   2.920897 S    
C8    H14   1.107752 S    
C18   C20   1.385359 A    
P1    O1    1.518293 D    
C6    C7    1.529943 S    
O10   C8    1.396200 S    
C18   H36   1.082251 S    
C9    H15   1.109186 S    
O3    P6    1.765882 S    
O12   Ba2   2.889802 S    
C11   H20   1.112071 S    
C36   C37   1.413045 A    
C39   N1    1.156168 T    
C12   H22   1.107360 S    
C2    H3    1.113743 S    
P4    O15   1.753299 S    
C19   H33   1.074542 S    
C22   C26   1.417469 A    
C13   H25   1.111786 S    
P3    O11   1.751599 S    
P2    C35   1.801476 S    
P1    Ba1   3.423537 S    
P4    C24   1.889390 S    
C15   O24   1.412731 S    
O7    Ba1   2.856691 S    
P6    C20   1.849195 S    
C1    H18   1.107004 S    
C1    H2    1.102586 S    
C11   O22   1.406538 S    
C27   C32   1.387365 A    
P8    C25   1.857717 S    
O13   Ba2   2.921804 S    
C10   N3    1.463589 S    
P4    O13   1.600913 S    
O3    Ba1   2.792260 S    
P5    O18   1.545535 D    
C36   H39   1.076458 S    
N3    O26   1.291899 A    
C35   C38   1.382078 A    
P1    O5    1.750239 S    
C8    C9    1.508121 S    
C5    H6    1.111538 S    
C9    H17   1.106208 S    
C16   H32   1.105471 S    
H1    C10   1.105642 S    
C25   C26   1.406469 A    
C14   H28   1.104702 S    
C19   C23   1.420439 A    
C11   C12   1.520570 S    
P5    O19   1.744975 S    
O14   Ba2   2.791602 S    
C29   H38   1.076443 S    
Ba1   O13   2.844874 S    
C12   H21   1.109507 S    
P1    O2    1.600897 S    
C7    H12   1.111413 S    
C38   H41   1.082726 S    
C6    H9    1.099519 S    
C2    C42   1.450551 S    
P2    O10   1.741733 S    
C29   C30   1.422414 A    
P3    O9    1.543829 D    
N3    O25   1.301542 A    
O17   Ba2   2.759348 S    
C17   H35   1.081930 S    
C3    H4    1.107859 S    
C26   H34   1.079115 S    
O11   C2    1.409264 S    
C15   H30   1.116433 S    
C4    O15   1.399654 S    
P3    O8    1.770202 S    
C41   N5    1.157210 T    
C4    C5    1.526842 S    
P4    O12   1.518634 D    
O6    P6    1.766105 S    
N4    O28   1.302105 A    
C42   N6    1.149468 T    
C23   C24   1.443836 A    
C34   C38   1.375214 A    
C43   N7    1.156511 T    
C17   C24   1.399019 A    
Ba1   O16   2.796192 S    
C30   C37   1.511227 S    
C15   C16   1.534524 S    
C5    H7    1.107431 S    
C16   H31   1.110928 S    
N8    O30   1.297840 A    
C14   H29   1.103993 S    
C33   C37   1.421260 A    
O2    Ba2   2.845518 S    
P3    C34   1.814650 S    
Ba1   Ba2   4.585347 S    
C18   C21   1.393739 A    
C17   C25   1.396690 A    
C35   C36   1.398030 A    
O14   P8    1.756343 S    
C33   H37   1.074871 S    
C15   N4    1.465178 S    
C7    H11   1.103397 S    
N4    O27   1.298894 A    
C14   H27   1.109359 S    
C6    H10   1.112785 S    
C40   N2    1.155974 T    
P7    O21   1.568334 D    
C9    H16   1.099065 S    
P2    O7    1.513623 D    
C11   H19   1.109311 S    
P2    Ba1   3.411624 S    
C13   C14   1.520482 S    
C30   C31   1.412900 A    
C2    C3    1.532020 S    
O19   C13   1.402418 S    
C7    C39   1.464589 S    
P8    O23   1.542128 D    
O16   P7    1.747005 S    
Ba2   O21   2.856872 S    
Ba2   O20   2.795423 S    
O16   Ba2   2.923278 S    
O5    C6    1.395814 S    
C22   C23   1.439051 A    
C13   H26   1.110426 S    
C28   C29   1.402560 A    
C16   C41   1.470295 S    
P4    Ba2   3.424007 S    
C33   C34   1.397026 A    
C4    H5    1.108076 S    
O1    Ba1   2.889425 S    
C1    C10   1.548472 S    
O6    C10   1.409606 S    
O8    Ba1   2.758743 S    
C27   H42   1.082326 S    
P8    O24   1.758265 S    
P2    O20   1.572252 S    
N8    O29   1.301021 A    
P7    O22   1.749564 S    
