data_mof_unit_45862.cif
_audit_creation_date              2012-12-10T18:04:03-0500
_audit_creation_method            fapswitch 2.2
_symmetry_space_group_name_H-M    P1
_symmetry_Int_Tables_number       1
_space_group_crystal_system       triclinic
_cell_length_a                    10.869718
_cell_length_b                    9.646425
_cell_length_c                    11.059571
_cell_angle_alpha                 90.154675
_cell_angle_beta                  96.57543
_cell_angle_gamma                 90.780055
_cell_volume                      1151.89386566

loop_
_atom_site_label
_atom_site_type_symbol
_atom_type_description
_atom_site_fract_x
_atom_site_fract_y
_atom_site_fract_z
_atom_type_partial_charge
C1    C     C_R   0.263316 0.498132 0.510868 0.776591
C2    C     C_R   0.736036 0.500132 0.487330 0.783418
C3    C     C_R   0.402707 0.073490 0.440350 0.025174
C4    C     C_R   0.596384 0.076352 0.559790 0.017248
C5    C     C_R   0.396390 0.925721 0.453000 0.273508
C6    C     C_R   0.603185 0.929180 0.546584 0.261288
C7    C     C_R   0.504037 0.499711 0.263149 0.758631
C8    C     C_R   0.492885 0.500065 0.736104 0.792134
C9    C     C_R   0.510170 0.619139 0.062653 -0.111521
C10   C     C_R   0.499907 0.619771 0.937904 -0.114202
C11   C     C_R   0.507519 0.496959 0.130162 -0.110053
C12   C     C_R   0.484853 0.498474 0.868082 -0.105137
C13   C     C_R   0.495606 0.370274 0.062099 -0.072073
C14   C     C_R   0.475251 0.371739 0.932896 -0.071044
C15   C     C_3   0.483693 0.774682 0.930749 -0.055364
C16   C     C_3   0.524569 0.774512 0.071707 -0.060497
C17   C     C_R   0.059395 0.366390 0.508003 -0.026028
C18   C     C_R   0.932203 0.371526 0.464898 -0.002903
C19   C     C_R   0.869940 0.498457 0.471992 -0.297562
C20   C     C_R   0.128380 0.492735 0.522419 -0.287463
C21   C     C_R   0.939695 0.622264 0.481210 -0.024679
C22   C     C_R   0.064498 0.617645 0.529576 -0.015202
Cu1   Cu    Cu3+1 0.500000 0.640660 0.500000 0.950748
Cu2   Cu    Cu3+1 0.500000 0.359340 0.500000 0.964620
N1    N     N_R   0.500000 0.852070 0.500000 -0.211703
N2    N     N_R   0.500000 0.147940 0.500000 -0.261707
O1    O     O_R   0.319640 0.618740 0.499990 -0.556336
O2    O     O_R   0.680360 0.618740 0.500010 -0.555211
O3    O     O_R   0.319620 0.381170 0.499990 -0.614083
O4    O     O_R   0.680380 0.381170 0.500010 -0.592324
O5    O     O_R   0.499990 0.618810 0.319660 -0.613131
O6    O     O_R   0.500010 0.618810 0.680340 -0.615687
O7    O     O_R   0.499960 0.381240 0.319650 -0.590640
O8    O     O_R   0.500040 0.381240 0.680350 -0.579483
C23   C     C_2   0.499592 0.233776 0.122570 0.388449
H1    H     H_    0.416009 0.171364 0.118557 0.118177
O9    O     O_2   0.596617 0.190388 0.174175 -0.482731
C24   C     C_2   0.434759 0.240057 0.869593 0.408984
H2    H     H_    0.484267 0.145264 0.891717 0.140034
O10   O     O_2   0.340902 0.235527 0.797797 -0.524645
C25   C     C_2   0.563217 0.858671 0.854821 0.331147
H3    H     H_    0.542436 0.853551 0.757527 0.119024
O11   O     O_2   0.637889 0.945553 0.899119 -0.561880
C26   C     C_2   0.443371 0.852160 0.149190 0.378557
H4    H     H_    0.467347 0.852247 0.246271 0.123719
O12   O     O_2   0.360386 0.926902 0.105748 -0.578030
C27   C     C_2   0.347112 0.800571 0.890742 0.443695
H5    H     H_    0.276941 0.729863 0.918436 0.077967
O13   O     O_2   0.313664 0.901794 0.830008 -0.500504
C28   C     C_2   0.660950 0.806501 0.111266 0.457806
H6    H     H_    0.731768 0.744346 0.076304 0.072787
O14   O     O_2   0.693446 0.902568 0.180371 -0.481139
C29   C     C_2   0.111474 0.235145 0.563183 0.567171
H7    H     H_    0.207230 0.227402 0.599542 0.128380
O15   O     O_2   0.045413 0.134640 0.577402 -0.399577
C30   C     C_2   0.871146 0.255270 0.389473 0.530157
H8    H     H_    0.774224 0.258603 0.354521 0.119781
O16   O     O_2   0.930632 0.158900 0.355928 -0.408740
C31   C     C_2   0.892889 0.742893 0.407336 0.424258
H9    H     H_    0.802165 0.737747 0.355367 0.101750
O17   O     O_2   0.956228 0.846998 0.398421 -0.446166
C32   C     C_2   0.120344 0.729905 0.611641 0.431877
H10   H     H_    0.211354 0.717070 0.661106 0.089949
O18   O     O_2   0.064246 0.835176 0.629906 -0.460841
C33   C     C_2   0.306141 0.147700 0.359673 0.388547
H11   H     H_    0.329061 0.240208 0.313180 0.119622
O19   O     O_2   0.198421 0.108777 0.343619 -0.521330
C34   C     C_2   0.689998 0.151594 0.644096 0.447365
H12   H     H_    0.661010 0.219827 0.712530 0.102080
O20   O     O_2   0.800642 0.139151 0.638688 -0.518029
N3    N     N_2   0.277708 0.859772 0.435230 -0.388381
H13   H     H_    0.210869 0.913522 0.473733 0.324506
C35   C     C_3   0.232509 0.802024 0.317018 -0.471353
H14   H     H_    0.145273 0.743593 0.323428 0.221554
H15   H     H_    0.297383 0.726011 0.286936 0.205650
H16   H     H_    0.211875 0.884072 0.248676 0.280929
N4    N     N_2   0.721863 0.867437 0.563515 -0.395111
H17   H     H_    0.787620 0.925985 0.526255 0.323591
C36   C     C_3   0.768098 0.816402 0.682779 -0.509619
H18   H     H_    0.857544 0.764938 0.678241 0.241848
H19   H     H_    0.706229 0.735287 0.713095 0.211736
H20   H     H_    0.784335 0.902503 0.749154 0.267653

loop_
_geom_bond_atom_site_label_1
_geom_bond_atom_site_label_2
_ccdc_geom_bond_type
C35   H15   S    
C25   H3    S    
C23   H1    S    
C15   C27   S    
C27   O13   D    
C29   H7    S    
C7    C11   S    
C23   O9    D    
C9    C16   S    
Cu2   N2    S    
C21   C31   S    
C10   C15   S    
C24   H2    S    
C6    N1    A    
C14   C24   S    
C15   C16   S    
C17   C20   A    
C30   H8    S    
C18   C19   A    
C35   H14   S    
Cu2   O3    S    
C32   O18   D    
C34   H12   S    
C33   O19   D    
C28   O14   D    
Cu1   Cu2   S    
Cu1   O1    S    
C9    C10   A    
C16   C26   S    
C18   C30   S    
N4    C36   S    
C31   H9    S    
C13   C14   A    
C25   O11   D    
C3    C33   S    
C26   O12   D    
C28   H6    S    
C29   O15   D    
C31   O17   D    
C7    O5    A    
C7    O7    A    
C8    O6    A    
C15   C25   S    
C4    C6    A    
N3    C35   S    
C6    N4    S    
N4    H17   S    
C4    C34   S    
Cu2   O8    S    
Cu1   O5    S    
C32   H10   S    
C22   C32   S    
C27   H5    S    
C8    C12   S    
C1    O3    A    
C17   C18   A    
C8    O8    A    
Cu1   O2    S    
C9    C11   A    
C10   C12   A    
C5    N1    A    
C20   C22   A    
C35   H16   S    
C17   C29   S    
C26   H4    S    
C36   H19   S    
C1    C20   S    
C19   C21   A    
C2    C19   S    
C3    N2    A    
C16   C28   S    
C3    C5    A    
C36   H20   S    
C4    N2    A    
C13   C23   S    
Cu2   O7    S    
C2    O4    A    
Cu1   O6    S    
C12   C14   A    
N3    H13   S    
C5    N3    S    
C24   O10   D    
C11   C13   A    
C30   O16   D    
Cu1   N1    S    
Cu2   O4    S    
C36   H18   S    
C34   O20   D    
C33   H11   S    
C1    O1    A    
C2    O2    A    
C21   C22   A    
