data_mof_unit_14611.cif
_audit_creation_date              2012-12-10T19:04:45-0500
_audit_creation_method            fapswitch 2.2
_symmetry_space_group_name_H-M    P1
_symmetry_Int_Tables_number       1
_space_group_crystal_system       triclinic
_cell_length_a                    15.834054
_cell_length_b                    10.919051
_cell_length_c                    9.704925
_cell_angle_alpha                 89.079294
_cell_angle_beta                  88.854449
_cell_angle_gamma                 90.763761
_cell_volume                      1677.20372953

loop_
_atom_site_label
_atom_site_type_symbol
_atom_type_description
_atom_site_fract_x
_atom_site_fract_y
_atom_site_fract_z
_atom_type_partial_charge
C1    C     C_R   0.504737 0.263522 0.500936 0.852786
C2    C     C_3   0.083444 0.499663 0.502020 0.137128
C3    C     C_3   0.971792 0.617130 0.497237 -0.123945
C4    C     C_3   0.916184 0.499324 0.497189 0.077851
C5    C     C_3   0.029718 0.556678 0.388893 0.132984
C6    C     C_3   0.972736 0.440949 0.384756 -0.242502
C7    C     C_1   0.175093 0.499791 0.503681 0.006130
C8    C     C_1   0.824722 0.499323 0.495564 -0.015162
C9    C     C_R   0.472214 0.064495 0.612244 -0.113766
C10   C     C_R   0.510405 0.130628 0.503126 -0.114535
C11   C     C_R   0.549810 0.065678 0.395519 0.321913
C12   C     C_R   0.340301 0.499894 0.501142 0.802880
C13   C     C_R   0.542308 0.937997 0.394789 -0.220290
C14   C     C_R   0.498869 0.871957 0.499331 -0.160414
C15   C     C_R   0.463317 0.937598 0.608650 0.037094
C16   C     C_3   0.476758 0.923642 0.760848 0.400468
C17   C     C_3   0.492872 0.064180 0.763405 0.396014
C18   C     C_R   0.573850 0.493784 0.069557 0.191646
C19   C     C_R   0.427734 0.484482 0.078373 0.031245
C20   C     C_R   0.427365 0.479202 0.932238 0.307770
C21   C     C_R   0.573709 0.493309 0.924448 0.187111
C22   C     C_3   0.653325 0.568318 0.910109 -0.115746
C23   C     C_R   0.499335 0.737539 0.499636 0.863351
C24   C     C_3   0.654477 0.569828 0.068317 0.442189
C25   C     C_R   0.659649 0.499876 0.498810 0.870706
C26   C     C_3   0.967619 0.440067 0.614256 -0.195703
C27   C     C_3   0.025761 0.385918 0.501786 0.136744
C28   C     C_1   0.250648 0.499855 0.503498 -0.136849
C29   C     C_1   0.749213 0.499498 0.496045 -0.135862
C30   C     C_3   0.024730 0.555847 0.610314 0.133684
Cu1   Cu    Cu3+1 0.500000 0.499980 0.640670 1.036218
Cu2   Cu    Cu3+1 0.500000 0.500020 0.359330 1.066311
H1    H     H_    0.368828 0.471164 0.134958 0.150467
H2    H     H_    0.643210 0.657838 0.857462 0.188945
H3    H     H_    0.941645 0.391745 0.707617 0.162725
H4    H     H_    0.951075 0.393453 0.291283 0.167817
H5    H     H_    0.949217 0.712946 0.495201 0.165433
H6    H     H_    0.577291 0.889842 0.319220 0.250390
N1    N     N_R   0.500530 0.500930 0.147930 -0.189682
N2    N     N_R   0.500530 0.500890 0.852020 -0.182601
O1    O     O_R   0.500000 0.319640 0.618810 -0.539030
O2    O     O_R   0.500010 0.319680 0.381230 -0.560421
O3    O     O_R   0.379070 0.499970 0.618770 -0.590441
O4    O     O_R   0.379080 0.500010 0.381190 -0.597257
O5    O     O_R   0.499990 0.680320 0.618770 -0.538423
O6    O     O_R   0.500000 0.680360 0.381190 -0.506211
O7    O     O_R   0.620920 0.499990 0.618810 -0.603005
O8    O     O_R   0.620930 0.500030 0.381230 -0.547618
N3    N     N_3   0.056252 0.260757 0.505278 -0.561450
H7    H     H_    0.003494 0.202585 0.500401 0.243744
H8    H     H_    0.091860 0.248123 0.414923 0.224820
N4    N     N_3   0.549695 0.847206 0.790827 -0.531745
H9    H     H_    0.566899 0.860155 0.891764 0.283111
H10   H     H_    0.601623 0.869551 0.726752 0.251326
N5    N     N_3   0.432095 0.135681 0.843514 -0.549317
H11   H     H_    0.433645 0.107681 0.946686 0.246781
H12   H     H_    0.370699 0.124192 0.808150 0.252854
S1    S     S_3+6 0.600308 0.113888 0.797472 0.010101
O9    O     O_2   0.602222 0.249772 0.815697 -0.271054
O10   O     O_2   0.631032 0.055202 0.927674 -0.218163
O11   O     O_3   0.666012 0.078220 0.666150 -0.548253
H13   H     H_    0.718324 0.126407 0.681504 0.385727
N6    N     N_3   0.349692 0.437824 0.876008 -0.605387
H14   H     H_    0.360483 0.366077 0.808337 0.260501
H15   H     H_    0.316663 0.511077 0.834162 0.280292
N7    N     N_3   0.725853 0.501710 0.853451 -0.528575
H16   H     H_    0.758058 0.558772 0.782052 0.228285
H17   H     H_    0.707070 0.422492 0.803222 0.290320
N8    N     N_3   0.727274 0.503452 0.123292 -0.527718
H18   H     H_    0.767512 0.562115 0.176079 0.255609
H19   H     H_    0.707730 0.432482 0.190252 0.272608
S2    S     S_3+6 0.643810 0.721606 0.132489 -0.006799
O12   O     O_2   0.671599 0.725258 0.279450 -0.313860
O13   O     O_2   0.698694 0.808373 0.047282 -0.258861
O14   O     O_3   0.541724 0.761334 0.120801 -0.529412
H20   H     H_    0.541704 0.851636 0.111210 0.372799
N9    N     N_3   0.064538 0.620520 0.267326 -0.552811
H21   H     H_    0.013708 0.646265 0.206751 0.234190
H22   H     H_    0.099058 0.556980 0.210739 0.220846
N10   N     N_3   0.054045 0.618623 0.731993 -0.557475
H23   H     H_    0.000560 0.643450 0.789290 0.230274
H24   H     H_    0.086218 0.554707 0.791830 0.224892
S3    S     S_3+6 0.621163 0.137622 0.275251 0.064853
O15   O     O_2   0.673817 0.230921 0.348089 -0.294821
O16   O     O_2   0.678871 0.045087 0.211764 -0.176315
O17   O     O_3   0.567424 0.208233 0.150034 -0.470903
H25   H     H_    0.516161 0.156923 0.138434 0.330381
S4    S     S_3+6 0.382447 0.864649 0.846755 -0.005233
O18   O     O_2   0.377597 0.728791 0.827966 -0.268275
O19   O     O_2   0.384941 0.890774 0.998178 -0.305791
O20   O     O_3   0.295915 0.927437 0.778700 -0.556281
H26   H     H_    0.247692 0.887687 0.829210 0.385648

loop_
_geom_bond_atom_site_label_1
_geom_bond_atom_site_label_2
_ccdc_geom_bond_type
N7    H17   S    
N5    H11   S    
N6    H15   S    
S2    O13   D    
C23   O5    A    
C18   C21   A    
C19   C20   A    
C4    C8    S    
N9    H21   S    
C26   C27   S    
Cu1   O3    S    
C12   C28   S    
C18   C24   S    
C8    C29   T    
C12   O3    A    
C5    C6    S    
C20   N2    A    
S1    O10   D    
C15   C16   S    
Cu1   N2    S    
Cu2   N1    S    
N8    H19   S    
C18   N1    A    
C22   N7    S    
C2    C7    S    
S3    O15   D    
C16   C17   S    
N3    H8    S    
C2    C27   S    
C9    C10   A    
C25   O7    A    
C17   S1    S    
C30   N10   S    
S1    O11   S    
N7    H16   S    
C23   O6    A    
Cu1   O7    S    
C21   C22   S    
Cu2   O8    S    
O11   H13   S    
S2    O14   S    
N4    H10   S    
C24   N8    S    
N9    H22   S    
C25   C29   S    
C22   H2    S    
C4    C6    S    
C19   H1    S    
O20   H26   S    
O17   H25   S    
S2    O12   D    
C11   S3    S    
S1    O9    D    
C7    C28   T    
C14   C23   S    
C3    C30   S    
O14   H20   S    
C1    O2    A    
C6    C27   S    
S4    O20   S    
Cu2   O4    S    
C25   O8    A    
C13   H6    S    
C19   N1    A    
C1    O1    A    
S3    O16   D    
S4    O19   D    
C26   C30   S    
N5    H12   S    
C22   C24   S    
C2    C5    S    
C5    N9    S    
C3    C4    S    
N4    H9    S    
C24   S2    S    
C9    C17   S    
C17   N5    S    
Cu1   O1    S    
Cu2   O6    S    
Cu1   Cu2   S    
C1    C10   S    
C16   N4    S    
N10   H23   S    
C3    C5    S    
C4    C26   S    
C2    C30   S    
C20   N6    S    
C9    C15   A    
C12   O4    A    
C11   C13   A    
C21   N2    A    
N10   H24   S    
C6    H4    S    
N8    H18   S    
C10   C11   A    
N6    H14   S    
C26   H3    S    
S3    O17   S    
S4    O18   D    
C3    H5    S    
N3    H7    S    
Cu1   O5    S    
C16   S4    S    
Cu2   O2    S    
C14   C15   A    
C13   C14   A    
C27   N3    S    
