data_mof_unit_62496.cif
_audit_creation_date              2012-12-10T19:00:48-0500
_audit_creation_method            fapswitch 2.2
_symmetry_space_group_name_H-M    P1
_symmetry_Int_Tables_number       1
_space_group_crystal_system       triclinic
_cell_length_a                    25.776783
_cell_length_b                    34.586465
_cell_length_c                    34.559566
_cell_angle_alpha                 90.000246
_cell_angle_beta                  90.0
_cell_angle_gamma                 89.99942
_cell_volume                      30810.8139482

loop_
_atom_site_label
_atom_site_type_symbol
_atom_type_description
_atom_site_fract_x
_atom_site_fract_y
_atom_site_fract_z
_atom_type_partial_charge
C1    C     C_R   0.609991 0.749536 0.000412 0.525290
C2    C     C_R   0.109991 0.750464 0.000413 0.525357
C3    C     C_R   0.054018 0.246934 0.002527 0.019419
C4    C     C_R   0.445986 0.753082 0.502496 0.019157
C5    C     C_R   0.445989 0.246923 0.502516 0.019854
C6    C     C_R   0.554014 0.753082 0.502497 0.019030
C7    C     C_R   0.554018 0.246927 0.502531 0.019622
C8    C     C_R   0.445982 0.253060 0.002538 0.019527
C9    C     C_R   0.445986 0.746925 0.002502 0.019335
C10   C     C_R   0.554011 0.253071 0.002512 0.019795
C11   C     C_R   0.554014 0.746931 0.002513 0.019407
C12   C     C_R   0.945982 0.253066 0.502536 0.019637
C13   C     C_R   0.890010 0.249536 0.000414 0.524958
C14   C     C_R   0.945985 0.746943 0.502513 0.019341
C15   C     C_R   0.054012 0.253076 0.502510 0.019794
C16   C     C_R   0.054014 0.746948 0.502524 0.019531
C17   C     C_R   0.973169 0.734040 0.973018 0.008914
C18   C     C_R   0.973173 0.265609 0.972807 0.006534
C19   C     C_R   0.026837 0.734039 0.973021 0.008288
C20   C     C_R   0.026841 0.265585 0.972794 0.008946
C21   C     C_R   0.473165 0.734597 0.472651 0.008767
C22   C     C_R   0.473175 0.265370 0.472658 0.006639
C23   C     C_R   0.526836 0.734595 0.472652 0.008195
C24   C     C_R   0.890009 0.750459 0.000406 0.525467
C25   C     C_R   0.526844 0.265343 0.472646 0.008990
C26   C     C_R   0.473153 0.234404 0.972803 0.008346
C27   C     C_R   0.473168 0.765629 0.972802 0.008863
C28   C     C_R   0.526822 0.234379 0.972810 0.007139
C29   C     C_R   0.526837 0.765630 0.972805 0.008284
C30   C     C_R   0.973154 0.234488 0.472752 0.009031
C31   C     C_R   0.973168 0.766004 0.473045 0.008206
C32   C     C_R   0.026822 0.234460 0.472761 0.007270
C33   C     C_R   0.026836 0.766002 0.473047 0.008183
C34   C     C_R   0.708042 0.958180 0.015567 -0.117375
C35   C     C_R   0.609993 0.249529 0.500422 0.525575
C36   C     C_R   0.729728 0.041873 0.031745 -0.117493
C37   C     C_R   0.270312 0.958127 0.031744 -0.117170
C38   C     C_R   0.291968 0.041821 0.015544 -0.117029
C39   C     C_R   0.208033 0.958179 0.515562 -0.117436
C40   C     C_R   0.229720 0.041872 0.531738 -0.117443
C41   C     C_R   0.791978 0.958176 0.515537 -0.117496
C42   C     C_R   0.770335 0.041871 0.531730 -0.116986
C43   C     C_R   0.229662 0.458129 0.031731 -0.117043
C44   C     C_R   0.208022 0.541823 0.015533 -0.117450
C45   C     C_R   0.791959 0.458178 0.015563 -0.117323
C46   C     C_R   0.609991 0.750462 0.500406 0.524972
C47   C     C_R   0.770289 0.541872 0.031746 -0.117592
C48   C     C_R   0.729665 0.458128 0.531734 -0.117041
C49   C     C_R   0.708027 0.541823 0.515534 -0.117462
C50   C     C_R   0.291953 0.458178 0.515567 -0.117337
C51   C     C_R   0.270282 0.541872 0.531749 -0.117585
C52   C     C_R   0.708114 0.917934 0.015743 -0.119668
C53   C     C_R   0.729266 0.082119 0.031530 -0.119224
C54   C     C_R   0.270778 0.917881 0.031524 -0.118883
C55   C     C_R   0.291904 0.082067 0.015711 -0.118379
C56   C     C_R   0.208108 0.917933 0.515741 -0.119778
C57   C     C_R   0.390009 0.249536 0.500412 0.524885
C58   C     C_R   0.229262 0.082118 0.531526 -0.119102
C59   C     C_R   0.791909 0.917931 0.515710 -0.119589
C60   C     C_R   0.770799 0.082117 0.531512 -0.117931
C61   C     C_R   0.229196 0.417883 0.031511 -0.118042
C62   C     C_R   0.208090 0.582069 0.015704 -0.119498
C63   C     C_R   0.791891 0.417932 0.015735 -0.119437
C64   C     C_R   0.770752 0.582118 0.031529 -0.118982
C65   C     C_R   0.729197 0.417883 0.531513 -0.118055
C66   C     C_R   0.708092 0.582069 0.515704 -0.119525
C67   C     C_R   0.291888 0.417933 0.515738 -0.119454
C68   C     C_R   0.390009 0.750462 0.500406 0.525352
C69   C     C_R   0.270747 0.582118 0.531532 -0.118974
C70   C     C_R   0.749946 0.644826 0.000015 0.504639
C71   C     C_R   0.749950 0.355171 0.000015 0.506118
C72   C     C_R   0.250053 0.644829 0.000017 0.504665
C73   C     C_R   0.250052 0.355175 0.000014 0.505258
C74   C     C_R   0.249946 0.644826 0.500016 0.504638
C75   C     C_R   0.249949 0.355171 0.500015 0.506097
C76   C     C_R   0.750054 0.644829 0.500018 0.504626
C77   C     C_R   0.750053 0.355175 0.500015 0.505275
C78   C     C_R   0.249948 0.144829 0.000017 0.505364
C79   C     C_R   0.796026 0.742479 0.332002 0.095957
C80   C     C_R   0.249945 0.855174 0.000016 0.504632
C81   C     C_R   0.750050 0.144826 0.000012 0.505930
C82   C     C_R   0.750053 0.855172 0.000017 0.504708
C83   C     C_R   0.749948 0.144825 0.500014 0.505306
C84   C     C_R   0.749948 0.855171 0.500017 0.504595
C85   C     C_R   0.250049 0.144826 0.500011 0.505949
C86   C     C_R   0.250051 0.855172 0.500016 0.504650
C87   C     C_R   0.750188 0.897524 0.000124 0.038878
C88   C     C_R   0.750193 0.102470 0.000103 0.038807
C89   C     C_R   0.249791 0.897532 0.000118 0.039216
C90   C     C_R   0.796042 0.257510 0.332008 0.094157
C91   C     C_R   0.249808 0.102477 0.000128 0.039199
C92   C     C_R   0.250181 0.897524 0.500119 0.038908
C93   C     C_R   0.250188 0.102470 0.500100 0.038835
C94   C     C_R   0.749812 0.897522 0.500125 0.038931
C95   C     C_R   0.749801 0.102468 0.500110 0.039023
C96   C     C_R   0.250202 0.397532 0.000113 0.038992
C97   C     C_R   0.250191 0.602478 0.000127 0.038881
C98   C     C_R   0.749815 0.397523 0.000120 0.039556
C99   C     C_R   0.749797 0.602469 0.000112 0.039217
C100  C     C_R   0.750204 0.397532 0.500114 0.038974
C101  C     C_R   0.203969 0.742477 0.332004 0.095548
C102  C     C_R   0.750195 0.602478 0.500130 0.038890
C103  C     C_R   0.249813 0.397523 0.500121 0.039554
C104  C     C_R   0.249794 0.602469 0.500115 0.039217
C105  C     C_R   0.792407 0.917867 0.984634 -0.117136
C106  C     C_R   0.771301 0.082062 0.968780 -0.116069
C107  C     C_R   0.228611 0.917942 0.968824 -0.117946
C108  C     C_R   0.207558 0.082136 0.984683 -0.117295
C109  C     C_R   0.292394 0.917868 0.484621 -0.117301
C110  C     C_R   0.271288 0.082064 0.468773 -0.115928
C111  C     C_R   0.707567 0.917865 0.484675 -0.117553
C112  C     C_R   0.609990 0.250460 0.000407 0.525041
C113  C     C_R   0.238142 0.283990 0.331911 0.096447
C114  C     C_R   0.728620 0.082058 0.468816 -0.117992
C115  C     C_R   0.271394 0.417942 0.968823 -0.118114
C116  C     C_R   0.292444 0.582136 0.984688 -0.117440
C117  C     C_R   0.707592 0.417865 0.984635 -0.114944
C118  C     C_R   0.728657 0.582060 0.968803 -0.117805
C119  C     C_R   0.771402 0.417943 0.468827 -0.118122
C120  C     C_R   0.792452 0.582137 0.484696 -0.117413
C121  C     C_R   0.207589 0.417864 0.484637 -0.114951
C122  C     C_R   0.228651 0.582060 0.468806 -0.117808
C123  C     C_R   0.792696 0.958114 0.984970 -0.116625
C124  C     C_R   0.296053 0.742517 0.832009 0.095689
C125  C     C_R   0.771082 0.041815 0.968726 -0.116352
C126  C     C_R   0.228827 0.958189 0.968774 -0.117086
C127  C     C_R   0.207260 0.041890 0.985029 -0.116699
C128  C     C_R   0.292680 0.958115 0.484954 -0.116716
C129  C     C_R   0.271063 0.041817 0.468716 -0.116271
C130  C     C_R   0.707274 0.958111 0.485017 -0.116804
C131  C     C_R   0.728840 0.041812 0.468763 -0.116980
C132  C     C_R   0.271177 0.458189 0.968772 -0.117047
C133  C     C_R   0.292739 0.541889 0.985032 -0.116741
C134  C     C_R   0.707297 0.458111 0.984978 -0.115918
C135  C     C_R   0.296045 0.257505 0.832008 0.094401
C136  C     C_R   0.728878 0.541814 0.968748 -0.116540
C137  C     C_R   0.771188 0.458190 0.468778 -0.117057
C138  C     C_R   0.792749 0.541890 0.485042 -0.116730
C139  C     C_R   0.207292 0.458111 0.484982 -0.115913
C140  C     C_R   0.228871 0.541814 0.468753 -0.116544
C141  C     C_R   0.750412 0.978664 0.000290 0.033345
C142  C     C_R   0.750441 0.021327 0.000267 0.032992
C143  C     C_R   0.249533 0.978675 0.000292 0.033226
C144  C     C_R   0.249567 0.021338 0.000313 0.033261
C145  C     C_R   0.250397 0.978665 0.500279 0.033386
C146  C     C_R   0.703952 0.742502 0.832009 0.095538
C147  C     C_R   0.250426 0.021327 0.500257 0.032977
C148  C     C_R   0.749582 0.978661 0.500301 0.033341
C149  C     C_R   0.749552 0.021324 0.500279 0.033119
C150  C     C_R   0.250456 0.478676 0.000284 0.033124
C151  C     C_R   0.250425 0.521339 0.000307 0.033299
C152  C     C_R   0.749582 0.478662 0.000297 0.033253
C153  C     C_R   0.749549 0.521325 0.000278 0.033214
C154  C     C_R   0.750464 0.478676 0.500289 0.033123
C155  C     C_R   0.750433 0.521339 0.500313 0.033300
C156  C     C_R   0.249577 0.478662 0.500301 0.033255
C157  C     C_R   0.738164 0.283989 0.831909 0.096446
C158  C     C_R   0.249542 0.521325 0.500282 0.033214
C159  C     C_R   0.750000 0.750000 0.894830 0.530015
C160  C     C_R   0.749997 0.249998 0.894809 0.530220
C161  C     C_R   0.250002 0.750001 0.894830 0.529934
C162  C     C_R   0.250000 0.250000 0.894830 0.529781
C163  C     C_R   0.250001 0.749999 0.394830 0.530006
C164  C     C_R   0.249998 0.249998 0.394808 0.530202
C165  C     C_R   0.749999 0.749999 0.394830 0.530445
C166  C     C_R   0.750000 0.250000 0.394830 0.529252
C167  C     C_R   0.749997 0.749998 0.105164 0.511024
C168  C     C_R   0.261844 0.215995 0.331915 0.094843
C169  C     C_R   0.750002 0.249999 0.105164 0.510892
C170  C     C_R   0.250000 0.750000 0.105164 0.511065
C171  C     C_R   0.250000 0.250000 0.105149 0.511136
C172  C     C_R   0.250000 0.750000 0.605165 0.511047
C173  C     C_R   0.250002 0.249998 0.605164 0.510895
C174  C     C_R   0.749999 0.750001 0.605164 0.511591
C175  C     C_R   0.749998 0.249999 0.605149 0.510596
C176  C     C_R   0.727719 0.780863 0.208270 -0.093548
C177  C     C_R   0.727770 0.219099 0.208265 -0.094472
C178  C     C_R   0.272248 0.780887 0.208267 -0.093459
C179  C     C_R   0.296043 0.757513 0.332007 0.095893
C180  C     C_R   0.292420 0.234842 0.208200 -0.093496
C181  C     C_R   0.227739 0.780881 0.708268 -0.093707
C182  C     C_R   0.227763 0.219103 0.708266 -0.094332
C183  C     C_R   0.772250 0.780886 0.708268 -0.093333
C184  C     C_R   0.792387 0.234803 0.708202 -0.093777
C185  C     C_R   0.207568 0.265142 0.208200 -0.093717
C186  C     C_R   0.227768 0.719108 0.208267 -0.093515
C187  C     C_R   0.772256 0.280876 0.208269 -0.094353
C188  C     C_R   0.772220 0.719091 0.208265 -0.093696
C189  C     C_R   0.707565 0.265149 0.708199 -0.093774
C190  C     C_R   0.703968 0.242476 0.332005 0.094170
C191  C     C_R   0.727717 0.719128 0.708268 -0.093478
C192  C     C_R   0.272266 0.280873 0.708268 -0.094381
C193  C     C_R   0.272289 0.719130 0.708268 -0.093632
C194  C     C_R   0.727413 0.780756 0.167988 -0.118233
C195  C     C_R   0.727453 0.219216 0.167982 -0.119402
C196  C     C_R   0.272558 0.780775 0.167985 -0.118719
C197  C     C_R   0.292288 0.234613 0.167918 -0.118271
C198  C     C_R   0.227420 0.780765 0.667985 -0.118295
C199  C     C_R   0.227445 0.219220 0.667983 -0.119374
C200  C     C_R   0.772569 0.780770 0.667986 -0.118214
C201  C     C_R   0.703945 0.757494 0.332010 0.095935
C202  C     C_R   0.792260 0.234580 0.667920 -0.119111
C203  C     C_R   0.207707 0.265380 0.167917 -0.119007
C204  C     C_R   0.227450 0.719224 0.167984 -0.118120
C205  C     C_R   0.772568 0.280765 0.167987 -0.118813
C206  C     C_R   0.772542 0.719211 0.167982 -0.118869
C207  C     C_R   0.707709 0.265389 0.667917 -0.119073
C208  C     C_R   0.727406 0.719241 0.667985 -0.118125
C209  C     C_R   0.272579 0.280762 0.667986 -0.118784
C210  C     C_R   0.272598 0.719241 0.667986 -0.118837
C211  C     C_R   0.749985 0.749988 0.147570 0.038361
C212  C     C_R   0.761801 0.215982 0.831918 0.094776
C213  C     C_R   0.750007 0.249993 0.147570 0.038449
C214  C     C_R   0.250002 0.750000 0.147570 0.038298
C215  C     C_R   0.249999 0.249999 0.147525 0.037216
C216  C     C_R   0.250005 0.750002 0.647571 0.038373
C217  C     C_R   0.250009 0.249993 0.647570 0.038450
C218  C     C_R   0.749992 0.750004 0.647571 0.038136
C219  C     C_R   0.749990 0.249990 0.647525 0.036989
C220  C     C_R   0.749968 0.749975 0.228670 0.057932
C221  C     C_R   0.750013 0.249986 0.228669 0.057981
C222  C     C_R   0.250009 0.749997 0.228669 0.057870
C223  C     C_R   0.390009 0.749540 0.000405 0.525378
C224  C     C_R   0.796036 0.757501 0.832005 0.095968
C225  C     C_R   0.249992 0.249990 0.228595 0.056894
C226  C     C_R   0.250015 0.750007 0.728670 0.057957
C227  C     C_R   0.250015 0.249987 0.728669 0.057964
C228  C     C_R   0.749983 0.750007 0.728670 0.057797
C229  C     C_R   0.749973 0.249974 0.728596 0.056920
C230  C     C_R   0.796090 0.742740 0.291691 0.090136
C231  C     C_R   0.796119 0.257235 0.291696 0.088485
C232  C     C_R   0.203898 0.742747 0.291693 0.090085
C233  C     C_R   0.238463 0.284037 0.291600 0.089806
C234  C     C_R   0.296130 0.742789 0.791697 0.090024
C235  C     C_R   0.203966 0.242486 0.832004 0.094802
C236  C     C_R   0.296122 0.257230 0.791696 0.088628
C237  C     C_R   0.703874 0.742775 0.791698 0.090204
C238  C     C_R   0.738480 0.284032 0.791599 0.089877
C239  C     C_R   0.261521 0.215944 0.291603 0.089986
C240  C     C_R   0.296118 0.757243 0.291695 0.090247
C241  C     C_R   0.703898 0.242741 0.291693 0.088570
C242  C     C_R   0.703864 0.757216 0.291698 0.090061
C243  C     C_R   0.761471 0.215927 0.791607 0.089712
C244  C     C_R   0.796104 0.757233 0.791693 0.090257
C245  C     C_R   0.203897 0.242751 0.791693 0.088799
C246  C     C_R   0.203963 0.757495 0.832005 0.095296
C247  C     C_R   0.203893 0.757226 0.791694 0.089813
C248  C     C_R   0.749990 0.749992 0.352428 -0.019388
C249  C     C_R   0.750003 0.249996 0.352428 -0.019387
C250  C     C_R   0.250005 0.749996 0.352428 -0.019651
C251  C     C_R   0.249995 0.249994 0.352366 -0.016424
C252  C     C_R   0.250006 0.750005 0.852428 -0.019705
C253  C     C_R   0.250003 0.249998 0.852428 -0.019054
C254  C     C_R   0.749996 0.750001 0.852428 -0.019636
C255  C     C_R   0.390006 0.250472 0.000424 0.525258
C256  C     C_R   0.749988 0.249990 0.852367 -0.016380
C257  C     C_R   0.749973 0.749974 0.271244 -0.034053
C258  C     C_R   0.750011 0.249986 0.271244 -0.033320
C259  C     C_R   0.250008 0.749996 0.271244 -0.033993
C260  C     C_R   0.249991 0.249990 0.271161 -0.031448
C261  C     C_R   0.250013 0.750007 0.771245 -0.034072
C262  C     C_R   0.250012 0.249988 0.771244 -0.033302
C263  C     C_R   0.749987 0.750005 0.771245 -0.033966
C264  C     C_R   0.749973 0.249977 0.771161 -0.031391
C265  C     C_R   0.945323 0.794696 0.062469 0.017083
C266  C     C_R   0.109991 0.749537 0.500413 0.525377
C267  C     C_R   0.945345 0.206024 0.062972 0.018389
C268  C     C_R   0.054655 0.794637 0.062524 0.018085
C269  C     C_R   0.054655 0.206121 0.063047 0.015323
C270  C     C_R   0.445351 0.793753 0.563113 0.017217
C271  C     C_R   0.445341 0.206417 0.563231 0.018657
C272  C     C_R   0.554649 0.793755 0.563113 0.017272
C273  C     C_R   0.554638 0.206566 0.563355 0.016518
C274  C     C_R   0.445366 0.293838 0.063089 0.016300
C275  C     C_R   0.445333 0.705853 0.062844 0.017251
C276  C     C_R   0.554675 0.294045 0.062911 0.017401
C277  C     C_R   0.109990 0.250461 0.500408 0.525038
C278  C     C_R   0.554646 0.705910 0.062897 0.018232
C279  C     C_R   0.945368 0.293717 0.563170 0.016303
C280  C     C_R   0.945323 0.705246 0.562429 0.017097
C281  C     C_R   0.054673 0.293924 0.562993 0.017468
C282  C     C_R   0.054656 0.705307 0.562485 0.018041
C283  C     C_R   0.972980 0.811760 0.092951 0.036912
C284  C     C_R   0.972990 0.189517 0.093765 0.036476
C285  C     C_R   0.026974 0.811727 0.092981 0.036943
C286  C     C_R   0.026987 0.189583 0.093812 0.034610
C287  C     C_R   0.473001 0.810104 0.593994 0.036690
C288  C     C_R   0.890009 0.749541 0.500406 0.525105
C289  C     C_R   0.472968 0.190223 0.594200 0.036629
C290  C     C_R   0.526999 0.810105 0.593994 0.036720
C291  C     C_R   0.526966 0.190320 0.594273 0.034685
C292  C     C_R   0.473057 0.310407 0.093826 0.034578
C293  C     C_R   0.472980 0.689212 0.093567 0.036929
C294  C     C_R   0.527054 0.310536 0.093723 0.036540
C295  C     C_R   0.526976 0.689245 0.093595 0.036840
C296  C     C_R   0.973057 0.310197 0.593956 0.034624
C297  C     C_R   0.972981 0.688141 0.592889 0.036901
C298  C     C_R   0.027054 0.310328 0.593853 0.036564
C299  C     C_R   0.890007 0.250473 0.500424 0.525646
C300  C     C_R   0.026975 0.688176 0.592920 0.036862
C301  C     C_R   0.527790 0.773225 0.532976 -0.032210
C302  C     C_R   0.527789 0.226919 0.533093 -0.032013
C303  C     C_R   0.472210 0.773224 0.532976 -0.032283
C304  C     C_R   0.472208 0.226878 0.533057 -0.031588
C305  C     C_R   0.027790 0.773679 0.032682 -0.031721
C306  C     C_R   0.027794 0.226698 0.032943 -0.032441
C307  C     C_R   0.972201 0.773695 0.032665 -0.032130
C308  C     C_R   0.972211 0.226672 0.032921 -0.031647
C309  C     C_R   0.027797 0.273290 0.532942 -0.031996
C310  C     C_R   0.109993 0.249532 0.000418 0.525381
C311  C     C_R   0.027791 0.726293 0.532662 -0.031777
C312  C     C_R   0.972214 0.273233 0.532995 -0.032018
C313  C     C_R   0.972201 0.726276 0.532644 -0.032118
C314  C     C_R   0.527797 0.273351 0.032900 -0.032058
C315  C     C_R   0.527788 0.726599 0.032867 -0.031746
C316  C     C_R   0.472214 0.273293 0.032954 -0.031983
C317  C     C_R   0.472204 0.726583 0.032850 -0.032181
C318  C     C_R   0.945986 0.753060 0.002512 0.019474
C319  C     C_R   0.945989 0.246933 0.002522 0.019857
C320  C     C_R   0.054014 0.753055 0.002523 0.019550
Cl1   Cl    Cl    0.939585 0.709097 0.935724 -0.039055
Cl2   Cl    Cl    0.439586 0.790206 0.935261 -0.038789
Cl3   Cl    Cl    0.560389 0.209759 0.935297 -0.048894
Cl4   Cl    Cl    0.560426 0.790214 0.935271 -0.039369
Cl5   Cl    Cl    0.939560 0.210061 0.435121 -0.040780
Cl6   Cl    Cl    0.939582 0.791002 0.435787 -0.040405
Cl7   Cl    Cl    0.060389 0.209927 0.435192 -0.048475
Cl8   Cl    Cl    0.060428 0.790994 0.435788 -0.040215
Cl9   Cl    Cl    0.877380 0.803412 0.062991 -0.047212
Cl10  Cl    Cl    0.877481 0.196981 0.063394 -0.046376
Cl11  Cl    Cl    0.122621 0.803245 0.063146 -0.045825
Cl12  Cl    Cl    0.939598 0.290221 0.935291 -0.049622
Cl13  Cl    Cl    0.122551 0.197219 0.063594 -0.048728
Cl14  Cl    Cl    0.377509 0.802900 0.563506 -0.047487
Cl15  Cl    Cl    0.377530 0.197154 0.563566 -0.046248
Cl16  Cl    Cl    0.622490 0.802902 0.563504 -0.047292
Cl17  Cl    Cl    0.622505 0.197542 0.563902 -0.047599
Cl18  Cl    Cl    0.377446 0.302631 0.063732 -0.047751
Cl19  Cl    Cl    0.377453 0.696868 0.063272 -0.047122
Cl20  Cl    Cl    0.622517 0.303186 0.063241 -0.047689
Cl21  Cl    Cl    0.622550 0.697030 0.063421 -0.046080
Cl22  Cl    Cl    0.877461 0.302567 0.563794 -0.047706
Cl23  Cl    Cl    0.060430 0.709091 0.935733 -0.040000
Cl24  Cl    Cl    0.877374 0.696553 0.562957 -0.047058
Cl25  Cl    Cl    0.122503 0.303119 0.563306 -0.047696
Cl26  Cl    Cl    0.122629 0.696726 0.563117 -0.045985
Cl27  Cl    Cl    0.939639 0.834835 0.131426 -0.053326
Cl28  Cl    Cl    0.939636 0.167057 0.132593 -0.055916
Cl29  Cl    Cl    0.060286 0.834754 0.131498 -0.053465
Cl30  Cl    Cl    0.060319 0.167252 0.132725 -0.057398
Cl31  Cl    Cl    0.439651 0.832317 0.632973 -0.053195
Cl32  Cl    Cl    0.439593 0.168093 0.633206 -0.055602
Cl33  Cl    Cl    0.560348 0.832319 0.632971 -0.052714
Cl34  Cl    Cl    0.060428 0.290095 0.935213 -0.041213
Cl35  Cl    Cl    0.560293 0.168364 0.633402 -0.058024
Cl36  Cl    Cl    0.439753 0.332702 0.132773 -0.058069
Cl37  Cl    Cl    0.439626 0.666627 0.132326 -0.052833
Cl38  Cl    Cl    0.560435 0.333047 0.132506 -0.055380
Cl39  Cl    Cl    0.560301 0.666706 0.132395 -0.053746
Cl40  Cl    Cl    0.939749 0.332389 0.632960 -0.057978
Cl41  Cl    Cl    0.939642 0.665018 0.631337 -0.053093
Cl42  Cl    Cl    0.060437 0.332742 0.632693 -0.055304
Cl43  Cl    Cl    0.060286 0.665103 0.631412 -0.053973
Cl44  Cl    Cl    0.439582 0.710269 0.434943 -0.038437
Cl45  Cl    Cl    0.439606 0.289716 0.434966 -0.049397
Cl46  Cl    Cl    0.560420 0.710259 0.434948 -0.039368
Cl47  Cl    Cl    0.560431 0.289584 0.434889 -0.040856
Cl48  Cl    Cl    0.439558 0.209881 0.935234 -0.042027
F1    F     F_    0.841504 0.736914 0.272638 -0.161925
F2    F     F_    0.341533 0.763076 0.272648 -0.161873
F3    F     F_    0.658484 0.236908 0.272643 -0.163624
F4    F     F_    0.658443 0.763035 0.272653 -0.161949
F5    F     F_    0.771087 0.182343 0.772546 -0.164959
F6    F     F_    0.841522 0.763047 0.772643 -0.161875
F7    F     F_    0.158482 0.236925 0.772642 -0.163555
F8    F     F_    0.158473 0.763029 0.772644 -0.162043
F9    F     F_    0.841305 0.736020 0.351036 -0.146554
F10   F     F_    0.841314 0.263984 0.351046 -0.148002
F11   F     F_    0.158695 0.736003 0.351040 -0.146668
F12   F     F_    0.841536 0.263064 0.272649 -0.163669
F13   F     F_    0.227696 0.317483 0.350892 -0.149311
F14   F     F_    0.341331 0.736073 0.851049 -0.146662
F15   F     F_    0.341318 0.263972 0.851047 -0.147901
F16   F     F_    0.658677 0.736046 0.851049 -0.146676
F17   F     F_    0.727752 0.317487 0.850888 -0.149317
F18   F     F_    0.272290 0.182505 0.350899 -0.151654
F19   F     F_    0.341315 0.763985 0.351045 -0.146607
F20   F     F_    0.658693 0.236007 0.351040 -0.147948
F21   F     F_    0.658673 0.763959 0.351051 -0.146598
F22   F     F_    0.772214 0.182488 0.850906 -0.151758
F23   F     F_    0.158483 0.736914 0.272644 -0.161919
F24   F     F_    0.841314 0.763955 0.851040 -0.146568
F25   F     F_    0.158689 0.236023 0.851040 -0.147788
F26   F     F_    0.158682 0.763939 0.851041 -0.146784
F27   F     F_    0.228813 0.317613 0.272535 -0.164553
F28   F     F_    0.341553 0.736986 0.772650 -0.161943
F29   F     F_    0.341541 0.263052 0.772649 -0.163608
F30   F     F_    0.658453 0.736962 0.772652 -0.161846
F31   F     F_    0.728860 0.317610 0.772531 -0.164531
F32   F     F_    0.271171 0.182367 0.272540 -0.164621
H1    H     H_    0.710978 0.805210 0.223524 0.133647
H2    H     H_    0.211038 0.694756 0.223518 0.133694
H3    H     H_    0.788990 0.305226 0.223522 0.132868
H4    H     H_    0.788957 0.694740 0.223515 0.133254
H5    H     H_    0.674176 0.276510 0.723457 0.135737
H6    H     H_    0.710964 0.694785 0.723520 0.133715
H7    H     H_    0.289007 0.305220 0.723522 0.132843
H8    H     H_    0.289050 0.694790 0.723521 0.133298
H9    H     H_    0.825519 0.902674 0.972748 0.139953
H10   H     H_    0.787301 0.097199 0.944072 0.145013
H11   H     H_    0.212556 0.902809 0.944134 0.139685
H12   H     H_    0.711037 0.194747 0.223516 0.132510
H13   H     H_    0.174429 0.097331 0.972825 0.139704
H14   H     H_    0.325505 0.902677 0.472731 0.139702
H15   H     H_    0.287285 0.097201 0.444064 0.145117
H16   H     H_    0.674438 0.902672 0.472816 0.139563
H17   H     H_    0.712559 0.097192 0.444129 0.139583
H18   H     H_    0.287461 0.402808 0.944138 0.139517
H19   H     H_    0.325577 0.597329 0.972836 0.139782
H20   H     H_    0.674480 0.402672 0.972749 0.140870
H21   H     H_    0.712630 0.597195 0.944104 0.140030
H22   H     H_    0.787471 0.402810 0.444143 0.139522
H23   H     H_    0.288980 0.805238 0.223520 0.133663
H24   H     H_    0.825587 0.597331 0.472847 0.139805
H25   H     H_    0.174478 0.402671 0.472750 0.140864
H26   H     H_    0.212624 0.597195 0.444107 0.140027
H27   H     H_    0.826299 0.973112 0.973657 0.113569
H28   H     H_    0.786446 0.026769 0.943759 0.115317
H29   H     H_    0.213409 0.973236 0.943825 0.113355
H30   H     H_    0.173633 0.026894 0.973752 0.113422
H31   H     H_    0.326279 0.973114 0.473636 0.113482
H32   H     H_    0.286422 0.026771 0.443746 0.115361
H33   H     H_    0.673651 0.973109 0.473737 0.113367
H34   H     H_    0.325817 0.223495 0.223460 0.135810
H35   H     H_    0.713420 0.026765 0.443815 0.113400
H36   H     H_    0.286606 0.473235 0.943827 0.113380
H37   H     H_    0.326368 0.526892 0.973759 0.113441
H38   H     H_    0.673688 0.473108 0.973672 0.113683
H39   H     H_    0.713492 0.526768 0.943788 0.114843
H40   H     H_    0.786621 0.473237 0.443835 0.113370
H41   H     H_    0.826380 0.526894 0.473773 0.113454
H42   H     H_    0.173683 0.473107 0.473676 0.113694
H43   H     H_    0.213484 0.526768 0.443792 0.114834
H44   H     H_    0.710093 0.804945 0.152843 0.138369
H45   H     H_    0.210980 0.805223 0.723519 0.133309
H46   H     H_    0.710136 0.195029 0.152834 0.136207
H47   H     H_    0.289871 0.804965 0.152838 0.136824
H48   H     H_    0.325515 0.222878 0.152744 0.139998
H49   H     H_    0.210075 0.804942 0.652839 0.138262
H50   H     H_    0.210121 0.195035 0.652835 0.136288
H51   H     H_    0.789906 0.804950 0.652839 0.138555
H52   H     H_    0.825477 0.222828 0.652747 0.139653
H53   H     H_    0.174482 0.277119 0.152742 0.139625
H54   H     H_    0.210134 0.695035 0.152838 0.138546
H55   H     H_    0.789884 0.304955 0.152842 0.137945
H56   H     H_    0.211023 0.194754 0.723517 0.132814
H57   H     H_    0.789866 0.695027 0.152833 0.136583
H58   H     H_    0.674497 0.277146 0.652741 0.139614
H59   H     H_    0.710071 0.695060 0.652839 0.138588
H60   H     H_    0.289902 0.304948 0.652841 0.137950
H61   H     H_    0.289938 0.695062 0.652839 0.136612
H62   H     H_    0.674507 0.973229 0.026923 0.111860
H63   H     H_    0.714430 0.026872 0.056763 0.111358
H64   H     H_    0.285661 0.973126 0.056745 0.112392
H65   H     H_    0.325521 0.026771 0.026870 0.111969
H66   H     H_    0.174498 0.973227 0.526922 0.111800
H67   H     H_    0.789001 0.805230 0.723520 0.134030
H68   H     H_    0.214425 0.026871 0.556757 0.111358
H69   H     H_    0.825532 0.973224 0.526864 0.111816
H70   H     H_    0.785688 0.026872 0.556730 0.112632
H71   H     H_    0.214302 0.473128 0.056729 0.112624
H72   H     H_    0.174464 0.526775 0.026853 0.111873
H73   H     H_    0.825497 0.473226 0.026917 0.111826
H74   H     H_    0.785609 0.526872 0.056757 0.111271
H75   H     H_    0.714302 0.473127 0.556731 0.112635
H76   H     H_    0.674467 0.526774 0.526851 0.111854
H77   H     H_    0.325491 0.473227 0.526921 0.111804
H78   H     H_    0.825771 0.223437 0.723463 0.135731
H79   H     H_    0.285602 0.526872 0.556760 0.111280
H80   H     H_    0.674925 0.902798 0.027581 0.136757
H81   H     H_    0.713184 0.097302 0.056180 0.134865
H82   H     H_    0.286915 0.902696 0.056153 0.135303
H83   H     H_    0.325116 0.097202 0.027514 0.137314
H84   H     H_    0.174924 0.902796 0.527584 0.136549
H85   H     H_    0.213187 0.097301 0.556179 0.134951
H86   H     H_    0.825117 0.902793 0.527516 0.136629
H87   H     H_    0.786939 0.097300 0.556140 0.137826
H88   H     H_    0.213048 0.402700 0.056136 0.137770
H89   H     H_    0.174168 0.276487 0.223459 0.135753
H90   H     H_    0.174876 0.597206 0.027503 0.136835
H91   H     H_    0.825083 0.402796 0.027568 0.136719
H92   H     H_    0.786858 0.597301 0.056170 0.134992
H93   H     H_    0.713044 0.402699 0.556136 0.137776
H94   H     H_    0.674875 0.597205 0.527499 0.136804
H95   H     H_    0.325080 0.402797 0.527570 0.136693
H96   H     H_    0.286854 0.597302 0.556172 0.135003
O1    O     O_3   0.750000 0.750000 0.999980 -0.450477
O2    O     O_R   0.634190 0.227260 0.022720 -0.533287
O3    O     O_R   0.865820 0.772740 0.977250 -0.527502
O4    O     O_R   0.634180 0.227260 0.477250 -0.525639
O5    O     O_R   0.634180 0.772740 0.477250 -0.527440
O6    O     O_R   0.365820 0.227260 0.477250 -0.529018
O7    O     O_R   0.365820 0.772740 0.477250 -0.527703
O8    O     O_R   0.365810 0.772740 0.022720 -0.533714
O9    O     O_R   0.365810 0.227260 0.022720 -0.537424
O10   O     O_R   0.134190 0.772740 0.522720 -0.535849
O11   O     O_R   0.134190 0.227260 0.522720 -0.533105
O12   O     O_R   0.865810 0.772740 0.522720 -0.535513
O13   O     O_R   0.865810 0.227260 0.522720 -0.535593
O14   O     O_R   0.134190 0.272740 0.022720 -0.535451
O15   O     O_R   0.134190 0.727260 0.022720 -0.535671
O16   O     O_R   0.865810 0.272740 0.022720 -0.535248
O17   O     O_3   0.750000 0.250000 0.999980 -0.450630
O18   O     O_R   0.865810 0.727260 0.022720 -0.533706
O19   O     O_R   0.634190 0.272740 0.522720 -0.535890
O20   O     O_R   0.634190 0.727260 0.522720 -0.535260
O21   O     O_R   0.365810 0.272740 0.522720 -0.535366
O22   O     O_R   0.365810 0.727260 0.522720 -0.533625
O23   O     O_R   0.719630 0.663260 0.977250 -0.542931
O24   O     O_R   0.719630 0.336740 0.977250 -0.538520
O25   O     O_R   0.280370 0.663260 0.977250 -0.542699
O26   O     O_R   0.280370 0.336740 0.977250 -0.543118
O27   O     O_R   0.219630 0.663260 0.477250 -0.542909
O28   O     O_3   0.250000 0.750000 0.999980 -0.450454
O29   O     O_R   0.219630 0.336740 0.477250 -0.538530
O30   O     O_R   0.780370 0.663260 0.477250 -0.542722
O31   O     O_R   0.780370 0.336740 0.477250 -0.543095
O32   O     O_R   0.219630 0.163260 0.977250 -0.543041
O33   O     O_R   0.219630 0.836740 0.977250 -0.542972
O34   O     O_R   0.780370 0.163260 0.977250 -0.539400
O35   O     O_R   0.780370 0.836740 0.977250 -0.542561
O36   O     O_R   0.719630 0.163260 0.477250 -0.543039
O37   O     O_R   0.719630 0.836740 0.477250 -0.542786
O38   O     O_R   0.280370 0.163260 0.477250 -0.539342
O39   O     O_3   0.250000 0.250000 0.999980 -0.450367
O40   O     O_R   0.280370 0.836740 0.477250 -0.542636
O41   O     O_R   0.719620 0.727250 0.913250 -0.521904
O42   O     O_R   0.719620 0.272750 0.913250 -0.519047
O43   O     O_R   0.280380 0.727250 0.913250 -0.519916
O44   O     O_R   0.280380 0.272750 0.913250 -0.522223
O45   O     O_R   0.219620 0.727250 0.413250 -0.521891
O46   O     O_R   0.219620 0.272750 0.413250 -0.519055
O47   O     O_R   0.780380 0.727250 0.413250 -0.520190
O48   O     O_R   0.780380 0.272750 0.413250 -0.521964
O49   O     O_R   0.219620 0.227250 0.913250 -0.520182
O50   O     O_3   0.250000 0.750000 0.499980 -0.450418
O51   O     O_R   0.219620 0.772750 0.913250 -0.521989
O52   O     O_R   0.780380 0.227250 0.913250 -0.520706
O53   O     O_R   0.780380 0.772750 0.913250 -0.519818
O54   O     O_R   0.719620 0.227250 0.413250 -0.521938
O55   O     O_R   0.719620 0.772750 0.413250 -0.520188
O56   O     O_R   0.280380 0.227250 0.413250 -0.520659
O57   O     O_R   0.280380 0.772750 0.413250 -0.519836
O58   O     O_R   0.719640 0.772730 0.086710 -0.541655
O59   O     O_R   0.719640 0.227270 0.086710 -0.543417
O60   O     O_R   0.280360 0.772730 0.086710 -0.543108
O61   O     O_3   0.250000 0.250000 0.499980 -0.450683
O62   O     O_R   0.280360 0.227270 0.086710 -0.541068
O63   O     O_R   0.219640 0.772730 0.586710 -0.541732
O64   O     O_R   0.219640 0.227270 0.586710 -0.543392
O65   O     O_R   0.780360 0.772730 0.586710 -0.541725
O66   O     O_R   0.780360 0.227270 0.586710 -0.542789
O67   O     O_R   0.219640 0.272730 0.086710 -0.542994
O68   O     O_R   0.219640 0.727270 0.086710 -0.541632
O69   O     O_R   0.780360 0.272730 0.086710 -0.541934
O70   O     O_R   0.780360 0.727270 0.086710 -0.543192
O71   O     O_R   0.719640 0.272730 0.586710 -0.542798
O72   O     O_3   0.750000 0.750000 0.499980 -0.450439
O73   O     O_R   0.719640 0.727270 0.586710 -0.541624
O74   O     O_R   0.280360 0.272730 0.586710 -0.541941
O75   O     O_R   0.280360 0.727270 0.586710 -0.543120
O76   O     O_R   0.780350 0.663260 0.022720 -0.545935
O77   O     O_R   0.780350 0.336740 0.022720 -0.546627
O78   O     O_R   0.219650 0.663260 0.022720 -0.545925
O79   O     O_R   0.219650 0.336740 0.022720 -0.544295
O80   O     O_R   0.280350 0.663260 0.522720 -0.545957
O81   O     O_R   0.280350 0.336740 0.522720 -0.546641
O82   O     O_R   0.719650 0.663260 0.522720 -0.545973
O83   O     O_3   0.750000 0.250000 0.499980 -0.450330
O84   O     O_R   0.719650 0.336740 0.522720 -0.544274
O85   O     O_R   0.280350 0.163260 0.022720 -0.543933
O86   O     O_R   0.280350 0.836740 0.022720 -0.545922
O87   O     O_R   0.719650 0.163260 0.022720 -0.546208
O88   O     O_R   0.719650 0.836740 0.022720 -0.546034
O89   O     O_R   0.780350 0.163260 0.522720 -0.544201
O90   O     O_R   0.780350 0.836740 0.522720 -0.546011
O91   O     O_R   0.219650 0.163260 0.522720 -0.546144
O92   O     O_R   0.219650 0.836740 0.522720 -0.546094
O93   O     O_R   0.634180 0.727260 0.977250 -0.525584
O94   O     O_R   0.634190 0.772740 0.022720 -0.535679
O95   O     O_R   0.634180 0.272740 0.977250 -0.531153
O96   O     O_R   0.365820 0.727260 0.977250 -0.527537
O97   O     O_R   0.365820 0.272740 0.977250 -0.525542
O98   O     O_R   0.134180 0.727260 0.477250 -0.525466
O99   O     O_R   0.134180 0.272740 0.477250 -0.531242
O100  O     O_R   0.865820 0.727260 0.477250 -0.527142
O101  O     O_R   0.865820 0.272740 0.477250 -0.525902
O102  O     O_R   0.134180 0.227260 0.977250 -0.527461
O103  O     O_R   0.134180 0.772740 0.977250 -0.525583
O104  O     O_R   0.865820 0.227260 0.977250 -0.529204
Zn1   Zn    Zn3+2 0.793370 0.717500 0.032470 0.951518
Zn2   Zn    Zn3+2 0.293370 0.782500 0.032470 0.951593
Zn3   Zn    Zn3+2 0.706630 0.217500 0.032470 0.951338
Zn4   Zn    Zn3+2 0.706630 0.782500 0.032470 0.951434
Zn5   Zn    Zn3+2 0.793370 0.217500 0.532470 0.951992
Zn6   Zn    Zn3+2 0.793370 0.782500 0.532470 0.951500
Zn7   Zn    Zn3+2 0.206630 0.217500 0.532470 0.951537
Zn8   Zn    Zn3+2 0.206630 0.782500 0.532470 0.951232
Zn9   Zn    Zn3+2 0.706610 0.717510 0.967500 0.970457
Zn10  Zn    Zn3+2 0.706610 0.282490 0.967500 0.971735
Zn11  Zn    Zn3+2 0.293390 0.717510 0.967500 0.970547
Zn12  Zn    Zn3+2 0.793370 0.282500 0.032470 0.951179
Zn13  Zn    Zn3+2 0.293390 0.282490 0.967500 0.969936
Zn14  Zn    Zn3+2 0.206610 0.717510 0.467500 0.970521
Zn15  Zn    Zn3+2 0.206610 0.282490 0.467500 0.971681
Zn16  Zn    Zn3+2 0.793390 0.717510 0.467500 0.970641
Zn17  Zn    Zn3+2 0.793390 0.282490 0.467500 0.969874
Zn18  Zn    Zn3+2 0.206610 0.217510 0.967500 0.970176
Zn19  Zn    Zn3+2 0.206610 0.782490 0.967500 0.970292
Zn20  Zn    Zn3+2 0.793390 0.217510 0.967500 0.971341
Zn21  Zn    Zn3+2 0.793390 0.782490 0.967500 0.970808
Zn22  Zn    Zn3+2 0.706610 0.217510 0.467500 0.970089
Zn23  Zn    Zn3+2 0.206630 0.717500 0.032470 0.951567
Zn24  Zn    Zn3+2 0.706610 0.782490 0.467500 0.970393
Zn25  Zn    Zn3+2 0.293390 0.217510 0.467500 0.971542
Zn26  Zn    Zn3+2 0.293390 0.782490 0.467500 0.970557
Zn27  Zn    Zn3+2 0.206630 0.282500 0.032470 0.951892
Zn28  Zn    Zn3+2 0.293370 0.717500 0.532470 0.951521
Zn29  Zn    Zn3+2 0.293370 0.282500 0.532470 0.951091
Zn30  Zn    Zn3+2 0.706630 0.717500 0.532470 0.951688
Zn31  Zn    Zn3+2 0.706630 0.282500 0.532470 0.951732
Zn32  Zn    Zn3+2 0.293370 0.217500 0.032470 0.952183

loop_
_geom_bond_atom_site_label_1
_geom_bond_atom_site_label_2
_ccdc_geom_bond_type
O80   Zn28  S    
C17   C318  A    
C200  C218  A    
C74   O27   A    
C101  C250  A    
C133  C151  A    
C172  O63   A    
O2    Zn3   S    
C247  F8    S    
C198  C216  A    
C61   H88   S    
C224  C254  A    
C15   C32   A    
C43   C61   A    
C128  C145  A    
C237  F30   S    
C126  H29   S    
C197  H48   S    
C203  C215  A    
C63   C98   A    
C203  H53   S    
O104  Zn20  S    
C275  Cl19  S    
C92   C109  A    
C51   C158  A    
C245  C262  A    
C82   C87   S    
C26   Cl48  S    
C126  C143  A    
C132  C150  A    
C105  C123  A    
C77   C100  S    
C124  F14   S    
C168  C251  A    
C36   C142  A    
C18   Cl12  S    
C36   C53   A    
C156  C158  S    
C234  C261  A    
C38   C55   A    
O72   Zn24  S    
O75   Zn28  S    
C241  F3    S    
C265  C307  A    
O46   Zn15  S    
C48   C65   A    
O29   Zn15  S    
O23   Zn9   S    
C19   C320  A    
C33   Cl8   S    
C93   C110  A    
C72   C97   S    
O79   Zn27  S    
C176  H1    S    
C240  F2    S    
O17   Zn3   S    
C146  C254  A    
C75   C103  S    
C169  O69   A    
C189  H5    S    
C71   C98   S    
C168  C239  A    
C245  F7    S    
C174  O73   A    
O12   Zn6   S    
C69   H96   S    
C269  Cl13  S    
C21   Cl44  S    
C40   C58   A    
O49   Zn18  S    
C166  C249  S    
C279  C312  A    
C20   Cl34  S    
C65   C100  A    
C175  O71   A    
C73   O26   A    
C47   C64   A    
O83   Zn17  S    
C116  C133  A    
C47   C153  A    
C267  Cl10  S    
C4    C303  A    
C272  C301  A    
O18   Zn1   S    
O72   Zn6   S    
C163  O45   A    
C50   H77   S    
C179  C240  A    
C6    C301  A    
C296  Cl40  S    
C45   H73   S    
C116  H19   S    
C39   C56   A    
O43   Zn11  S    
C39   C145  A    
C2    O103  A    
C292  Cl36  S    
C244  C263  A    
O50   Zn14  S    
C34   H62   S    
C280  Cl24  S    
O22   Zn28  S    
C154  C155  S    
C101  F11   S    
C54   C89   A    
C15   C309  A    
O55   Zn24  S    
C22   C25   A    
C64   H92   S    
O13   Zn5   S    
C180  H34   S    
C18   C319  A    
C131  C149  A    
C120  C138  A    
C183  H67   S    
C103  C121  A    
C118  C136  A    
C265  C283  A    
C24   O3    A    
C229  C264  S    
C125  H28   S    
C207  C219  A    
C177  C195  A    
C40   C147  A    
C49   C155  A    
C182  C199  A    
C277  O99   A    
C281  C309  A    
C106  H10   S    
C281  C298  A    
C277  O11   A    
C161  C252  S    
C270  C303  A    
C232  F23   S    
C209  H60   S    
C169  C213  S    
C288  O12   A    
C281  Cl25  S    
C209  C217  A    
O33   Zn19  S    
C35   O4    A    
C294  Cl38  S    
O92   Zn8   S    
C136  C153  A    
O39   Zn18  S    
C160  C256  S    
C289  C291  A    
C267  C284  A    
C109  H14   S    
C124  C252  A    
C13   O104  A    
C292  C294  A    
C2    C320  S    
O45   Zn14  S    
O27   Zn14  S    
C273  Cl17  S    
C270  Cl14  S    
C240  C259  A    
C46   O20   A    
C70   O23   A    
C182  C227  A    
C47   H74   S    
C123  H27   S    
C129  C147  A    
C81   C88   S    
O51   Zn19  S    
C201  C242  A    
C60   C95   A    
O61   Zn25  S    
C157  C238  A    
C28   Cl3   S    
O87   Zn3   S    
C190  C241  A    
C131  H35   S    
C135  C236  A    
C75   O29   A    
C159  C254  S    
C172  C216  S    
C13   O16   A    
C274  C292  A    
C266  O98   A    
C143  C144  S    
C227  C262  S    
C36   H63   S    
C242  F4    S    
C34   C141  A    
O40   Zn26  S    
C42   H70   S    
O64   Zn7   S    
C27   C29   A    
C1    O93   A    
C180  C225  A    
C272  Cl16  S    
C171  C215  S    
C14   C31   A    
O16   Zn12  S    
C84   O37   A    
C268  C305  A    
C61   C96   A    
C67   C103  A    
O97   Zn13  S    
C42   C60   A    
C119  H22   S    
C170  O60   A    
C236  F29   S    
C244  F6    S    
C184  C229  A    
C167  O58   A    
C173  O74   A    
C104  C122  A    
C192  H7    S    
O50   Zn28  S    
C190  F20   S    
C110  C129  A    
C71   O24   A    
O24   Zn10  S    
C199  H50   S    
O61   Zn15  S    
C140  C158  A    
C85   C93   S    
C64   C99   A    
C159  O53   A    
C14   C288  S    
C305  C307  A    
C232  C259  A    
C235  F25   S    
C267  C308  A    
C162  O44   A    
C223  O8    A    
C50   C67   A    
C40   H68   S    
O1    Zn4   S    
C17   Cl1   S    
C222  C259  S    
C228  C263  S    
C164  O46   A    
O61   Zn29  S    
C16   C311  A    
C166  O48   A    
O25   Zn11  S    
C58   H85   S    
C205  H55   S    
O86   Zn2   S    
C265  Cl9   S    
C239  F32   S    
C291  Cl35  S    
C72   O25   A    
O20   Zn30  S    
C77   O84   A    
C115  C132  A    
O35   Zn21  S    
C76   C102  S    
C161  O43   A    
C302  C304  A    
C241  C258  A    
C63   H91   S    
C269  C286  A    
C273  C302  A    
C46   O5    A    
C173  O64   A    
O39   Zn32  S    
C4    C68   S    
C179  C250  A    
C168  F18   S    
C57   O6    A    
O68   Zn23  S    
O94   Zn4   S    
C59   H86   S    
C178  C196  A    
O74   Zn29  S    
O59   Zn3   S    
C110  H15   S    
C112  O95   A    
O21   Zn29  S    
C49   C66   A    
C121  H25   S    
C186  H2    S    
C62   C97   A    
C196  C214  A    
O83   Zn22  S    
O30   Zn16  S    
O56   Zn25  S    
C87   C105  A    
C230  C257  A    
C188  C220  A    
C185  C225  A    
C187  C205  A    
C284  Cl28  S    
C100  C119  A    
C184  H78   S    
C226  C261  S    
C171  O67   A    
C247  C261  A    
C43   C150  A    
O19   Zn31  S    
O36   Zn22  S    
C231  F12   S    
C274  C316  A    
C12   C299  S    
C19   Cl23  S    
C311  C313  A    
C3    C310  S    
C113  F13   S    
C221  C258  S    
C70   C99   S    
C74   C104  S    
C178  H23   S    
C48   C154  A    
C246  C247  A    
C54   H82   S    
C53   H81   S    
C298  Cl42  S    
C163  C250  S    
C37   C143  A    
C170  O68   A    
C76   O30   A    
O17   Zn10  S    
O66   Zn5   S    
C82   O88   A    
C78   O32   A    
O50   Zn26  S    
C51   C69   A    
C177  H12   S    
C183  C200  A    
C113  C251  A    
O47   Zn16  S    
C121  C139  A    
C146  F16   S    
C284  C286  A    
C124  C234  A    
C286  Cl30  S    
C90   F10   S    
C65   H93   S    
C193  C210  A    
C73   O79   A    
C41   C148  A    
O1    Zn21  S    
C271  C289  A    
C101  C232  A    
C243  F5    S    
C208  H59   S    
C49   H76   S    
O39   Zn27  S    
C86   O92   A    
C138  H41   S    
C152  C153  S    
C39   H66   S    
O82   Zn30  S    
C268  Cl11  S    
O14   Zn27  S    
O83   Zn5   S    
O81   Zn29  S    
C150  C151  S    
C177  C221  A    
O83   Zn31  S    
O28   Zn23  S    
C157  F17   S    
C138  C155  A    
C111  H16   S    
C236  C262  A    
C191  C228  A    
C130  H33   S    
C268  C285  A    
C237  C263  A    
C114  C131  A    
O90   Zn6   S    
C238  C264  A    
C199  C217  A    
O89   Zn5   S    
C270  C287  A    
O91   Zn7   S    
C230  F1    S    
O71   Zn31  S    
C113  C233  A    
C188  C206  A    
C12   C312  A    
C58   C93   A    
O50   Zn8   S    
C52   H80   S    
C212  C243  A    
O84   Zn31  S    
O88   Zn4   S    
C202  H52   S    
C69   C104  A    
C283  C285  A    
C95   C114  A    
C314  C316  A    
C83   O36   A    
C164  O56   A    
C120  H24   S    
C278  Cl21  S    
C80   C89   S    
C166  O54   A    
C42   C149  A    
C179  F19   S    
C128  H31   S    
C55   C91   A    
C275  C293  A    
C135  F15   S    
C44   H72   S    
C140  H43   S    
O44   Zn13  S    
C255  O97   A    
O9    Zn32  S    
C271  Cl15  S    
O5    Zn24  S    
C255  O9    A    
C1    C11   S    
C306  C308  A    
O63   Zn8   S    
C191  H6    S    
C10   C112  S    
C59   C94   A    
O54   Zn22  S    
O57   Zn26  S    
O53   Zn21  S    
C77   O31   A    
C80   O86   A    
C299  O13   A    
C115  H18   S    
C296  C298  A    
C82   O35   A    
C186  C222  A    
C205  C213  A    
O69   Zn12  S    
C305  C320  A    
C282  C311  A    
C280  C297  A    
C310  O14   A    
C165  C248  S    
C7    C35   S    
C271  C304  A    
C117  C134  A    
O17   Zn12  S    
O1    Zn1   S    
C80   O33   A    
C145  C147  S    
C201  F21   S    
C233  C260  A    
C301  C303  A    
C38   H65   S    
C208  C218  A    
O7    Zn26  S    
O72   Zn16  S    
C239  C260  A    
C15   C277  S    
O38   Zn25  S    
C68   O7    A    
C157  C256  A    
C51   H79   S    
C85   O38   A    
C187  C221  A    
C190  C249  A    
O67   Zn27  S    
C192  C227  A    
C189  C229  A    
C62   H90   S    
C60   H87   S    
C109  C128  A    
C106  C125  A    
C94   C111  A    
C134  C152  A    
C89   C107  A    
C193  H8    S    
C68   O22   A    
C287  C290  A    
C3    C20   A    
C129  H32   S    
C137  H40   S    
C84   C94   S    
C97   C116  A    
C79   F9    S    
C235  C253  A    
O99   Zn15  S    
C198  H49   S    
C160  O42   A    
C287  Cl31  S    
C10   C314  A    
C175  C219  S    
C276  Cl20  S    
C238  F31   S    
C163  O57   A    
C242  C257  A    
C276  C314  A    
O4    Zn22  S    
O37   Zn24  S    
C102  C120  A    
C9    C27   A    
C10   C28   A    
C223  O96   A    
C188  H4    S    
C12   C30   A    
C246  F26   S    
C38   C144  A    
C91   C108  A    
O26   Zn13  S    
C225  C260  S    
C122  H26   S    
C308  C319  A    
C187  H3    S    
C183  C228  A    
C170  C214  S    
C297  Cl41  S    
C86   O40   A    
C181  C226  A    
C282  Cl26  S    
O28   Zn19  S    
O85   Zn32  S    
C34   C52   A    
C7    C25   A    
C5    C57   S    
C45   C152  A    
C185  C203  A    
C127  H30   S    
C112  O2    A    
C175  O66   A    
C224  F24   S    
C293  Cl37  S    
C174  O65   A    
O39   Zn13  S    
C189  C207  A    
C210  C216  A    
C278  C295  A    
C274  Cl18  S    
C3    C306  A    
C137  C154  A    
C32   Cl7   S    
C127  C144  A    
C288  O100  A    
O34   Zn20  S    
C192  C209  A    
C195  C213  A    
C56   H84   S    
C122  C140  A    
C269  C306  A    
C299  O101  A    
C35   O19   A    
O103  Zn19  S    
C27   Cl2   S    
C176  C220  A    
O3    Zn21  S    
C275  C317  A    
C114  H17   S    
C73   C96   S    
C176  C194  A    
C16   C266  S    
O73   Zn30  S    
C30   C32   A    
C81   O87   A    
C204  C214  A    
O52   Zn20  S    
C29   Cl4   S    
C41   H69   S    
C66   C102  A    
O95   Zn10  S    
C185  H89   S    
C13   C319  S    
C22   Cl45  S    
C290  Cl33  S    
C282  C300  A    
C246  C252  A    
O76   Zn1   S    
C169  O59   A    
O58   Zn4   S    
C132  H36   S    
C133  H37   S    
C309  C312  A    
C193  C226  A    
C210  H61   S    
C37   H64   S    
C11   C315  A    
C85   O91   A    
C279  C296  A    
C30   Cl5   S    
C276  C294  A    
C72   O78   A    
C14   C313  A    
C23   Cl46  S    
O28   Zn11  S    
C24   C318  S    
C180  C197  A    
C111  C130  A    
C196  H47   S    
C272  C290  A    
C194  C211  A    
C206  C211  A    
C5    C22   A    
C50   C156  A    
C280  C313  A    
C279  Cl22  S    
C31   Cl6   S    
C96   C115  A    
C283  Cl27  S    
O65   Zn6   S    
C233  F27   S    
C173  C217  S    
C118  H21   S    
C234  F28   S    
C197  C215  A    
C83   O89   A    
C207  H58   S    
C165  O47   A    
C43   H71   S    
C108  C127  A    
C201  C248  A    
O10   Zn8   S    
C1    O94   A    
C123  C141  A    
O102  Zn18  S    
C307  C318  A    
C76   O82   A    
C162  C253  S    
O101  Zn17  S    
C181  C198  A    
C75   O81   A    
C136  H39   S    
C67   H95   S    
C159  O41   A    
C8    C26   A    
C231  C258  A    
C315  C317  A    
C44   C151  A    
C184  C202  A    
C25   Cl47  S    
C130  C148  A    
C119  C137  A    
C164  C251  S    
C148  C149  S    
C41   C59   A    
O70   Zn1   S    
O8    Zn2   S    
C84   O90   A    
C278  C315  A    
C273  C291  A    
C224  C244  A    
C204  H54   S    
C172  O75   A    
C44   C62   A    
C45   C63   A    
C107  H11   S    
C266  O10   A    
C48   H75   S    
C202  C219  A    
C212  C256  A    
C105  H9    S    
C79   C230  A    
O15   Zn23  S    
C78   O85   A    
C16   C33   A    
C8    C255  S    
C88   C106  A    
C9    C223  S    
O1    Zn9   S    
C146  C237  A    
C70   O76   A    
C125  C142  A    
C162  O49   A    
C57   O21   A    
C2    O15   A    
C31   C33   A    
O98   Zn14  S    
O62   Zn32  S    
C165  O55   A    
C83   C95   S    
C135  C253  A    
O93   Zn9   S    
O42   Zn10  S    
C174  C218  S    
C37   C54   A    
O41   Zn9   S    
O48   Zn17  S    
O96   Zn11  S    
O100  Zn16  S    
C297  C300  A    
C9    C317  A    
C90   C231  A    
O77   Zn12  S    
C243  C264  A    
O61   Zn7   S    
C289  Cl32  S    
C24   O18   A    
C186  C204  A    
O60   Zn2   S    
C171  O62   A    
C98   C117  A    
C81   O34   A    
C300  Cl43  S    
C55   H83   S    
C6    C46   S    
C161  O51   A    
C181  H45   S    
C52   C87   A    
C71   O77   A    
C107  C126  A    
O6    Zn25  S    
C295  Cl39  S    
O78   Zn23  S    
O32   Zn18  S    
C78   C91   S    
C139  H42   S    
C26   C28   A    
C206  H57   S    
C90   C249  A    
C8    C316  A    
C79   C248  A    
C200  H51   S    
C21   C23   A    
C220  C257  S    
C195  H46   S    
C167  C211  S    
C293  C295  A    
C86   C92   S    
C141  C142  S    
C66   H94   S    
C99   C118  A    
C285  Cl29  S    
C4    C21   A    
C212  F22   S    
C139  C156  A    
C134  H38   S    
C74   O80   A    
C6    C23   A    
C160  O52   A    
C194  H44   S    
C17   C19   A    
O72   Zn30  S    
C53   C88   A    
C18   C20   A    
C191  C208  A    
C117  H20   S    
C5    C304  A    
C167  O70   A    
O17   Zn20  S    
C7    C302  A    
O31   Zn17  S    
C56   C92   A    
C182  H56   S    
C11   C29   A    
O28   Zn2   S    
C310  O102  A    
C178  C222  A    
C108  H13   S    
O11   Zn7   S    
C235  C245  A    
