data_mof_unit_39429.cif
_audit_creation_date              2012-12-11T14:48:10-0500
_audit_creation_method            fapswitch 2.2
_symmetry_space_group_name_H-M    P1
_symmetry_Int_Tables_number       1
_space_group_crystal_system       triclinic
_cell_length_a                    11.484566
_cell_length_b                    11.501498
_cell_length_c                    19.596543
_cell_angle_alpha                 90.253215
_cell_angle_beta                  89.916604
_cell_angle_gamma                 60.060802
_cell_volume                      2243.03852775

loop_
_atom_site_label
_atom_site_type_symbol
_atom_type_description
_atom_site_fract_x
_atom_site_fract_y
_atom_site_fract_z
_atom_type_partial_charge
C1    C     C_R   0.640425 0.117143 0.599424 0.551787
C2    C     C_1   0.652996 0.149262 0.668780 0.003186
C3    C     C_R   0.525699 0.784444 0.286528 -0.075769
C4    C     C_R   0.584928 0.794991 0.606017 0.549015
C5    C     C_R   0.542803 0.765237 0.217035 0.069967
C6    C     C_R   0.670504 0.671940 0.191909 0.073113
C7    C     C_R   0.784050 0.615774 0.236086 0.064153
C8    C     C_R   0.763834 0.636673 0.305646 -0.142748
C9    C     C_R   0.634873 0.714293 0.330441 -0.021646
C10   C     C_R   0.226770 0.251975 0.287443 0.053464
C11   C     C_R   0.219109 0.248495 0.217259 0.004154
C12   C     C_1   0.618606 0.742737 0.673391 0.006729
C13   C     C_R   0.160557 0.179955 0.187506 -0.035217
C14   C     C_R   0.143804 0.084690 0.226295 -0.036797
C15   C     C_R   0.163692 0.077461 0.296855 -0.075702
C16   C     C_R   0.240843 0.145137 0.598286 0.545432
C17   C     C_R   0.204793 0.161269 0.328247 -0.014568
C18   C     C_R   0.693718 0.014301 0.275907 -0.138265
C19   C     C_R   0.705066 0.045613 0.208555 -0.021660
C20   C     C_R   0.660158 0.180676 0.190335 0.000790
C21   C     C_R   0.592911 0.283200 0.239671 -0.037856
C22   C     C_R   0.587547 0.249367 0.306755 -0.141640
C23   C     C_1   0.126605 0.199455 0.859182 0.006176
C24   C     C_R   0.637791 0.115671 0.325154 0.002467
C25   C     C_R   0.081735 0.231527 0.928453 0.534973
C26   C     C_R   0.704433 0.557237 0.922047 0.542669
C27   C     C_R   0.708241 0.207064 0.929970 0.540176
C28   C     C_R   0.621617 0.082837 0.394649 0.546595
C29   C     C_R   0.087994 0.231869 0.123432 0.547036
C30   C     C_R   0.683528 0.613770 0.124906 0.578166
C31   C     C_R   0.705458 0.210133 0.125915 0.545950
C32   C     C_R   0.613925 0.743910 0.401332 0.543162
C33   C     C_R   0.248164 0.139934 0.399704 0.542139
C34   C     C_1   0.171611 0.169996 0.727781 -0.029949
C35   C     C_1   0.685352 0.610842 0.854949 0.009210
C36   C     C_1   0.642965 0.701082 0.730662 -0.028431
C37   C     C_1   0.667326 0.653106 0.797782 -0.027792
C38   C     C_1   0.761130 0.937714 0.158949 0.224411
C39   C     C_1   0.524808 0.424418 0.224354 0.255782
C40   C     C_1   0.265440 0.322712 0.176330 0.264579
C41   C     C_1   0.109083 0.991240 0.194856 0.266980
C42   C     C_1   0.134259 0.988992 0.336941 0.229702
C43   C     C_1   0.150120 0.182636 0.798924 -0.028927
C44   C     C_1   0.195381 0.160329 0.667507 0.003335
C45   C     C_1   0.678418 0.191868 0.860629 0.005270
C46   C     C_1   0.658546 0.167020 0.729066 -0.029323
C47   C     C_1   0.665603 0.181210 0.800283 -0.028941
Cr1   Cr    Cr6+3 0.404720 0.198220 0.499960 1.024062
Cr2   Cr    Cr6+3 0.698290 0.897110 0.500380 1.046135
Cr3   Cr    Cr6+3 0.396970 0.904720 0.499610 1.053329
Cr4   Cr    Cr6+3 0.926180 0.152240 0.028110 1.070486
Cr5   Cr    Cr6+3 0.921340 0.452070 0.027460 1.076187
Cr6   Cr    Cr6+3 0.626260 0.447120 0.028700 1.066148
H1    H     H_    0.427125 0.855222 0.306343 0.160585
H2    H     H_    0.340860 0.315124 0.338691 0.270534
H3    H     H_    0.541747 0.328670 0.344776 0.142501
H4    H     H_    0.848065 0.592029 0.340551 0.126427
H5    H     H_    0.728110 0.911165 0.290067 0.126912
H6    H     H_    0.460031 0.886549 0.135432 0.229139
H7    H     H_    0.400017 0.780419 0.150254 0.286157
H8    H     H_    0.946281 0.598681 0.187474 0.268517
H9    H     H_    0.985835 0.489434 0.251137 0.228880
H10   H     H_    0.169220 0.416824 0.348538 0.253065
N1    N     N_1   0.805891 0.851595 0.119095 -0.284334
N2    N     N_1   0.466957 0.538184 0.213324 -0.249819
N3    N     N_3   0.430483 0.842737 0.173304 -0.635896
N4    N     N_3   0.918779 0.534392 0.210893 -0.565388
N5    N     N_3   0.247679 0.356160 0.315153 -0.621238
N6    N     N_1   0.302079 0.381781 0.143557 -0.267273
N7    N     N_1   0.082294 0.915946 0.170242 -0.245147
N8    N     N_1   0.110597 0.918563 0.368652 -0.258246
O1    O     O_R   0.267740 0.231990 0.575440 -0.498939
O2    O     O_R   0.596140 0.579600 0.952720 -0.501789
O3    O     O_R   0.639070 0.321380 0.958660 -0.507041
O4    O     O_R   0.527280 0.186680 0.570530 -0.487886
O5    O     O_R   0.821240 0.124490 0.104360 -0.484793
O6    O     O_R   0.036900 0.167320 0.097830 -0.495606
O7    O     O_R   0.056190 0.349890 0.102870 -0.480334
O8    O     O_R   0.797670 0.565150 0.097930 -0.461999
O9    O     O_R   0.595880 0.584540 0.104260 -0.503294
O10   O     O_R   0.638830 0.325960 0.099140 -0.483448
O11   O     O_3   0.824590 0.350480 0.028090 -0.285241
O12   O     O_R   0.685970 0.784630 0.430010 -0.513444
O13   O     O_R   0.728090 0.003480 0.576380 -0.501231
O14   O     O_R   0.682970 0.789220 0.570490 -0.487841
O15   O     O_R   0.499290 0.771920 0.575530 -0.493955
O16   O     O_R   0.285330 0.030900 0.569730 -0.500870
O17   O     O_R   0.270980 0.227040 0.423900 -0.532121
O18   O     O_R   0.530280 0.182090 0.430050 -0.514275
O19   O     O_R   0.731330 0.998530 0.424830 -0.482339
O20   O     O_R   0.502530 0.766960 0.423990 -0.502447
O21   O     O_R   0.288330 0.026310 0.429250 -0.491560
O22   O     O_3   0.499990 0.000020 0.499980 -0.296213
O23   O     O_R   0.821500 0.119550 0.952820 -0.496438
O24   O     O_R   0.037130 0.162750 0.957360 -0.497966
O25   O     O_R   0.056440 0.344950 0.951330 -0.507787
O26   O     O_R   0.797900 0.560570 0.957460 -0.488201

loop_
_geom_bond_atom_site_label_1
_geom_bond_atom_site_label_2
_ccdc_geom_bond_type
Cr6   O3    S    
C16   O1    A    
Cr2   O19   S    
H2    N5    S    
C7    C8    A    
C2    C46   T    
C1    O13   A    
H9    N4    S    
C18   C24   A    
Cr2   O13   S    
C13   C29   S    
C36   C37   S    
C35   C37   T    
C33   O17   A    
C18   C19   A    
H6    N3    S    
C5    C6    A    
C3    H1    S    
C32   O20   A    
C4    O15   A    
C10   C17   A    
Cr5   O26   S    
C26   O2    A    
C23   C43   T    
Cr6   O10   S    
C1    C2    S    
C9    C32   S    
H10   N5    S    
C18   H5    S    
C29   O7    A    
C19   C20   A    
C8    C9    A    
C16   O16   A    
Cr1   O17   S    
C28   O18   A    
C12   C36   T    
Cr5   O8    S    
C16   C44   S    
C30   O9    A    
C27   C45   S    
H7    N3    S    
C21   C22   A    
C39   N2    T    
Cr1   O4    S    
C17   C33   S    
Cr1   O1    S    
Cr5   O7    S    
C38   N1    T    
C45   C47   T    
C40   N6    T    
C1    O4    A    
Cr2   O14   S    
Cr6   O9    S    
C34   C44   T    
Cr4   O5    S    
Cr1   O22   S    
C33   O21   A    
C26   C35   S    
C22   H3    S    
C4    O14   A    
Cr4   O23   S    
Cr6   O11   S    
Cr4   O6    S    
C3    C9    A    
C19   C38   S    
C8    H4    S    
H8    N4    S    
C21   C39   S    
Cr5   O11   S    
Cr4   O11   S    
Cr3   O16   S    
C14   C41   S    
C30   O8    A    
Cr3   O21   S    
C6    C30   S    
C25   O24   A    
Cr1   O18   S    
C22   C24   A    
C4    C12   S    
C27   O3    A    
C15   C17   A    
C32   O12   A    
C46   C47   S    
Cr6   O2    S    
C34   C43   S    
C24   C28   S    
C15   C42   S    
C5    N3    S    
C3    C5    A    
Cr3   O22   S    
C6    C7    A    
C10   N5    S    
C31   O10   A    
Cr2   O12   S    
C11   C13   A    
C31   O5    A    
C42   N8    T    
Cr5   O25   S    
C23   C25   S    
C11   C40   S    
C10   C11   A    
Cr3   O15   S    
C26   O26   A    
C7    N4    S    
Cr3   O20   S    
C29   O6    A    
C20   C21   A    
C25   O25   A    
C14   C15   A    
C27   O23   A    
C28   O19   A    
Cr2   O22   S    
C13   C14   A    
Cr4   O24   S    
C41   N7    T    
C20   C31   S    
