data_mof_unit_45892.cif
_audit_creation_date              2012-12-10T18:47:00-0500
_audit_creation_method            fapswitch 2.2
_symmetry_space_group_name_H-M    P1
_symmetry_Int_Tables_number       1
_space_group_crystal_system       triclinic
_cell_length_a                    10.791141
_cell_length_b                    9.888156
_cell_length_c                    14.945011
_cell_angle_alpha                 89.882759
_cell_angle_beta                  90.932229
_cell_angle_gamma                 89.003132
_cell_volume                      1594.2429783

loop_
_atom_site_label
_atom_site_type_symbol
_atom_type_description
_atom_site_fract_x
_atom_site_fract_y
_atom_site_fract_z
_atom_type_partial_charge
C1    C     C_R   0.260343 0.501154 0.506952 0.906242
C2    C     C_R   0.739657 0.498846 0.493048 0.906242
C3    C     C_R   0.280084 0.440920 0.045166 0.394565
C4    C     C_R   0.719916 0.559079 0.954834 0.394564
C5    C     C_R   0.064849 0.379254 0.521548 -0.039683
C6    C     C_R   0.935151 0.620746 0.478452 -0.039683
C7    C     C_R   0.940246 0.374537 0.499608 -0.036948
C8    C     C_R   0.059754 0.625463 0.500392 -0.036947
C9    C     C_R   0.873170 0.496924 0.486228 -0.128233
C10   C     C_R   0.126830 0.503076 0.513772 -0.128233
C11   C     C_R   0.572984 0.070173 0.559377 0.310632
C12   C     C_R   0.427016 0.929827 0.440623 0.310632
C13   C     C_R   0.426308 0.073453 0.441059 0.314241
C14   C     C_R   0.573692 0.926547 0.558941 0.314241
C15   C     C_R   0.500389 0.499996 0.327429 0.960813
C16   C     C_R   0.499611 0.500004 0.672571 0.960812
C17   C     C_R   0.612177 0.501437 0.813944 0.414102
C18   C     C_R   0.387824 0.498563 0.186056 0.414102
C19   C     C_R   0.499012 0.500487 0.767971 -0.181542
C20   C     C_R   0.500988 0.499513 0.232029 -0.181542
C21   C     C_R   0.385864 0.501821 0.811831 -0.113676
C22   C     C_R   0.614136 0.498179 0.188169 -0.113676
C23   C     C_R   0.385873 0.483479 0.905129 0.018787
C24   C     C_R   0.614127 0.516521 0.094871 0.018787
C25   C     C_R   0.499607 0.500628 0.953078 -0.021367
C26   C     C_R   0.500393 0.499371 0.046922 -0.021367
C27   C     C_R   0.612433 0.519870 0.906924 -0.062595
C28   C     C_R   0.387568 0.480129 0.093076 -0.062596
C29   C     C_R   0.278330 0.445057 0.951676 -0.134501
C30   C     C_R   0.721670 0.554942 0.048324 -0.134501
N1    N     N_R   0.500000 0.857200 0.500000 -0.204539
N2    N     N_R   0.500000 0.142800 0.500000 -0.204539
O1    O     O_R   0.316770 0.614620 0.499990 -0.595270
O2    O     O_R   0.683230 0.385380 0.500010 -0.595270
O3    O     O_R   0.683230 0.614620 0.500010 -0.588889
O4    O     O_R   0.316770 0.385380 0.499990 -0.588889
O5    O     O_R   0.499980 0.614680 0.367850 -0.571340
O6    O     O_R   0.500020 0.385320 0.632150 -0.571340
O7    O     O_R   0.500020 0.614680 0.632150 -0.577244
O8    O     O_R   0.499980 0.385320 0.367850 -0.577245
Zn1   Zn    Zn3+2 0.500000 0.653120 0.500000 1.081805
Zn2   Zn    Zn3+2 0.500000 0.346880 0.500000 1.081805
Cl1   Cl    Cl    0.749038 0.463819 0.753278 -0.447335
Cl2   Cl    Cl    0.250963 0.536181 0.246721 -0.447335
C31   C     C_1   0.272781 0.530660 0.760578 0.176985
N3    N     N_1   0.182884 0.554678 0.719906 -0.161532
C32   C     C_1   0.727219 0.469340 0.239422 0.176985
N4    N     N_1   0.817116 0.445322 0.280094 -0.161532
C33   C     C_1   0.168964 0.395201 0.905343 0.343922
N5    N     N_1   0.081534 0.354928 0.869018 -0.068191
C34   C     C_1   0.831036 0.604797 0.094657 0.343922
N6    N     N_1   0.918467 0.645070 0.130982 -0.068191
Cl3   Cl    Cl    0.153574 0.362983 0.098837 -0.463523
Cl4   Cl    Cl    0.846427 0.637016 0.901163 -0.463523
C35   C     C_1   0.125375 0.258004 0.558130 0.293335
N7    N     N_1   0.173351 0.161933 0.587689 -0.149699
C36   C     C_1   0.874625 0.741996 0.441870 0.293336
N8    N     N_1   0.826649 0.838066 0.412311 -0.149699
C37   C     C_1   0.886794 0.242827 0.483003 0.334669
N9    N     N_1   0.845610 0.137631 0.468791 -0.136328
C38   C     C_1   0.113206 0.757173 0.516998 0.334669
N10   N     N_1   0.154391 0.862369 0.531209 -0.136328
Cl5   Cl    Cl    0.666467 0.154907 0.637943 -0.436720
Cl6   Cl    Cl    0.333533 0.845093 0.362057 -0.436720
Cl7   Cl    Cl    0.327821 0.162577 0.365722 -0.430941
Cl8   Cl    Cl    0.672179 0.837423 0.634278 -0.430942

loop_
_geom_bond_atom_site_label_1
_geom_bond_atom_site_label_2
_ccdc_geom_bond_type
C2    O3    A    
C6    C8    A    
C35   N7    T    
C17   Cl1   S    
C18   Cl2   S    
C25   C27   A    
C14   N1    A    
C13   N2    A    
O4    Zn2   S    
C32   N4    T    
O2    Zn2   S    
C8    C38   S    
C30   C34   S    
O1    Zn1   S    
C2    O2    A    
C6    C9    A    
C23   C25   A    
C22   C32   S    
C14   Cl8   S    
C1    O1    A    
C5    C10   A    
O7    Zn1   S    
C29   C33   S    
C31   N3    T    
C3    Cl3   S    
C6    C36   S    
C36   N8    T    
C15   C20   S    
C21   C31   S    
O3    Zn1   S    
C23   C29   A    
C22   C24   A    
C7    C37   S    
C3    C28   A    
C19   C21   A    
C24   C26   A    
C11   N2    A    
O6    Zn2   S    
C11   Cl5   S    
C21   C23   A    
C12   N1    A    
O5    Zn1   S    
C38   N10   T    
C12   Cl6   S    
C11   C14   A    
C24   C30   A    
C15   O8    A    
C16   O7    A    
C34   N6    T    
C17   C27   A    
C7    C9    A    
C37   N9    T    
C4    C27   A    
C18   C28   A    
C12   C13   A    
C18   C20   A    
C3    C29   A    
C33   N5    T    
C16   O6    A    
C5    C7    A    
N2    Zn2   S    
C15   O5    A    
C13   Cl7   S    
N1    Zn1   S    
C17   C19   A    
C25   C26   A    
C4    Cl4   S    
C2    C9    S    
C26   C28   A    
C5    C35   S    
C8    C10   A    
C4    C30   A    
C1    C10   S    
C1    O4    A    
C20   C22   A    
O8    Zn2   S    
C16   C19   S    
