data_mof_unit_44060.cif
_audit_creation_date              2013-03-05T16:09:07-0500
_audit_creation_method            fapswitch 2.2
_symmetry_space_group_name_H-M    P1
_symmetry_Int_Tables_number       1
_space_group_crystal_system       triclinic
_cell_length_a                    18.221201
_cell_length_b                    7.092195
_cell_length_c                    13.011549
_cell_angle_alpha                 90.001405
_cell_angle_beta                  72.247925
_cell_angle_gamma                 89.999513
_cell_volume                      1601.39734707

loop_
_atom_site_label
_atom_site_type_symbol
_atom_site_description
_atom_site_fract_x
_atom_site_fract_y
_atom_site_fract_z
_atom_type_partial_charge
O1    O     O_R   0.453880 0.506200 0.150010 -0.593257
O2    O     O_R   0.546120 0.006200 0.849990 -0.593243
O3    O     O_R   0.604080 0.177770 0.007280 -0.568104
O4    O     O_R   0.395920 0.677770 0.992720 -0.568096
C1    C     C_R   0.635983 0.344519 0.001750 0.984272
C2    C     C_R   0.364017 0.844520 0.998248 0.984159
O5    O     O_R   0.458010 0.176640 0.159130 -0.583343
O6    O     O_R   0.541990 0.676640 0.840870 -0.583358
O7    O     O_R   0.399010 0.004010 0.002930 -0.591680
O8    O     O_R   0.600990 0.504010 0.997070 -0.591708
C3    C     C_R   0.442832 0.345307 0.201663 0.943160
C4    C     C_R   0.557167 0.845301 0.798337 0.943072
O9    O     O_3   0.480810 0.338440 0.948570 -0.256125
O10   O     O_3   0.519190 0.838440 0.051430 -0.256147
V1    V     V_3+5 0.503560 0.064490 0.009540 1.263095
V2    V     V_3+5 0.496440 0.564490 0.990460 1.263092
C5    C     C_R   0.585230 0.932074 0.505270 -0.098220
C6    C     C_R   0.414760 0.432222 0.494725 -0.098155
H1    H     H_    0.491441 0.957611 0.651129 0.161580
H2    H     H_    0.508536 0.457836 0.348858 0.161688
H3    H     H_    0.549306 0.978350 0.457540 0.169578
H4    H     H_    0.450674 0.478621 0.542441 0.169621
C7    C     C_R   0.594279 0.855728 0.681574 -0.143890
C8    C     C_R   0.405721 0.355753 0.318427 -0.143942
C9    C     C_R   0.954667 0.862523 0.384217 -0.181883
C10   C     C_R   0.045340 0.362514 0.615780 -0.181883
C11   C     C_R   0.923162 0.872734 0.495536 -0.098379
C12   C     C_R   0.076847 0.372706 0.504461 -0.098377
C13   C     C_R   0.843497 0.874140 0.542588 -0.161796
C14   C     C_R   0.156513 0.374094 0.457413 -0.161808
C15   C     C_R   0.792853 0.857005 0.479266 0.101803
C16   C     C_R   0.207154 0.356958 0.520740 0.101819
C17   C     C_R   0.825474 0.862270 0.365219 0.052016
C18   C     C_R   0.174531 0.362216 0.634785 0.052008
C19   C     C_R   0.710830 0.852394 0.525519 0.005426
C20   C     C_R   0.289176 0.352366 0.474490 0.005412
C21   C     C_R   0.664057 0.892160 0.457885 -0.019628
C22   C     C_R   0.335946 0.392174 0.542124 -0.019561
C23   C     C_R   0.697253 0.895800 0.344626 0.327289
C24   C     C_R   0.302754 0.395722 0.655390 0.327080
C25   C     C_R   0.776830 0.876087 0.299995 -0.334261
C26   C     C_R   0.223174 0.375982 0.700012 -0.334309
C27   C     C_R   0.672824 0.810931 0.636274 -0.016996
C28   C     C_R   0.327184 0.310896 0.363735 -0.017025
C29   C     C_R   0.551694 0.921143 0.616290 -0.161526
C30   C     C_R   0.448292 0.421283 0.383704 -0.161628
C31   C     C_R   0.906648 0.860416 0.318564 -0.123455
C32   C     C_R   0.093356 0.360393 0.681436 -0.123468
H5    H     H_    0.016769 0.863551 0.348851 0.107432
H6    H     H_    0.983238 0.363562 0.651143 0.107430
H7    H     H_    0.823023 0.900041 0.628227 0.124981
H8    H     H_    0.176990 0.399982 0.371774 0.124984
H9    H     H_    0.960699 0.884191 0.545700 0.128537
H10   H     H_    0.039313 0.384167 0.454295 0.128540
H11   H     H_    0.800561 0.876712 0.212901 0.173383
H12   H     H_    0.199437 0.376541 0.787105 0.173483
C33   C     C_1   0.216296 0.858842 0.000401 -0.209589
C34   C     C_1   0.783704 0.358844 0.999597 -0.209603
C35   C     C_1   0.283585 0.852673 0.999216 -0.151488
C36   C     C_1   0.716415 0.352673 0.000780 -0.151392
O11   O     O_R   0.899030 0.205490 0.002790 -0.581946
O12   O     O_R   0.100970 0.705490 0.997210 -0.581933
O13   O     O_R   0.042000 0.536370 0.840840 -0.591757
O14   O     O_R   0.958000 0.036370 0.159160 -0.591761
C37   C     C_R   0.057368 0.368200 0.798366 0.912975
C38   C     C_R   0.942633 0.868205 0.201634 0.912983
O15   O     O_R   0.895930 0.535070 0.992690 -0.591431
O16   O     O_R   0.104070 0.035070 0.007310 -0.591413
O17   O     O_R   0.953870 0.707520 0.150040 -0.592592
O18   O     O_R   0.046130 0.207520 0.849960 -0.592604
C39   C     C_R   0.864133 0.366768 0.998664 0.967212
C40   C     C_R   0.135867 0.866767 0.001335 0.967194
O19   O     O_3   0.019200 0.374340 0.051340 -0.281292
O20   O     O_3   0.980800 0.874340 0.948660 -0.281312
V3    V     V_3+5 0.996440 0.648350 0.990470 1.184793
V4    V     V_3+5 0.003560 0.148350 0.009530 1.184802
N1    N     N_R   0.650969 0.912809 0.273116 0.228731
O21   O     O_R   0.676249 0.009939 0.184456 -0.414302
O22   O     O_R   0.590878 0.805417 0.286219 -0.429732
N2    N     N_R   0.349039 0.412620 0.726913 0.228733
O23   O     O_R   0.323643 0.509133 0.815793 -0.414214
O24   O     O_R   0.409263 0.305594 0.713580 -0.429775
C41   C     C_1   0.709683 0.701670 0.701015 0.030839
N3    N     N_1   0.738696 0.613838 0.752870 -0.090352
C42   C     C_1   0.290334 0.201579 0.299005 0.030874
N4    N     N_1   0.261327 0.113703 0.247158 -0.090338

loop_
_geom_bond_atom_site_label_1
_geom_bond_atom_site_label_2
_geom_bond_distance
_ccdc_geom_bond_type
C14   C16   1.417323 A    
O13   C37   1.308417 A    
C7    C29   1.393133 A    
C11   C13   1.392875 A    
C27   C41   1.451261 S    
O1    C3    1.308376 A    
O2    C4    1.308379 A    
C2    O7    1.308978 A    
C23   C25   1.394909 A    
C42   N4    1.157704 T    
O5    C3    1.311615 A    
C4    C7    1.464386 S    
O20   V4    2.185418 S    
C16   C20   1.431228 A    
C19   C21   1.427487 A    
C5    C29   1.388459 A    
C10   H6    1.083851 S    
C34   C39   1.462934 S    
C33   C35   1.222256 T    
C38   O17   1.306692 A    
C34   C36   1.222256 T    
C37   O18   1.306689 A    
C3    C8    1.464403 S    
C7    C27   1.407918 A    
C25   H11   1.082768 S    
C26   H12   1.082760 S    
C18   C26   1.405039 A    
C24   N2    1.438858 S    
C32   C37   1.462690 S    
C19   C27   1.426276 A    
C9    C31   1.396887 A    
C31   C38   1.462686 S    
C10   C32   1.396888 A    
O11   C39   1.317697 A    
C24   C26   1.394961 A    
O6    V2    2.030997 S    
O19   V3    2.185445 S    
C6    C30   1.388470 A    
N1    O22   1.301621 A    
O11   V4    1.975221 S    
O20   V3    1.743729 S    
N2    O24   1.301666 A    
C12   H10   1.082891 S    
N1    O21   1.301362 A    
C5    H3    1.081562 S    
H1    C29   1.083629 S    
C16   C18   1.420850 A    
O4    V2    1.992033 S    
C41   N3    1.157708 T    
O16   C40   1.318722 A    
C15   C17   1.420869 A    
O14   V4    2.030982 S    
O12   C40   1.317696 A    
O1    V2    2.024935 S    
C5    C21   1.408281 A    
O2    V1    2.024911 S    
O4    C2    1.310027 A    
O18   V4    2.026466 S    
C9    C11   1.387695 A    
C8    C28   1.407911 A    
O19   V4    1.743709 S    
C15   C19   1.431250 A    
O12   V3    1.975228 S    
C20   C28   1.426269 A    
C18   C32   1.417355 A    
C28   C42   1.451258 S    
C23   N1    1.438768 S    
O3    V1    1.992046 S    
C13   H7    1.077525 S    
C14   H8    1.077529 S    
C1    C36   1.462920 S    
C6    H4    1.081551 S    
C2    C35   1.462917 S    
N2    O23   1.301419 A    
O3    C1    1.310035 A    
C11   H9    1.082892 S    
O16   V4    1.992003 S    
C10   C12   1.387695 A    
C17   C25   1.405039 A    
C12   C14   1.392873 A    
C6    C22   1.408295 A    
C8    C30   1.393140 A    
C1    O8    1.308975 A    
C21   C23   1.412335 A    
O8    V2    1.980004 S    
C20   C22   1.427486 A    
C22   C24   1.412400 A    
O13   V3    2.030937 S    
C17   C31   1.417348 A    
O5    V1    2.030953 S    
O17   V3    2.026445 S    
O15   C39   1.318727 A    
C33   C40   1.462934 S    
O7    V1    1.980007 S    
C9    H5    1.083852 S    
O15   V3    1.992018 S    
C13   C15   1.417326 A    
O9    V2    1.744431 S    
O10   V1    1.744450 S    
H2    C30   1.083627 S    
O6    C4    1.311603 A    
O14   C38   1.308410 A    
