data_mof_unit_32801.cif
_audit_creation_date              2012-12-11T14:23:09-0500
_audit_creation_method            fapswitch 2.2
_symmetry_space_group_name_H-M    P1
_symmetry_Int_Tables_number       1
_space_group_crystal_system       triclinic
_cell_length_a                    11.105997
_cell_length_b                    10.965744
_cell_length_c                    18.904418
_cell_angle_alpha                 89.50241
_cell_angle_beta                  90.0417
_cell_angle_gamma                 59.733234
_cell_volume                      1988.34578719

loop_
_atom_site_label
_atom_site_type_symbol
_atom_type_description
_atom_site_fract_x
_atom_site_fract_y
_atom_site_fract_z
_atom_type_partial_charge
C1    C     C_R   0.239331 0.643503 0.610611 0.544175
C2    C     C_R   0.598041 0.112960 0.704752 -0.156560
C3    C     C_R   0.605546 0.103494 0.776969 -0.132668
C4    C     C_R   0.650729 0.617868 0.603012 0.554389
C5    C     C_R   0.905906 0.158109 0.812573 -0.111495
C6    C     C_R   0.009004 0.164096 0.773599 -0.163910
C7    C     C_R   0.016815 0.145791 0.700825 -0.155668
C8    C     C_R   0.914993 0.131344 0.665689 -0.098535
C9    C     C_R   0.686626 0.144262 0.667627 -0.003310
C10   C     C_R   0.180209 0.671368 0.834944 0.025290
C11   C     C_R   0.213236 0.543313 0.802345 0.030680
C12   C     C_3   0.717121 0.519704 0.800792 -0.087628
C13   C     C_R   0.210660 0.536487 0.727293 0.027348
C14   C     C_R   0.177480 0.774004 0.721185 -0.162017
C15   C     C_R   0.169692 0.782695 0.793770 -0.137914
C16   C     C_R   0.632093 0.222040 0.600565 0.544866
C17   C     C_R   0.248031 0.422445 0.843761 -0.020211
C18   C     C_R   0.262167 0.300726 0.813593 0.011205
C19   C     C_R   0.246812 0.297540 0.740420 -0.174332
C20   C     C_R   0.220716 0.413366 0.697772 -0.104620
C21   C     C_R   0.197777 0.653280 0.685993 -0.001041
C22   C     C_R   0.719051 0.687036 0.180159 0.004309
C23   C     C_3   0.694646 0.669107 0.814396 0.036755
C24   C     C_R   0.797365 0.547128 0.209915 0.044230
C25   C     C_R   0.746960 0.517774 0.271170 -0.001177
C26   C     C_R   0.598028 0.769877 0.291089 -0.079765
C27   C     C_R   0.628123 0.798132 0.223409 -0.149848
C28   C     C_R   0.232677 0.647828 0.398182 0.545678
C29   C     C_R   0.925852 0.435174 0.182366 -0.132788
C30   C     C_R   0.996731 0.303081 0.213801 -0.063368
C31   C     C_R   0.945170 0.277184 0.274346 0.290021
C32   C     C_R   0.810393 0.376400 0.293898 -0.082260
C33   C     C_R   0.647419 0.630316 0.313109 0.048518
C34   C     C_3   0.665744 0.641521 0.678927 0.025372
C35   C     C_R   0.665590 0.152975 0.177873 -0.002582
C36   C     C_R   0.533523 0.216988 0.207766 -0.006658
C37   C     C_R   0.521599 0.199719 0.280466 0.031767
C38   C     C_R   0.768963 0.106257 0.296285 -0.186999
C39   C     C_R   0.785395 0.099266 0.223344 -0.019376
C40   C     C_R   0.623179 0.598549 0.385401 0.555671
C41   C     C_R   0.412786 0.290565 0.165913 -0.078802
C42   C     C_R   0.284788 0.325578 0.193515 -0.119811
C43   C     C_R   0.274522 0.289672 0.262995 -0.147709
C44   C     C_R   0.392243 0.221360 0.305089 -0.086664
C45   C     C_3   0.785230 0.672131 0.690112 -0.257122
C46   C     C_R   0.638026 0.165324 0.325221 -0.010838
C47   C     C_R   0.154100 0.661478 0.180808 -0.027590
C48   C     C_R   0.247705 0.701973 0.204820 0.007193
C49   C     C_R   0.243444 0.733458 0.276710 -0.005769
C50   C     C_R   0.099662 0.626552 0.300463 -0.013840
C51   C     C_R   0.074941 0.633261 0.228614 -0.147615
C52   C     C_R   0.615530 0.226919 0.395894 0.539169
C53   C     C_R   0.316583 0.745011 0.156544 -0.068740
C54   C     C_R   0.338085 0.855063 0.174048 -0.086194
C55   C     C_R   0.307585 0.909222 0.241875 -0.108866
C56   C     C_3   0.698582 0.504839 0.720628 -0.179705
C57   C     C_R   0.272624 0.841957 0.294182 -0.077296
C58   C     C_R   0.188496 0.672145 0.325025 -0.005462
C59   C     C_R   0.706739 0.092003 0.893071 0.537468
C60   C     C_R   0.721364 0.686393 0.889393 0.525689
C61   C     C_R   0.118492 0.706356 0.905986 0.522212
C62   C     C_R   0.679312 0.102749 0.104976 0.525273
C63   C     C_R   0.735015 0.714441 0.105578 0.540796
C64   C     C_3   0.545637 0.780788 0.789316 -0.229938
C65   C     C_R   0.095031 0.706429 0.111436 0.513607
C66   C     C_3   0.529100 0.765616 0.709593 -0.230238
C67   C     C_R   0.702911 0.121579 0.816128 0.031457
C68   C     C_3   0.802114 0.688806 0.769601 -0.236353
C69   C     C_2   0.292093 0.177073 0.858532 0.203576
C70   C     C_3   0.040841 0.186162 0.383029 -0.141528
C71   C     C_2   0.931010 0.036292 0.199737 0.313815
C72   C     C_2   0.017271 0.592412 0.349547 0.215169
C73   C     C_2   0.626146 0.486639 0.847861 0.188035
C74   C     C_R   0.804587 0.137881 0.778559 0.033331
C75   C     C_R   0.802472 0.137251 0.703168 0.022741
Cr1   Cr    Cr6+3 0.392940 0.397950 0.502230 0.989260
Cr2   Cr    Cr6+3 0.398400 0.708500 0.501260 0.992878
Cr3   Cr    Cr6+3 0.708640 0.393530 0.496460 0.978162
Cr4   Cr    Cr6+3 0.937880 0.938320 0.007620 1.063975
Cr5   Cr    Cr6+3 0.625560 0.937220 0.994510 1.059773
Cr6   Cr    Cr6+3 0.938080 0.625010 0.001190 1.011892
H1    H     H_    0.526503 0.887967 0.799095 0.114288
H2    H     H_    0.926464 0.113547 0.609308 0.132164
H3    H     H_    0.171199 0.862600 0.692454 0.146464
H4    H     H_    0.465627 0.769644 0.819425 0.148401
H5    H     H_    0.266821 0.421547 0.899995 0.171545
H6    H     H_    0.149405 0.880577 0.817508 0.152766
H7    H     H_    0.257444 0.203910 0.715951 0.077854
H8    H     H_    0.203397 0.405054 0.642440 0.146874
H9    H     H_    0.533362 0.857042 0.325526 0.122600
H10   H     H_    0.984268 0.447686 0.140932 0.155439
H11   H     H_    0.579605 0.906428 0.204647 0.123936
H12   H     H_    0.797212 0.415345 0.700782 0.144477
H13   H     H_    0.096260 0.223042 0.193215 0.153803
H14   H     H_    0.441241 0.745966 0.701448 0.157065
H15   H     H_    0.760786 0.345528 0.330722 0.161109
H16   H     H_    0.857996 0.071375 0.331186 0.162345
H17   H     H_    0.417037 0.320148 0.111544 0.139352
H18   H     H_    0.195355 0.379641 0.159890 0.115729
H19   H     H_    0.175814 0.317633 0.286075 0.119259
H20   H     H_    0.379383 0.184036 0.355985 0.139369
H21   H     H_    0.333516 0.709519 0.102234 0.125979
H22   H     H_    0.989911 0.622431 0.209889 0.141725
H23   H     H_    0.910587 0.609809 0.785937 0.142644
H24   H     H_    0.502221 0.866069 0.681667 0.111266
H25   H     H_    0.373777 0.901418 0.134530 0.146958
H26   H     H_    0.318561 0.998974 0.255092 0.124013
H27   H     H_    0.255356 0.889066 0.345267 0.174345
H28   H     H_    0.788628 0.795051 0.779000 0.127049
H29   H     H_    0.762373 0.770420 0.661174 0.124245
H30   H     H_    0.826801 0.441300 0.814994 0.115590
H31   H     H_    0.616043 0.478435 0.709507 0.179677
H32   H     H_    0.311735 0.079545 0.834275 0.073593
H33   H     H_    0.946091 0.212757 0.413884 0.160369
H34   H     H_    0.884530 0.584356 0.668969 0.131516
H35   H     H_    0.064898 0.273044 0.386434 0.105492
H36   H     H_    0.128583 0.091998 0.408606 0.112410
H37   H     H_    0.010859 0.948540 0.229335 0.133671
H38   H     H_    0.067746 0.512395 0.390444 0.119590
H39   H     H_    0.647393 0.472303 0.904278 0.123492
H40   H     H_    0.514710 0.106502 0.678515 0.132425
H41   H     H_    0.904164 0.176204 0.868589 0.148390
H42   H     H_    0.531896 0.082145 0.802038 0.139655
H43   H     H_    0.082466 0.183435 0.800331 0.120962
H44   H     H_    0.100467 0.144649 0.671131 0.102771
O1    O     O_R   0.507340 0.255690 0.581430 -0.519337
O2    O     O_R   0.837290 0.593240 0.915240 -0.526084
O3    O     O_R   0.065320 0.635310 0.931580 -0.515128
O4    O     O_R   0.280360 0.527380 0.578910 -0.509252
O5    O     O_R   0.068470 0.828620 0.091850 -0.480303
O6    O     O_R   0.799150 0.057200 0.079350 -0.452467
O7    O     O_R   0.585220 0.080180 0.076770 -0.522047
O8    O     O_R   0.627170 0.809480 0.067050 -0.498266
O9    O     O_R   0.816200 0.596410 0.076500 -0.528915
O10   O     O_R   0.045770 0.638240 0.081070 -0.545460
O11   O     O_3   0.833840 0.833520 0.001110 -0.287364
O12   O     O_R   0.524510 0.695820 0.424050 -0.510359
O13   O     O_R   0.260600 0.739610 0.584580 -0.532918
O14   O     O_R   0.532370 0.695050 0.573830 -0.504543
O15   O     O_R   0.744850 0.503430 0.576380 -0.524170
O16   O     O_R   0.699080 0.276500 0.571950 -0.518402
O17   O     O_R   0.498860 0.256520 0.419860 -0.531967
O18   O     O_R   0.272490 0.528150 0.429140 -0.515533
O19   O     O_R   0.252110 0.740440 0.423010 -0.547970
O20   O     O_2   0.294769 0.182451 0.922980 -0.503621
O21   O     O_3   0.026829 0.153687 0.312354 -0.611830
O22   O     O_2   0.964759 0.088892 0.152248 -0.472621
O23   O     O_R   0.736370 0.504260 0.414810 -0.511433
O24   O     O_2   0.890557 0.658392 0.346194 -0.511479
O25   O     O_2   0.529604 0.475815 0.824310 -0.531689
O26   O     O_R   0.691220 0.277270 0.422180 -0.551209
O27   O     O_3   0.499990 0.499990 0.499980 -0.257767
O28   O     O_R   0.089570 0.825450 0.930590 -0.519393
O29   O     O_R   0.818700 0.054260 0.929860 -0.517300
O30   O     O_R   0.606310 0.077010 0.915520 -0.487075
O31   O     O_R   0.646730 0.806540 0.917560 -0.497692

loop_
_geom_bond_atom_site_label_1
_geom_bond_atom_site_label_2
_ccdc_geom_bond_type
C71   O22   D    
C24   C25   A    
C34   C56   S    
Cr5   O7    S    
C73   O25   D    
C8    H2    S    
Cr1   O1    S    
C41   C42   A    
C19   C20   A    
C14   H3    S    
C34   C66   S    
C65   O5    A    
Cr3   O27   S    
Cr6   O9    S    
C53   C54   A    
C70   H33   S    
C1    C21   S    
Cr4   O11   S    
C12   C23   S    
C69   H32   S    
C26   C27   A    
Cr5   O30   S    
C63   O8    A    
C14   C21   A    
C36   C37   A    
C9    C16   S    
Cr2   O12   S    
C1    O4    A    
C10   C15   A    
C30   C31   A    
C4    O15   A    
Cr1   O27   S    
C70   H36   S    
C51   H22   S    
C46   C52   S    
C49   C57   A    
C18   C19   A    
C5    C74   A    
C50   C72   S    
C24   C29   A    
C59   C67   S    
C22   C63   S    
C31   O21   S    
C11   C17   A    
C35   C36   A    
C47   C48   A    
Cr5   O31   S    
C70   O21   S    
C6    H43   S    
C35   C62   S    
C71   H37   S    
Cr3   O23   S    
C18   C69   S    
C73   H39   S    
C12   C73   S    
Cr6   O2    S    
C36   C41   A    
C23   C60   S    
C38   H16   S    
Cr2   O27   S    
C59   O29   A    
C3    H42   S    
Cr3   O26   S    
Cr6   O10   S    
C48   C53   A    
C4    C34   S    
C33   C40   S    
C38   C46   A    
C74   C75   A    
C54   H25   S    
C17   H5    S    
C50   C58   A    
C63   O9    A    
C62   O7    A    
C7    C8    A    
C38   C39   A    
Cr2   O13   S    
C19   H7    S    
Cr3   O16   S    
C28   O18   A    
C59   O30   A    
C45   H29   S    
C47   C51   A    
C70   H35   S    
Cr4   O5    S    
C5    H41   S    
C8    C75   A    
C52   O17   A    
Cr5   O8    S    
C55   H26   S    
C64   C66   S    
C23   C68   S    
C35   C39   A    
C43   C44   A    
C60   O31   A    
C29   C30   A    
Cr4   O28   S    
Cr1   O4    S    
C45   H34   S    
C26   C33   A    
C69   O20   D    
C31   C32   A    
C53   H21   S    
Cr4   O6    S    
C40   O12   A    
C45   C68   S    
C17   C18   A    
C13   C21   A    
C27   H11   S    
C50   C51   A    
C67   C74   A    
C12   C56   S    
C43   H19   S    
C64   H1    S    
C65   O10   A    
C34   C45   S    
C28   O19   A    
C56   H12   S    
C7    H44   S    
C22   C27   A    
C55   C57   A    
Cr6   O3    S    
C22   C24   A    
C10   C61   S    
C42   C43   A    
C66   H24   S    
C64   H4    S    
C29   H10   S    
Cr6   O11   S    
C15   H6    S    
C2    H40   S    
C61   O28   A    
C54   C55   A    
C48   C49   A    
C40   O23   A    
C13   C20   A    
C32   H15   S    
C14   C15   A    
C62   O6    A    
C60   O2    A    
C3    C67   A    
Cr2   O14   S    
Cr3   O15   S    
C44   H20   S    
C6    C7    A    
C28   C58   S    
C26   H9    S    
C20   H8    S    
Cr5   O11   S    
C37   C44   A    
C68   H23   S    
C2    C3    A    
C23   C64   S    
C30   H13   S    
C42   H18   S    
Cr4   O29   S    
C11   C13   A    
C5    C6    A    
C25   C32   A    
C52   O26   A    
C72   H38   S    
C47   C65   S    
C16   O16   A    
C61   O3    A    
C68   H28   S    
Cr2   O19   S    
C10   C11   A    
C49   C58   A    
Cr1   O18   S    
C57   H27   S    
C72   O24   D    
C39   C71   S    
C41   H17   S    
C9    C75   A    
C37   C46   A    
C2    C9    A    
C16   O1    A    
C56   H31   S    
C12   H30   S    
C1    O13   A    
C25   C33   A    
C66   H14   S    
C4    O14   A    
Cr1   O17   S    
