data_mof_unit_53611.cif
_audit_creation_date              2013-03-05T16:09:23-0500
_audit_creation_method            fapswitch 2.2
_symmetry_space_group_name_H-M    P1
_symmetry_Int_Tables_number       1
_space_group_crystal_system       triclinic
_cell_length_a                    10.630138
_cell_length_b                    9.953399
_cell_length_c                    10.727468
_cell_angle_alpha                 89.808337
_cell_angle_beta                  91.664177
_cell_angle_gamma                 89.992425
_cell_volume                      1134.54541332

loop_
_atom_site_label
_atom_site_type_symbol
_atom_site_description
_atom_site_fract_x
_atom_site_fract_y
_atom_site_fract_z
_atom_type_partial_charge
O1    O     O_R   0.316770 0.614620 0.499990 -0.644772
O2    O     O_R   0.683230 0.614620 0.500010 -0.621393
O3    O     O_R   0.316800 0.385290 0.500000 -0.570063
O4    O     O_R   0.683200 0.385290 0.500000 -0.569755
C1    C     C_R   0.260454 0.499731 0.496391 0.952422
C2    C     C_R   0.739278 0.500180 0.498429 0.911249
O5    O     O_R   0.500000 0.614630 0.319080 -0.628061
O6    O     O_R   0.500000 0.614630 0.680920 -0.646843
O7    O     O_R   0.500030 0.385300 0.319080 -0.555074
O8    O     O_R   0.499970 0.385300 0.680920 -0.551493
C3    C     C_R   0.503611 0.499673 0.263056 1.057605
C4    C     C_R   0.499746 0.499217 0.737234 0.985442
Zn1   Zn    Zn3+2 0.500000 0.653120 0.500000 0.995691
Zn2   Zn    Zn3+2 0.500000 0.346880 0.500000 1.119587
C5    C     C_2   0.489441 0.386788 0.936883 0.323612
C6    C     C_2   0.532507 0.389780 0.065791 0.275144
C7    C     C_2   0.518947 0.494996 0.868718 -0.472515
C8    C     C_2   0.494341 0.496368 0.131078 -0.402797
H1    H     H_    0.573614 0.576607 0.909943 0.139667
H2    H     H_    0.438196 0.575314 0.086676 0.148504
C9    C     C_R   0.067105 0.432743 0.586478 -0.135027
C10   C     C_R   0.938376 0.434068 0.588135 -0.135278
H3    H     H_    0.119717 0.382850 0.661192 0.221115
H4    H     H_    0.890825 0.384832 0.663803 0.214478
C11   C     C_R   0.871463 0.501212 0.493716 -0.183776
C12   C     C_R   0.127598 0.498157 0.490231 -0.172246
C13   C     C_R   0.930533 0.565338 0.394406 0.256017
C14   C     C_R   0.061210 0.562088 0.391382 0.242413
C15   C     C_R   0.581228 0.072047 0.576347 0.301071
C16   C     C_R   0.419531 0.072827 0.422938 0.279359
C17   C     C_R   0.575148 0.929007 0.583057 0.161766
C18   C     C_R   0.425686 0.929892 0.416356 0.125054
N1    N     N_R   0.500000 0.857200 0.500000 -0.157331
N2    N     N_R   0.500000 0.142810 0.500000 -0.220621
N3    N     N_R   0.401697 0.284341 0.894982 0.261415
O9    O     O_R   0.399583 0.168602 0.951539 -0.319254
O10   O     O_R   0.306978 0.315891 0.821038 -0.386304
N4    N     N_R   0.621794 0.290889 0.113044 0.252722
O11   O     O_R   0.636088 0.178435 0.053652 -0.302640
O12   O     O_R   0.706433 0.323595 0.197678 -0.327956
N5    N     N_R   0.858047 0.624034 0.293195 0.228585
O13   O     O_R   0.862968 0.572767 0.182009 -0.293738
O14   O     O_R   0.802268 0.739011 0.308040 -0.318476
N6    N     N_R   0.125245 0.618063 0.287054 0.205044
O15   O     O_R   0.091748 0.734156 0.240828 -0.301240
O16   O     O_R   0.209718 0.547726 0.231028 -0.395165
N7    N     N_R   0.678417 0.141252 0.645067 0.233983
O17   O     O_R   0.655688 0.191635 0.753704 -0.361984
O18   O     O_R   0.794648 0.125659 0.613313 -0.335554
N8    N     N_R   0.324465 0.143144 0.351794 0.246280
O19   O     O_R   0.348691 0.189190 0.241550 -0.329616
O20   O     O_R   0.207981 0.134715 0.384862 -0.304738
N9    N     N_2   0.648703 0.862598 0.677572 -0.281734
H5    H     H_    0.679259 0.767012 0.661287 0.277648
C19   C     C_3   0.616980 0.889428 0.805762 -0.551754
H6    H     H_    0.584669 0.796237 0.851224 0.204770
H7    H     H_    0.540390 0.964913 0.812511 0.262417
H8    H     H_    0.701750 0.926686 0.857600 0.287791
N10   N     N_2   0.353166 0.864238 0.321414 -0.266384
H9    H     H_    0.326072 0.767805 0.338574 0.302895
C20   C     C_3   0.388005 0.889747 0.193699 -0.468512
H10   H     H_    0.417500 0.795232 0.149035 0.202335
H11   H     H_    0.467330 0.962146 0.187861 0.249062
H12   H     H_    0.305381 0.930294 0.140349 0.286952

loop_
_geom_bond_atom_site_label_1
_geom_bond_atom_site_label_2
_geom_bond_distance
_ccdc_geom_bond_type
C4    C7    1.419783 S    
Zn2   N2    2.031191 S    
C20   H12   1.109507 S    
C16   C18   1.426267 A    
C19   H6    1.105883 S    
C17   N1    1.380545 A    
C3    C8    1.416852 S    
Zn1   N1    2.031290 S    
O6    Zn1   1.977005 S    
C1    C12   1.411994 S    
C11   C13   1.403933 A    
N5    O14   1.301208 A    
N5    O13   1.301322 A    
C13   N5    1.435595 S    
C12   C14   1.406880 A    
N7    O17   1.299332 A    
O6    C4    1.296163 A    
C18   N1    1.380944 A    
C20   H10   1.106589 S    
C19   H7    1.111858 S    
N8    O19   1.299655 A    
C16   N8    1.430043 S    
O7    Zn2   1.976882 S    
N10   H9    1.019841 S    
N7    O18   1.300560 A    
C6    C8    1.342395 D    
C9    C10   1.369101 A    
C17   N9    1.423243 S    
O5    C3    1.295308 A    
O7    C3    1.286606 A    
O2    C2    1.285797 A    
O3    Zn2   1.984563 S    
O8    C4    1.286566 A    
C15   N7    1.429905 S    
O1    C1    1.290994 A    
C5    N3    1.445950 S    
N4    O12   1.301679 A    
C9    C12   1.391992 A    
N6    O16   1.300650 A    
C8    H2    1.086926 S    
N9    C19   1.451024 S    
C9    H3    1.083062 S    
O4    Zn2   1.984662 S    
N4    O11   1.300845 A    
C10   H4    1.084346 S    
N10   C20   1.451163 S    
C2    C11   1.407558 S    
O1    Zn1   1.985145 S    
C16   N2    1.365003 A    
C5    C6    1.444387 S    
O3    C1    1.286835 A    
O5    Zn1   1.979521 S    
N6    O15   1.301434 A    
N3    O10   1.301345 A    
O4    C2    1.289946 A    
O8    Zn2   1.979392 S    
C19   H8    1.109569 S    
N8    O20   1.300559 A    
C5    C7    1.342106 D    
O2    Zn1   1.985045 S    
C18   N10   1.420427 S    
C7    H1    1.086606 S    
C15   C17   1.426878 A    
C15   N2    1.366508 A    
C14   N6    1.437521 S    
C20   H11   1.112288 S    
N3    O9    1.300696 A    
N9    H5    1.022511 S    
C6    N4    1.447460 S    
C13   C14   1.390815 A    
C10   C11   1.389967 A    
