data_mof_unit_8184.cif
_audit_creation_date              2012-12-10T18:09:52-0500
_audit_creation_method            fapswitch 2.2
_symmetry_space_group_name_H-M    P1
_symmetry_Int_Tables_number       1
_space_group_crystal_system       triclinic
_cell_length_a                    10.706421
_cell_length_b                    12.634728
_cell_length_c                    13.249894
_cell_angle_alpha                 82.83592
_cell_angle_beta                  90.309512
_cell_angle_gamma                 103.12042
_cell_volume                      1731.44593617

loop_
_atom_site_label
_atom_site_type_symbol
_atom_type_description
_atom_site_fract_x
_atom_site_fract_y
_atom_site_fract_z
_atom_type_partial_charge
C1    C     C_R   0.485484 0.439179 0.690898 0.887155
C2    C     C_R   0.551632 0.480618 0.957525 -0.038780
C3    C     C_R   0.479299 0.474829 0.868409 -0.053079
C4    C     C_R   0.741636 0.499669 0.503903 0.837415
C5    C     C_R   0.524545 0.548005 0.028728 0.035468
C6    C     C_R   0.453503 0.628284 0.998239 0.105866
C7    C     C_R   0.389757 0.626493 0.906497 -0.199013
C8    C     C_R   0.394344 0.545103 0.846519 -0.123310
C9    C     C_R   0.551548 0.528150 0.132108 0.332916
C10   C     C_R   0.474059 0.688465 0.164339 -0.226128
C11   C     C_R   0.499935 0.404676 0.798621 -0.151193
C12   C     C_3   0.119663 0.493007 0.506345 0.073737
C13   C     C_R   0.347206 0.087017 0.336504 -0.320058
C14   C     C_R   0.653003 0.799316 0.628309 -0.028959
C15   C     C_R   0.692209 0.904914 0.653436 -0.350620
C16   C     C_R   0.516635 0.560608 0.309105 0.909752
C17   C     C_R   0.640261 0.989638 0.603959 0.472321
C18   C     C_R   0.541892 0.964440 0.531922 -0.029734
C19   C     C_R   0.510714 0.855170 0.506157 0.164074
C20   C     C_R   0.477508 0.042354 0.479790 0.006240
C21   C     C_R   0.398701 0.011253 0.397068 0.167639
C22   C     C_R   0.372767 0.904871 0.373113 -0.269179
C23   C     C_3   0.088958 0.556233 0.405304 -0.427354
C24   C     C_R   0.425690 0.827698 0.428511 -0.184047
C25   C     C_R   0.485446 0.149335 0.505279 0.008752
C26   C     C_R   0.369498 0.193843 0.357965 0.087865
C27   C     C_R   0.257446 0.496670 0.504817 0.819657
C28   C     C_3   0.892448 0.378324 0.517311 -0.391318
C29   C     C_3   0.033659 0.372849 0.522406 -0.212918
C30   C     C_3   0.949582 0.568827 0.408817 -0.165925
C31   C     C_3   0.942148 0.549234 0.600146 -0.432864
C32   C     C_3   0.878299 0.499127 0.506353 0.054206
C33   C     C_2   0.326195 0.271991 0.280793 0.995155
C34   C     C_3   0.086968 0.552128 0.596339 -0.409623
C35   C     C_2   0.056716 0.293238 0.451772 1.018695
C36   C     C_2   0.885247 0.547646 0.309453 0.875293
C37   C     C_R   0.437316 0.702871 0.063883 -0.195766
C38   C     C_R   0.521630 0.596670 0.200309 -0.140947
C39   C     C_R   0.573352 0.326435 0.825671 0.351476
C40   C     C_R   0.649647 0.336515 0.911466 -0.269399
C41   C     C_R   0.650246 0.420819 0.969762 0.516135
H1    H     H_    0.844172 0.336996 0.453456 0.244482
H2    H     H_    0.333786 0.539783 0.780740 0.140033
H3    H     H_    0.310735 0.880842 0.310914 0.154250
H4    H     H_    0.291619 0.063392 0.270785 0.177715
H5    H     H_    0.530996 0.177111 0.572538 0.238752
H6    H     H_    0.695017 0.734970 0.665549 0.158236
H7    H     H_    0.765916 0.921199 0.709395 0.154605
H8    H     H_    0.401449 0.747410 0.406523 0.210002
H9    H     H_    0.051152 0.336435 0.600764 0.133799
H10   H     H_    0.107896 0.513482 0.340518 0.231226
H11   H     H_    0.928635 0.633905 0.601058 0.188756
H12   H     H_    0.141280 0.639189 0.587134 0.204316
H13   H     H_    0.897597 0.499738 0.671741 0.181573
H14   H     H_    0.115149 0.512219 0.669919 0.159104
H15   H     H_    0.649152 0.446975 0.222157 0.372474
H16   H     H_    0.639212 0.203720 0.790742 0.338897
H17   H     H_    0.769393 0.528856 0.034598 0.316981
H18   H     H_    0.308173 0.320865 0.131414 0.354062
H19   H     H_    0.760992 0.098386 0.670425 0.333978
H20   H     H_    0.107626 0.151180 0.438875 0.332655
H21   H     H_    0.812692 0.613610 0.182139 0.330715
H22   H     H_    0.953099 0.656419 0.416179 0.155586
H23   H     H_    0.153969 0.639396 0.392581 0.152093
H24   H     H_    0.451627 0.741795 0.216119 0.168081
H25   H     H_    0.329150 0.683161 0.884561 0.144752
H26   H     H_    0.387831 0.767296 0.039694 0.156472
H27   H     H_    0.719459 0.286737 0.926308 0.174211
H28   H     H_    0.841460 0.331856 0.588014 0.190341
N1    N     N_R   0.433240 0.222190 0.444680 -0.147541
N2    N     N_R   0.566070 0.776970 0.554790 -0.126655
O1    O     O_R   0.468120 0.366740 0.627160 -0.559306
O2    O     O_3   0.582973 0.251180 0.760560 -0.741404
O3    O     O_3   0.756189 0.449743 0.028598 -0.698919
O4    O     O_2   0.271736 0.339688 0.305586 -0.582768
O5    O     O_R   0.342233 0.264016 0.177476 -0.775432
O6    O     O_3   0.692186 0.096482 0.619797 -0.801425
O7    O     O_2   0.029414 0.305374 0.361951 -0.553760
O8    O     O_R   0.102012 0.201579 0.491666 -0.803502
O9    O     O_2   0.872619 0.458543 0.278852 -0.557502
O10   O     O_R   0.845502 0.633254 0.250643 -0.822713
O11   O     O_R   0.510770 0.544830 0.662520 -0.638033
O12   O     O_R   0.663880 0.410950 0.482330 -0.614382
O13   O     O_R   0.706530 0.589040 0.517700 -0.624487
O14   O     O_R   0.489230 0.455170 0.337480 -0.579900
O15   O     O_R   0.531880 0.633260 0.372840 -0.627915
O16   O     O_R   0.293470 0.410960 0.482300 -0.571382
O17   O     O_R   0.336120 0.589050 0.517670 -0.653036
O18   O     O_3   0.587555 0.432112 0.167118 -0.688233
Zn1   Zn    Zn3+2 0.471520 0.381090 0.476390 1.033686
Zn2   Zn    Zn3+2 0.528480 0.618910 0.523610 0.936859

loop_
_geom_bond_atom_site_label_1
_geom_bond_atom_site_label_2
_ccdc_geom_bond_type
C13   H4    S    
C40   C41   A    
C12   C29   S    
C14   N2    A    
C19   N2    A    
C28   H28   S    
C1    C11   S    
C8    H2    S    
C31   H11   S    
C7    C8    A    
C12   C23   S    
C10   C37   A    
C28   C29   S    
O15   Zn2   S    
C5    C6    A    
C20   C25   A    
C2    C41   A    
C18   C19   A    
H16   O2    S    
C26   C33   S    
C41   O3    S    
C33   O4    D    
C22   H3    S    
O13   Zn2   S    
C34   H14   S    
C21   C22   A    
C16   O15   A    
N1    Zn1   S    
C15   H7    S    
C6    C7    A    
C29   H9    S    
H19   O6    S    
C31   C34   S    
C1    O1    A    
C12   C27   S    
C23   C30   S    
C28   C32   S    
C25   H5    S    
C3    C8    A    
C36   O9    D    
C9    O18   S    
C39   C40   A    
C1    O11   A    
O11   Zn2   S    
C11   C39   A    
C5    C9    A    
O1    Zn1   S    
C33   O5    S    
C23   H10   S    
C31   C32   S    
C4    O13   A    
O17   Zn2   S    
C36   O10   S    
C17   O6    S    
C17   C18   A    
C6    C37   A    
C13   C21   A    
C27   O16   A    
C4    C32   S    
C23   H23   S    
H21   O10   S    
C16   O14   A    
C26   N1    A    
C22   C24   A    
C13   C26   A    
C35   O8    S    
C2    C5    A    
C12   C34   S    
H17   O3    S    
C10   H24   S    
C24   H8    S    
C15   C17   A    
O12   Zn1   S    
H15   O18   S    
O14   Zn1   S    
C14   H6    S    
C29   C35   S    
C35   O7    D    
C30   C36   S    
C10   C38   A    
C2    C3    A    
C7    H25   S    
C30   C32   S    
C4    O12   A    
H20   O8    S    
C37   H26   S    
C28   H1    S    
C9    C38   A    
C19   C24   A    
C18   C20   A    
C39   O2    S    
C31   H13   S    
C27   O17   A    
C3    C11   A    
N2    Zn2   S    
C20   C21   A    
C34   H12   S    
C40   H27   S    
O16   Zn1   S    
C14   C15   A    
C25   N1    A    
C30   H22   S    
H18   O5    S    
C16   C38   S    
