data_mof_unit_38872.cif
_audit_creation_date              2012-12-10T18:10:43-0500
_audit_creation_method            fapswitch 2.2
_symmetry_space_group_name_H-M    P1
_symmetry_Int_Tables_number       1
_space_group_crystal_system       triclinic
_cell_length_a                    12.608484
_cell_length_b                    13.144172
_cell_length_c                    15.730891
_cell_angle_alpha                 90.498942
_cell_angle_beta                  102.668207
_cell_angle_gamma                 82.36368
_cell_volume                      2520.46465874

loop_
_atom_site_label
_atom_site_type_symbol
_atom_type_description
_atom_site_fract_x
_atom_site_fract_y
_atom_site_fract_z
_atom_type_partial_charge
C1    C     C_R   0.438791 0.691159 0.487048 0.843902
C2    C     C_R   0.596490 0.200264 0.501275 -0.046680
C3    C     C_R   0.300970 0.837786 0.501701 -0.196902
C4    C     C_R   0.500882 0.500332 0.661419 0.909213
C5    C     C_R   0.272876 0.942379 0.510560 -0.152615
C6    C     C_R   0.346047 0.009807 0.501459 -0.195587
C7    C     C_R   0.447229 0.973416 0.479001 0.083814
C8    C     C_R   0.467087 0.869691 0.456894 0.083923
C9    C     C_R   0.529412 0.036394 0.477695 0.076808
C10   C     C_R   0.620966 0.000478 0.441544 0.175377
C11   C     C_R   0.630604 0.901996 0.408368 -0.256921
C12   C     C_3   0.371542 0.537578 0.025399 -0.049453
C13   C     C_R   0.554588 0.837252 0.415814 -0.203125
C14   C     C_R   0.523787 0.133866 0.512800 -0.260777
C15   C     C_R   0.687206 0.165221 0.466137 -0.207448
C16   C     C_R   0.561041 0.308810 0.508680 0.857524
C17   C     C_R   0.399595 0.800712 0.477740 -0.110644
C18   C     C_R   0.088702 0.345042 0.381352 -0.313986
C19   C     C_R   0.799323 0.630458 0.601654 0.024773
C20   C     C_R   0.903757 0.659208 0.622966 -0.255576
C21   C     C_R   0.985501 0.609738 0.584655 -0.194851
C22   C     C_R   0.962705 0.530708 0.524457 0.014239
C23   C     C_3   0.491059 0.506282 0.081177 0.287025
C24   C     C_R   0.854831 0.504124 0.505208 0.235143
C25   C     C_R   0.042008 0.477281 0.482692 -0.016010
C26   C     C_R   0.011961 0.398539 0.423176 0.196838
C27   C     C_R   0.905710 0.373731 0.405995 -0.299342
C28   C     C_R   0.498974 0.500023 0.338503 0.890660
C29   C     C_R   0.828477 0.425837 0.446513 -0.210735
C30   C     C_R   0.150655 0.498419 0.497347 -0.052115
C31   C     C_R   0.194601 0.369666 0.398798 0.008932
C32   C     C_3   0.374079 0.539239 0.925890 -0.095704
C33   C     C_3   0.567998 0.591865 0.966271 -0.039626
C34   C     C_3   0.541723 0.400752 0.054638 -0.399576
C35   C     C_3   0.564610 0.586530 0.064432 -0.483469
C36   C     C_1   0.495948 0.501883 0.249071 -0.193953
C37   C     C_3   0.496256 0.511781 0.916370 0.263025
C38   C     C_3   0.281170 0.478380 0.049051 -0.412122
C39   C     C_3   0.257171 0.379408 0.999387 -0.341508
C40   C     C_3   0.194411 0.314971 0.046243 -0.895380
C41   C     C_3   0.315142 0.642466 0.879719 -0.462352
C42   C     C_3   0.190075 0.653509 0.869495 -0.331388
C43   C     C_3   0.133385 0.748573 0.814610 -0.892984
C44   C     C_3   0.688209 0.581284 0.952659 -0.389617
C45   C     C_3   0.538779 0.402065 0.956447 -0.440973
C46   C     C_3   0.700723 0.653506 0.879965 -0.364415
C47   C     C_3   0.816384 0.635072 0.862993 -0.876571
C48   C     C_1   0.493481 0.503991 0.173311 -0.115189
C49   C     C_1   0.500202 0.507995 0.825407 -0.114586
C50   C     C_1   0.501556 0.503964 0.750356 -0.207837
C51   C     C_R   0.700485 0.064572 0.437713 -0.204432
H1    H     H_    0.348523 0.618059 0.044308 0.128785
H2    H     H_    0.196194 0.970949 0.528203 0.141587
H3    H     H_    0.564359 0.761881 0.388088 0.171914
H4    H     H_    0.255400 0.328964 0.367391 0.136035
H5    H     H_    0.882028 0.313629 0.360924 0.149074
H6    H     H_    0.067037 0.284816 0.335881 0.142376
H7    H     H_    0.181266 0.556373 0.541264 0.124063
H8    H     H_    0.735374 0.668671 0.631150 0.142063
H9    H     H_    0.065072 0.634984 0.603390 0.134013
H10   H     H_    0.921155 0.719856 0.668791 0.148900
H11   H     H_    0.748538 0.403023 0.430677 0.210069
H12   H     H_    0.329659 0.478648 0.890937 0.160241
H13   H     H_    0.528713 0.670027 0.942116 0.138097
H14   H     H_    0.532656 0.663751 0.085069 0.152364
H15   H     H_    0.648168 0.566346 0.106367 0.182808
H16   H     H_    0.484368 0.346580 0.923773 0.162388
H17   H     H_    0.621678 0.373617 0.945692 0.175272
H18   H     H_    0.498790 0.338266 0.072149 0.175190
H19   H     H_    0.244858 0.289147 0.111444 0.260737
H20   H     H_    0.116387 0.360353 0.054042 0.261574
H21   H     H_    0.174986 0.246145 0.007529 0.248505
H22   H     H_    0.205322 0.399587 0.933454 0.208679
H23   H     H_    0.628528 0.383286 0.091215 0.174185
H24   H     H_    0.333323 0.331646 0.991715 0.220751
H25   H     H_    0.300706 0.460946 0.120062 0.223455
H26   H     H_    0.202663 0.531054 0.037588 0.179527
H27   H     H_    0.164782 0.818620 0.844570 0.261719
H28   H     H_    0.147720 0.741837 0.747461 0.255897
H29   H     H_    0.043739 0.756245 0.810992 0.245302
H30   H     H_    0.157604 0.584750 0.837633 0.222035
H31   H     H_    0.169346 0.660969 0.934424 0.217344
H32   H     H_    0.346170 0.708901 0.916541 0.195953
H33   H     H_    0.332060 0.647029 0.813590 0.221076
H34   H     H_    0.744158 0.216545 0.456592 0.148107
H35   H     H_    0.878022 0.647158 0.923218 0.256221
H36   H     H_    0.834138 0.555585 0.840417 0.266673
H37   H     H_    0.823283 0.689628 0.811590 0.242042
H38   H     H_    0.641513 0.642558 0.818320 0.237319
H39   H     H_    0.683747 0.734538 0.899391 0.212043
H40   H     H_    0.745201 0.601483 0.013014 0.198527
H41   H     H_    0.717443 0.501108 0.938219 0.212929
H42   H     H_    0.697899 0.874364 0.377907 0.148836
H43   H     H_    0.770144 0.038244 0.409558 0.133837
H44   H     H_    0.460384 0.162033 0.546644 0.148207
H45   H     H_    0.247300 0.785703 0.516358 0.150317
H46   H     H_    0.320093 0.090024 0.510214 0.134810
N1    N     N_R   0.222200 0.444690 0.455710 -0.101323
N2    N     N_R   0.776960 0.554780 0.543830 -0.130236
O1    O     O_R   0.366740 0.627160 0.478850 -0.616105
O2    O     O_R   0.544830 0.662520 0.507140 -0.618532
O3    O     O_R   0.410920 0.482310 0.608710 -0.613460
O4    O     O_R   0.589010 0.517670 0.637000 -0.611554
O5    O     O_R   0.455170 0.337480 0.492860 -0.615567
O6    O     O_R   0.633260 0.372840 0.521150 -0.635064
O7    O     O_R   0.410990 0.482330 0.363000 -0.611682
O8    O     O_R   0.589080 0.517690 0.391290 -0.635611
Zn1   Zn    Zn3+2 0.381090 0.476390 0.481110 0.935148
Zn2   Zn    Zn3+2 0.618910 0.523610 0.518890 0.925389

loop_
_geom_bond_atom_site_label_1
_geom_bond_atom_site_label_2
_ccdc_geom_bond_type
C8    C13   A    
C40   H20   S    
C27   C29   A    
C24   N2    A    
C41   C42   S    
C19   C20   A    
C18   C26   A    
C7    C8    A    
C46   H38   S    
C38   H25   S    
C43   H27   S    
C42   H31   S    
C12   C23   S    
C26   C27   A    
C40   H19   S    
C5    H2    S    
C38   C39   S    
C35   H14   S    
C28   O8    A    
O2    Zn2   S    
N2    Zn2   S    
C4    O4    A    
N1    Zn1   S    
C31   N1    A    
C20   H10   S    
C24   C29   A    
C46   C47   S    
C16   O5    A    
C28   O7    A    
C22   C25   A    
C4    O3    A    
C45   H16   S    
C32   C41   S    
O3    Zn1   S    
C3    H45   S    
C39   H24   S    
C2    C16   S    
C9    C10   A    
C44   H41   S    
C15   H34   S    
C11   H42   S    
C21   C22   A    
C12   C32   S    
O8    Zn2   S    
C42   H30   S    
C10   C51   A    
C1    O1    A    
C12   H1    S    
C44   C46   S    
C36   C48   T    
O1    Zn1   S    
C47   H35   S    
C21   H9    S    
C39   C40   S    
C19   N2    A    
C27   H5    S    
C35   H15   S    
C19   H8    S    
C43   H29   S    
C41   H33   S    
C33   C37   S    
C4    C50   S    
C47   H36   S    
C9    C14   A    
C6    H46   S    
C37   C49   S    
C18   H6    S    
C23   C34   S    
C45   H17   S    
C34   C45   S    
C32   C37   S    
C2    C15   A    
C34   H18   S    
C44   H40   S    
C16   O6    A    
C34   H23   S    
C15   C51   A    
C22   C24   A    
C42   C43   S    
C37   C45   S    
C1    O2    A    
C14   H44   S    
O5    Zn1   S    
C13   H3    S    
C25   C30   A    
C7    C9    A    
O6    Zn2   S    
C29   H11   S    
C23   C48   S    
C40   H21   S    
C33   C44   S    
C32   H12   S    
C3    C5    A    
C6    C7    A    
C46   H39   S    
C38   H26   S    
C30   N1    A    
C1    C17   S    
C8    C17   A    
O4    Zn2   S    
C47   H37   S    
C25   C26   A    
C11   C13   A    
C5    C6    A    
O7    Zn1   S    
C33   H13   S    
C30   H7    S    
C33   C35   S    
C3    C17   A    
C39   H22   S    
C12   C38   S    
C2    C14   A    
C23   C35   S    
C10   C11   A    
C51   H43   S    
C20   C21   A    
C28   C36   S    
C49   C50   T    
C18   C31   A    
C31   H4    S    
C43   H28   S    
C41   H32   S    
