data_mof_unit_66731.cif
_audit_creation_date              2013-03-05T15:39:27-0500
_audit_creation_method            fapswitch 2.2
_symmetry_space_group_name_H-M    P1
_symmetry_Int_Tables_number       1
_space_group_crystal_system       triclinic
_cell_length_a                    21.048083
_cell_length_b                    23.256779
_cell_length_c                    8.973792
_cell_angle_alpha                 89.646586
_cell_angle_beta                  106.086052
_cell_angle_gamma                 90.423012
_cell_volume                      4220.62096628

loop_
_atom_site_label
_atom_site_type_symbol
_atom_site_description
_atom_site_fract_x
_atom_site_fract_y
_atom_site_fract_z
_atom_type_partial_charge
P1    P     P_3+3 0.859590 0.433890 0.993820 0.511836
P2    P     P_3+3 0.859590 0.566110 0.493820 0.527057
P3    P     P_3+3 0.359590 0.933890 0.993820 0.511834
P4    P     P_3+3 0.359590 0.066110 0.493820 0.527058
O1    O     O_2   0.866180 0.413660 0.823810 -0.312323
O2    O     O_2   0.866180 0.586340 0.323810 -0.329868
O3    O     O_2   0.366180 0.913660 0.823810 -0.312319
O4    O     O_2   0.366180 0.086340 0.323810 -0.329869
O5    O     O_3   0.922050 0.469730 0.097400 -0.426041
O6    O     O_3   0.922050 0.530270 0.597400 -0.431837
O7    O     O_3   0.422050 0.969730 0.097400 -0.426042
O8    O     O_3   0.422050 0.030270 0.597400 -0.431838
O9    O     O_3   0.976760 0.360270 0.628090 -0.358801
O10   O     O_3   0.976760 0.639730 0.128090 -0.350540
O11   O     O_3   0.476760 0.860270 0.628090 -0.358802
O12   O     O_3   0.476760 0.139730 0.128090 -0.350534
O13   O     O_2   0.859919 0.335424 0.638666 -0.263809
O14   O     O_2   0.858735 0.666623 0.122492 -0.290666
O15   O     O_2   0.359921 0.835422 0.638675 -0.263799
O16   O     O_2   0.358732 0.166622 0.122482 -0.290662
O17   O     O_3   0.782806 0.468486 0.934431 -0.547596
O18   O     O_3   0.782497 0.531030 0.450421 -0.496084
O19   O     O_3   0.282808 0.968488 0.934428 -0.547601
O20   O     O_3   0.282496 0.031031 0.450419 -0.496082
O21   O     O_3   0.929538 0.245395 0.655448 -0.607646
O22   O     O_3   0.934211 0.755024 0.144998 -0.614379
O23   O     O_3   0.429539 0.745394 0.655446 -0.607646
O24   O     O_3   0.434213 0.255022 0.145009 -0.614390
C1    C     C_3   0.976635 0.151142 0.677163 0.054827
C2    C     C_3   0.983202 0.850627 0.143794 0.151865
C3    C     C_3   0.476634 0.651141 0.677158 0.054834
C4    C     C_3   0.483208 0.350624 0.143808 0.151936
H1    H     H_    0.960592 0.149769 0.783653 0.119284
H2    H     H_    0.992128 0.858926 0.267714 0.120186
H3    H     H_    0.460592 0.649768 0.783650 0.119276
H4    H     H_    0.492142 0.358922 0.267731 0.120178
P5    P     P_3+3 0.140130 0.433190 0.695710 0.472375
P6    P     P_3+3 0.140130 0.566810 0.195710 0.479596
P7    P     P_3+3 0.640130 0.933190 0.695710 0.472380
P8    P     P_3+3 0.640130 0.066810 0.195710 0.479593
P9    P     P_3+3 0.090492 0.313985 0.136613 0.519063
P10   P     P_3+3 0.089958 0.688255 0.631360 0.535258
P11   P     P_3+3 0.590491 0.813984 0.136611 0.519064
P12   P     P_3+3 0.589957 0.188256 0.631358 0.535258
O25   O     O_2   0.133470 0.412980 0.865660 -0.346854
O26   O     O_2   0.133470 0.587020 0.365660 -0.367612
O27   O     O_2   0.633470 0.912980 0.865660 -0.346859
O28   O     O_2   0.633470 0.087020 0.365660 -0.367599
O29   O     O_3   0.022720 0.360150 0.061220 -0.380090
O30   O     O_3   0.022720 0.639850 0.561220 -0.378112
O31   O     O_3   0.522720 0.860150 0.061220 -0.380091
O32   O     O_3   0.522720 0.139850 0.561220 -0.378113
O33   O     O_2   0.144679 0.332307 0.059803 -0.328066
O34   O     O_2   0.143541 0.669403 0.554205 -0.312176
O35   O     O_2   0.644679 0.832307 0.059805 -0.328067
O36   O     O_2   0.643540 0.169404 0.554200 -0.312172
O37   O     O_3   0.213556 0.473182 0.723254 -0.567433
O38   O     O_3   0.211362 0.524587 0.221701 -0.568018
O39   O     O_3   0.713554 0.973184 0.723243 -0.567442
O40   O     O_3   0.711362 0.024587 0.221697 -0.568018
O41   O     O_3   0.067278 0.246763 0.054210 -0.466153
O42   O     O_3   0.066879 0.754817 0.541613 -0.457924
O43   O     O_3   0.567276 0.746763 0.054204 -0.466153
O44   O     O_3   0.566876 0.254817 0.541613 -0.457930
C5    C     C_3   0.013543 0.223677 0.099752 0.341396
C6    C     C_3   0.015478 0.780342 0.589697 0.356449
C7    C     C_3   0.513542 0.723676 0.099747 0.341381
C8    C     C_3   0.515477 0.280343 0.589701 0.356428
H5    H     H_    0.015814 0.238614 0.215640 0.174097
H6    H     H_    0.015517 0.763617 0.701704 0.179807
H7    H     H_    0.515814 0.738613 0.215635 0.174099
H8    H     H_    0.515513 0.263616 0.701705 0.179795
C9    C     C_3   0.021702 0.157460 0.103122 0.054284
C10   C     C_3   0.028243 0.846336 0.598028 0.152105
C11   C     C_3   0.521702 0.657459 0.103114 0.054274
C12   C     C_3   0.528245 0.346337 0.598042 0.152144
H9    H     H_    0.046095 0.146221 0.012733 0.212704
H10   H     H_    0.048747 0.857407 0.501480 0.202083
H11   H     H_    0.546094 0.646222 0.012724 0.212708
H12   H     H_    0.548752 0.357408 0.501500 0.202081
C13   C     C_3   0.221436 0.485491 0.344262 0.439712
C14   C     C_3   0.219810 0.517887 0.829152 0.400804
C15   C     C_3   0.721435 0.985489 0.344251 0.439688
C16   C     C_3   0.719813 0.017885 0.829153 0.400858
H13   H     H_    0.223048 0.508335 0.452818 0.103510
H14   H     H_    0.214488 0.501091 0.940772 0.113245
H15   H     H_    0.723045 0.008330 0.452809 0.103527
H16   H     H_    0.714500 0.001083 0.940776 0.113235
C17   C     C_3   0.288831 0.453735 0.361962 0.500222
C18   C     C_3   0.289973 0.546169 0.857725 0.507348
C19   C     C_3   0.788833 0.953735 0.361953 0.500239
C20   C     C_3   0.789973 0.046170 0.857711 0.507325
Ba1   Ba    Ba6+2 0.999900 0.456810 0.844860 1.597246
Ba2   Ba    Ba6+2 0.999900 0.543190 0.344860 1.598637
Ba3   Ba    Ba6+2 0.499900 0.956810 0.844860 1.597247
Ba4   Ba    Ba6+2 0.499900 0.043190 0.344860 1.598637
C21   C     C_3   0.785185 0.527622 0.960774 0.234635
C22   C     C_3   0.782767 0.471068 0.443396 0.314267
C23   C     C_3   0.285187 0.027624 0.960780 0.234630
C24   C     C_3   0.282766 0.971069 0.443396 0.314288
H17   H     H_    0.808831 0.537499 0.083891 0.140481
H18   H     H_    0.825705 0.452600 0.531976 0.113736
H19   H     H_    0.308831 0.037498 0.083899 0.140485
H20   H     H_    0.325704 0.952601 0.531978 0.113735
C25   C     C_3   0.712181 0.548162 0.917686 0.352376
C26   C     C_3   0.717479 0.450336 0.478001 0.405954
C27   C     C_3   0.212183 0.048165 0.917689 0.352376
C28   C     C_3   0.217477 0.950338 0.478002 0.405942
H21   H     H_    0.685455 0.518408 0.977328 0.109949
H22   H     H_    0.722811 0.463652 0.599204 0.077017
H23   H     H_    0.185456 0.018411 0.977328 0.109947
H24   H     H_    0.222809 0.963655 0.599205 0.077018
O45   O     O_3   0.077880 0.530130 0.092320 -0.412176
O46   O     O_3   0.077880 0.469870 0.592320 -0.423707
O47   O     O_3   0.577880 0.030130 0.092320 -0.412183
O48   O     O_3   0.577880 0.969870 0.592320 -0.423702
P13   P     P_3+3 0.913287 0.688005 0.051190 0.515471
P14   P     P_3+3 0.911034 0.312795 0.560682 0.548550
P15   P     P_3+3 0.413287 0.188005 0.051190 0.515453
P16   P     P_3+3 0.411034 0.812795 0.560683 0.548552
C29   C     C_3   0.987740 0.216337 0.643704 0.808763
C30   C     C_3   0.991547 0.783883 0.123967 0.798713
C31   C     C_3   0.487740 0.716335 0.643700 0.808770
C32   C     C_3   0.491549 0.283880 0.123972 0.798695
C33   C     C_R   0.111663 0.651729 0.946276 -0.083345
C34   C     C_R   0.106738 0.345643 0.452047 -0.044712
C35   C     C_R   0.611663 0.151728 0.946274 -0.083311
C36   C     C_R   0.606737 0.845643 0.452044 -0.044727
C37   C     C_R   0.130667 0.691191 0.848259 0.184320
C38   C     C_R   0.128657 0.309513 0.352210 0.181168
C39   C     C_R   0.630669 0.191190 0.848256 0.184346
C40   C     C_R   0.628655 0.809512 0.352208 0.181172
C41   C     C_R   0.182964 0.729333 0.910559 -0.173851
C42   C     C_R   0.184154 0.274750 0.410078 -0.258446
C43   C     C_R   0.682964 0.229332 0.910556 -0.173870
C44   C     C_R   0.684150 0.774747 0.410076 -0.258425
C45   C     C_R   0.224312 0.726152 0.065999 0.177173
C46   C     C_R   0.221775 0.273378 0.567995 0.192665
C47   C     C_R   0.724313 0.226151 0.065996 0.177176
C48   C     C_R   0.721772 0.773375 0.567993 0.192665
C49   C     C_R   0.210371 0.676167 0.154932 0.166068
C50   C     C_R   0.206694 0.321818 0.659771 0.164428
C51   C     C_R   0.710371 0.176166 0.154930 0.166071
C52   C     C_R   0.706693 0.821817 0.659767 0.164431
C53   C     C_R   0.153661 0.638425 0.094401 0.323526
C54   C     C_R   0.149988 0.359690 0.599271 0.300896
C55   C     C_R   0.653660 0.138425 0.094400 0.323518
C56   C     C_R   0.649987 0.859690 0.599267 0.300900
C57   C     C_R   0.814273 0.277789 0.286884 -0.125413
C58   C     C_R   0.817449 0.724056 0.780370 -0.128259
C59   C     C_R   0.314270 0.777791 0.286887 -0.125427
C60   C     C_R   0.317458 0.224063 0.780368 -0.128265
C61   C     C_R   0.867389 0.315192 0.348323 0.333298
C62   C     C_R   0.872884 0.689152 0.836532 0.286433
C63   C     C_R   0.367387 0.815193 0.348325 0.333304
C64   C     C_R   0.372892 0.189158 0.836529 0.286326
C65   C     C_R   0.848867 0.362374 0.096783 0.217206
C66   C     C_R   0.848969 0.639394 0.588898 0.245292
C67   C     C_R   0.348865 0.862375 0.096784 0.217194
C68   C     C_R   0.348971 0.139395 0.588898 0.245305
C69   C     C_R   0.802935 0.316552 0.030132 0.158156
C70   C     C_R   0.794995 0.679242 0.529083 0.209507
C71   C     C_R   0.302934 0.816552 0.030133 0.158155
C72   C     C_R   0.294997 0.179244 0.529085 0.209512
C73   C     C_R   0.781551 0.273061 0.126026 -0.019688
C74   C     C_R   0.779256 0.726263 0.623079 -0.021690
C75   C     C_R   0.281549 0.773062 0.126028 -0.019684
C76   C     C_R   0.279261 0.226267 0.623079 -0.021685
C77   C     C_R   0.881840 0.358426 0.254483 -0.578842
C78   C     C_R   0.889031 0.648887 0.737930 -0.571523
C79   C     C_R   0.381839 0.858426 0.254484 -0.578837
C80   C     C_R   0.389034 0.148888 0.737930 -0.571532
H25   H     H_    0.797515 0.255963 0.373210 0.181814
H26   H     H_    0.802242 0.744524 0.869770 0.174274
H27   H     H_    0.297511 0.755965 0.373212 0.181818
H28   H     H_    0.302255 0.244531 0.869769 0.174268
H29   H     H_    0.188003 0.762041 0.831862 0.190909
H30   H     H_    0.198031 0.251279 0.323353 0.206906
H31   H     H_    0.688003 0.262040 0.831859 0.190908
H32   H     H_    0.698024 0.751273 0.323353 0.206901
H33   H     H_    0.914275 0.392976 0.308272 0.174115
H34   H     H_    0.923222 0.615591 0.786931 0.171647
H35   H     H_    0.414274 0.892976 0.308273 0.174114
H36   H     H_    0.423221 0.115590 0.786933 0.171654
N1    N     N_R   0.047565 0.238561 0.758156 0.215451
O49   O     O_R   0.100061 0.206835 0.804481 -0.292585
O50   O     O_R   0.056982 0.293430 0.775617 -0.292463
N2    N     N_R   0.051483 0.762238 0.238608 0.228171
O51   O     O_R   0.099157 0.796744 0.306681 -0.295884
O52   O     O_R   0.065292 0.707930 0.245496 -0.304994
N3    N     N_R   0.547566 0.738558 0.758151 0.215451
O53   O     O_R   0.600061 0.706832 0.804475 -0.292591
O54   O     O_R   0.556984 0.793428 0.775610 -0.292469
N4    N     N_R   0.551485 0.262233 0.238610 0.228178
O55   O     O_R   0.599163 0.296737 0.306671 -0.295882
O56   O     O_R   0.565290 0.207924 0.245511 -0.304966
C81   C     C_3   0.346569 0.497869 0.393416 -0.719088
H37   H     H_    0.381011 0.491610 0.510398 0.275318
H38   H     H_    0.328863 0.542523 0.388522 0.220118
H39   H     H_    0.376332 0.494872 0.309211 0.280135
C82   C     C_3   0.344514 0.500248 0.917416 -0.670029
H40   H     H_    0.371126 0.506501 0.041260 0.254674
H41   H     H_    0.382250 0.500491 0.851985 0.304304
H42   H     H_    0.323875 0.456256 0.906887 0.211315
C83   C     C_3   0.846569 0.997870 0.393417 -0.719097
H43   H     H_    0.881007 0.991613 0.510404 0.275310
H44   H     H_    0.828862 0.042524 0.388517 0.220120
H45   H     H_    0.876336 0.994874 0.309221 0.280147
C84   C     C_3   0.844517 0.000251 0.917389 -0.670041
H46   H     H_    0.871129 0.006502 0.041235 0.254681
H47   H     H_    0.882252 0.000499 0.851956 0.304298
H48   H     H_    0.823881 0.956258 0.906856 0.211326
N5    N     N_R   0.301738 0.412104 0.491715 0.255000
O57   O     O_R   0.310734 0.430010 0.632420 -0.411765
O58   O     O_R   0.309532 0.357551 0.470348 -0.398976
N6    N     N_R   0.297787 0.591472 0.974927 0.250850
O59   O     O_R   0.300645 0.577750 0.116694 -0.421126
O60   O     O_R   0.301870 0.645551 0.939873 -0.373974
N7    N     N_R   0.801737 0.912102 0.491702 0.255006
O61   O     O_R   0.810731 0.930007 0.632409 -0.411769
O62   O     O_R   0.809524 0.857549 0.470330 -0.398972
N8    N     N_R   0.797789 0.091472 0.974917 0.250857
O63   O     O_R   0.800647 0.077749 0.116683 -0.421121
O64   O     O_R   0.801871 0.145552 0.939867 -0.373978
C85   C     C_3   0.286685 0.421118 0.212116 -0.865055
H49   H     H_    0.245071 0.390303 0.178853 0.264025
H50   H     H_    0.283882 0.450985 0.115673 0.225989
H51   H     H_    0.331984 0.395704 0.233554 0.275224
C86   C     C_3   0.299468 0.573144 0.707875 -0.869420
H52   H     H_    0.257746 0.600768 0.645705 0.254161
H53   H     H_    0.344234 0.600572 0.738919 0.280311
H54   H     H_    0.307200 0.539670 0.629555 0.231532
C87   C     C_3   0.786692 0.921120 0.212107 -0.865052
H55   H     H_    0.745075 0.890309 0.178823 0.264026
H56   H     H_    0.783901 0.950988 0.115674 0.225977
H57   H     H_    0.831990 0.895702 0.233556 0.275229
C88   C     C_3   0.799458 0.073147 0.707853 -0.869416
H58   H     H_    0.757728 0.100762 0.645682 0.254167
H59   H     H_    0.844217 0.100582 0.738883 0.280306
H60   H     H_    0.807194 0.039674 0.629537 0.231519
C89   C     C_3   0.824649 0.555878 0.864440 -0.740805
H61   H     H_    0.818750 0.531957 0.755335 0.239479
H62   H     H_    0.806147 0.599328 0.837059 0.225094
H63   H     H_    0.877647 0.557250 0.930191 0.224619
C90   C     C_3   0.785749 0.454904 0.282454 -0.805870
H64   H     H_    0.750286 0.479997 0.194762 0.257498
H65   H     H_    0.835996 0.465281 0.274673 0.214793
H66   H     H_    0.773030 0.409878 0.252265 0.238413
C91   C     C_3   0.324653 0.055882 0.864457 -0.740794
H67   H     H_    0.318753 0.031965 0.755344 0.239473
H68   H     H_    0.306156 0.099333 0.837091 0.225101
H69   H     H_    0.377651 0.057250 0.930207 0.224629
C92   C     C_3   0.285748 0.954903 0.282455 -0.805890
H70   H     H_    0.250285 0.979995 0.194760 0.257499
H71   H     H_    0.335994 0.965279 0.274674 0.214793
H72   H     H_    0.273028 0.909876 0.252271 0.238413
N9    N     N_R   0.680246 0.543582 0.751360 0.261467
O65   O     O_R   0.696739 0.577420 0.652105 -0.320342
O66   O     O_R   0.631484 0.507683 0.702431 -0.312892
N10   N     N_R   0.657117 0.477534 0.379464 0.286775
O67   O     O_R   0.657941 0.510463 0.262621 -0.327117
O68   O     O_R   0.600463 0.467292 0.406478 -0.273384
N11   N     N_R   0.180250 0.043585 0.751362 0.261464
O69   O     O_R   0.196747 0.077423 0.652109 -0.320350
O70   O     O_R   0.131487 0.007689 0.702429 -0.312897
N12   N     N_R   0.157116 0.977537 0.379463 0.286772
O71   O     O_R   0.157940 0.010465 0.262618 -0.327118
O72   O     O_R   0.100461 0.967295 0.406476 -0.273390
N13   N     N_R   0.704662 0.606299 0.971708 0.267982
O73   O     O_R   0.665941 0.614013 0.059829 -0.295498
O74   O     O_R   0.724989 0.651131 0.910519 -0.324165
N14   N     N_R   0.707899 0.388029 0.474372 0.268435
O75   O     O_R   0.660964 0.366698 0.525227 -0.308589
O76   O     O_R   0.747255 0.352763 0.434042 -0.390333
N15   N     N_R   0.204665 0.106302 0.971711 0.267982
O77   O     O_R   0.165943 0.114016 0.059831 -0.295497
O78   O     O_R   0.224988 0.151135 0.910517 -0.324147
N16   N     N_R   0.207896 0.888032 0.474374 0.268430
O79   O     O_R   0.160961 0.866701 0.525232 -0.308603
O80   O     O_R   0.247259 0.852764 0.434066 -0.390327
N17   N     N_R   0.996884 0.222553 0.490334 0.185540
O81   O     O_R   0.947142 0.216418 0.367976 -0.492533
O82   O     O_R   0.056403 0.228561 0.476967 -0.474500
N18   N     N_R   0.998553 0.774957 0.970790 0.174119
O83   O     O_R   0.058063 0.770731 0.957067 -0.509342
O84   O     O_R   0.949802 0.788130 0.851414 -0.484135
N19   N     N_R   0.496882 0.722552 0.490330 0.185540
O85   O     O_R   0.447140 0.716419 0.367972 -0.492531
O86   O     O_R   0.556402 0.728559 0.476961 -0.474505
N20   N     N_R   0.498549 0.274952 0.970789 0.174095
O87   O     O_R   0.558057 0.270706 0.957072 -0.509373
O88   O     O_R   0.449814 0.288172 0.851430 -0.484096
N21   N     N_R   0.035162 0.114935 0.702972 0.291437
O89   O     O_R   0.044149 0.073782 0.805374 -0.281075
O90   O     O_R   0.070390 0.115624 0.605227 -0.271657
N22   N     N_R   0.029352 0.887535 0.086592 0.281044
O91   O     O_R   0.007664 0.932234 0.999491 -0.286354
O92   O     O_R   0.093022 0.882097 0.140088 -0.308321
N23   N     N_R   0.535161 0.614933 0.702964 0.291443
O93   O     O_R   0.544154 0.573785 0.805382 -0.281081
O94   O     O_R   0.570383 0.615616 0.605208 -0.271660
N24   N     N_R   0.529356 0.387530 0.086595 0.281043
O95   O     O_R   0.507666 0.432224 0.999473 -0.286331
O96   O     O_R   0.593025 0.382098 0.140102 -0.308334
C93   C     C_3   0.066690 0.137225 0.256538 -0.422699
H73   H     H_    0.037663 0.133326 0.340750 0.268696
H74   H     H_    0.086042 0.094136 0.243171 0.294563
H75   H     H_    0.107495 0.168368 0.299449 0.242264
C94   C     C_3   0.080293 0.864984 0.744745 -0.566939
H76   H     H_    0.059911 0.863592 0.844347 0.290693
H77   H     H_    0.124193 0.837302 0.768033 0.232860
H78   H     H_    0.095834 0.909733 0.731797 0.281490
C95   C     C_3   0.566690 0.637224 0.256529 -0.422684
H79   H     H_    0.537663 0.633326 0.340741 0.268699
H80   H     H_    0.586041 0.594134 0.243161 0.294565
H81   H     H_    0.607495 0.668367 0.299438 0.242257
C96   C     C_3   0.580295 0.364979 0.744763 -0.566996
H82   H     H_    0.559918 0.363568 0.844372 0.290698
H83   H     H_    0.624200 0.337305 0.768022 0.232867
H84   H     H_    0.595824 0.409733 0.731845 0.281504
N25   N     N_R   0.783894 0.312489 0.866238 0.241140
O97   O     O_R   0.797840 0.266817 0.798564 -0.338970
O98   O     O_R   0.751139 0.354177 0.784173 -0.336419
N26   N     N_R   0.752374 0.665766 0.381424 0.227171
O99   O     O_R   0.711187 0.623317 0.370595 -0.292112
O100  O     O_R   0.767279 0.683747 0.258015 -0.320759
N27   N     N_R   0.283899 0.812485 0.866241 0.241143
O101  O     O_R   0.297845 0.766809 0.798582 -0.338980
O102  O     O_R   0.251145 0.854169 0.784162 -0.336400
N28   N     N_R   0.252375 0.165769 0.381426 0.227170
O103  O     O_R   0.211187 0.123319 0.370598 -0.292110
O104  O     O_R   0.267281 0.183749 0.258017 -0.320762
C97   C     C_3   0.256354 0.660161 0.309763 -0.814761
H85   H     H_    0.308041 0.666734 0.306357 0.275197
H86   H     H_    0.242858 0.683593 0.403741 0.261477
H87   H     H_    0.254408 0.614768 0.340933 0.254570
C98   C     C_3   0.252340 0.337159 0.815703 -0.811618
H88   H     H_    0.240923 0.310060 0.907205 0.264673
H89   H     H_    0.304102 0.334556 0.810867 0.261514
H90   H     H_    0.248212 0.381359 0.852962 0.258211
C99   C     C_3   0.756355 0.160160 0.309759 -0.814772
H91   H     H_    0.808041 0.166732 0.306351 0.275199
H92   H     H_    0.742860 0.183593 0.403739 0.261477
H93   H     H_    0.754408 0.114767 0.340930 0.254570
C100  C     C_3   0.752341 0.837159 0.815695 -0.811635
H94   H     H_    0.740922 0.810064 0.907203 0.264673
H95   H     H_    0.804102 0.834548 0.810856 0.261518
H96   H     H_    0.748218 0.881361 0.852944 0.258213
C101  C     C_3   0.044303 0.627407 0.886832 -0.785966
H97   H     H_    0.026376 0.604650 0.970250 0.274201
H98   H     H_    0.011818 0.664764 0.847475 0.228976
H99   H     H_    0.039243 0.595897 0.793985 0.237877
C102  C     C_3   0.041230 0.373375 0.384580 -0.779912
H100  H     H_    0.022612 0.397745 0.463517 0.273348
H101  H     H_    0.042134 0.405028 0.293905 0.237976
H102  H     H_    0.005458 0.338533 0.337405 0.222814
C103  C     C_3   0.544304 0.127404 0.886826 -0.785966
H103  H     H_    0.526375 0.104651 0.970247 0.274199
H104  H     H_    0.511819 0.164760 0.847456 0.228972
H105  H     H_    0.539246 0.095893 0.793984 0.237885
C104  C     C_3   0.541229 0.873375 0.384578 -0.779908
H106  H     H_    0.522612 0.897745 0.463516 0.273347
H107  H     H_    0.542132 0.905028 0.293902 0.237978
H108  H     H_    0.505457 0.838533 0.337405 0.222813
C105  C     C_3   0.920981 0.122766 0.554664 -0.836380
H109  H     H_    0.875096 0.147805 0.537494 0.248998
H110  H     H_    0.933864 0.117024 0.444400 0.321247
H111  H     H_    0.913482 0.079397 0.597439 0.250180
C106  C     C_3   0.912199 0.870138 0.067736 -0.883000
H112  H     H_    0.874859 0.841014 0.093834 0.253079
H113  H     H_    0.906806 0.913576 0.111735 0.262238
H114  H     H_    0.902309 0.873356 0.940465 0.324078
C107  C     C_3   0.420978 0.622765 0.554661 -0.836403
H115  H     H_    0.375093 0.647802 0.537502 0.249001
H116  H     H_    0.433858 0.617027 0.444391 0.321253
H117  H     H_    0.413483 0.579395 0.597430 0.250183
C108  C     C_3   0.412204 0.370140 0.067776 -0.882974
H118  H     H_    0.374866 0.341015 0.093873 0.253071
H119  H     H_    0.406817 0.413576 0.111794 0.262240
H120  H     H_    0.402306 0.373367 0.940505 0.324071
C109  C     C_3   0.946553 0.244541 0.995448 -0.664817
H121  H     H_    0.913355 0.253588 0.068785 0.219308
H122  H     H_    0.951500 0.284316 0.931581 0.286106
H123  H     H_    0.920667 0.212234 0.910547 0.251313
C110  C     C_3   0.947349 0.764452 0.481317 -0.734667
H124  H     H_    0.909496 0.765412 0.546241 0.243665
H125  H     H_    0.931508 0.795727 0.385364 0.246395
H126  H     H_    0.947235 0.720636 0.433488 0.283452
C111  C     C_3   0.446552 0.744540 0.995444 -0.664794
H127  H     H_    0.413354 0.753587 0.068782 0.219312
H128  H     H_    0.451499 0.784316 0.931579 0.286104
H129  H     H_    0.420666 0.712233 0.910543 0.251313
C112  C     C_3   0.447346 0.264456 0.481319 -0.734692
H130  H     H_    0.409494 0.265419 0.546244 0.243653
H131  H     H_    0.431508 0.295731 0.385366 0.246411
H132  H     H_    0.447230 0.220638 0.433492 0.283453
N29   N     N_R   0.959811 0.125460 0.073237 0.249737
O105  O     O_R   0.953295 0.079245 0.990113 -0.370123
O106  O     O_R   0.920554 0.133277 0.160062 -0.310760
N30   N     N_R   0.968472 0.880328 0.577850 0.271247
O107  O     O_R   0.949308 0.913181 0.456504 -0.410350
O108  O     O_R   0.939698 0.884360 0.687981 -0.272799
N31   N     N_R   0.459811 0.625458 0.073230 0.249729
O109  O     O_R   0.453298 0.579240 0.990119 -0.370121
O110  O     O_R   0.420553 0.633277 0.160055 -0.310762
N32   N     N_R   0.468474 0.380332 0.577858 0.271266
O111  O     O_R   0.449306 0.413173 0.456491 -0.410372
O112  O     O_R   0.439716 0.384388 0.688009 -0.272736
C113  C     C_3   0.164597 0.443795 0.310192 -0.845971
H133  H     H_    0.126244 0.461122 0.359737 0.241663
H134  H     H_    0.143735 0.436750 0.183800 0.285736
H135  H     H_    0.183933 0.403281 0.363163 0.171341
C114  C     C_3   0.165611 0.560657 0.765948 -0.817113
H136  H     H_    0.123556 0.547868 0.809214 0.226818
H137  H     H_    0.183944 0.603472 0.803960 0.192282
H138  H     H_    0.150042 0.560707 0.637878 0.295504
C115  C     C_3   0.664598 0.943791 0.310171 -0.845962
H139  H     H_    0.626244 0.961115 0.359722 0.241649
H140  H     H_    0.643736 0.936751 0.183777 0.285746
H141  H     H_    0.683933 0.903276 0.363131 0.171354
C116  C     C_3   0.665609 0.060654 0.765979 -0.817144
H142  H     H_    0.623569 0.047865 0.809302 0.226798
H143  H     H_    0.683946 0.103470 0.803967 0.192283
H144  H     H_    0.650017 0.060701 0.637908 0.295513

loop_
_geom_bond_atom_site_label_1
_geom_bond_atom_site_label_2
_geom_bond_distance
_ccdc_geom_bond_type
C23   H19   1.103550 S    
C41   C45   1.426728 A    
C103  H103  1.063739 S    
C33   C101  1.478998 S    
C50   C54   1.464798 A    
N4    O56   1.295389 A    
O22   P13   1.769914 S    
P9    O41   1.741391 S    
C44   C48   1.419234 A    
C3    C31   1.572177 S    
C18   N6    1.469197 S    
C98   H88   1.109018 S    
P11   O43   1.741389 S    
C97   H85   1.106236 S    
P12   O44   1.749242 S    
C43   C47   1.426729 A    
P15   C64   1.877880 S    
C79   H35   1.076478 S    
N18   O83   1.296599 A    
N31   O110  1.297555 A    
C32   N20   1.438975 S    
N29   O106  1.297548 A    
C1    H1    1.098429 S    
C24   H20   1.111998 S    
C85   H51   1.095772 S    
O11   P16   1.738025 S    
C62   C78   1.398914 A    
P14   C61   1.872935 S    
P8    O28   1.641577 D    
C81   H38   1.102452 S    
C57   C61   1.400181 A    
C108  H120  1.104879 S    
C65   C77   1.395660 A    
P4    Ba4   3.607273 S    
C4    N24   1.484053 S    
C2    C30   1.580091 S    
N14   O75   1.292324 A    
O2    Ba2   2.951133 S    
P2    O18   1.756266 S    
N19   O86   1.297622 A    
C18   C86   1.542226 S    
C59   C63   1.400180 A    
P4    O8    1.617567 S    
C27   N15   1.463536 S    
C49   C53   1.456506 A    
C106  H114  1.104885 S    
C21   C25   1.555034 S    
C83   H44   1.102449 S    
C114  H137  1.087349 S    
C90   H64   1.091900 S    
C38   C42   1.400130 A    
P9    O29   1.767519 S    
C102  H101  1.097895 S    
N5    O58   1.302621 A    
C104  H108  1.105138 S    
O12   Ba4   2.915373 S    
N28   O103  1.295181 A    
N3    O53   1.300691 A    
C72   C76   1.479424 A    
O39   C16   1.393638 S    
C22   C90   1.512748 S    
C107  H117  1.102734 S    
O42   C6    1.407268 S    
P5    O46   1.624296 S    
N5    O57   1.294770 A    
P16   C63   1.872941 S    
C96   H84   1.103681 S    
C86   H52   1.107968 S    
O17   C21   1.395105 S    
C30   N2    1.478860 S    
C51   C99   1.503169 S    
C68   C80   1.387205 A    
C52   C100  1.504815 S    
C9    N29   1.455103 S    
C100  H96   1.094384 S    
C28   N12   1.476004 S    
C67   C79   1.395662 A    
O13   P14   1.534380 D    
C37   C41   1.400619 A    
N10   O68   1.301061 A    
N22   O91   1.303549 A    
C7    C111  1.540401 S    
O15   P16   1.534380 D    
C103  H105  1.095337 S    
N13   O74   1.299313 A    
C109  H121  1.106498 S    
N32   O112  1.298433 A    
P5    O25   1.635586 D    
P1    O1    1.641720 D    
C98   H90   1.094379 S    
P7    O27   1.635586 D    
C97   H87   1.093827 S    
C70   N26   1.414569 S    
N11   O70   1.298196 A    
O28   Ba4   2.940589 S    
P8    C55   1.949206 S    
O20   C24   1.396463 S    
O30   Ba2   2.928312 S    
C16   H16   1.106864 S    
C15   C19   1.572298 S    
C112  H130  1.110120 S    
C22   C26   1.562758 S    
C6    C110  1.537065 S    
C105  H109  1.104681 S    
C6    H6    1.075317 S    
C59   C75   1.421287 A    
Ba1   O46   3.157135 S    
C35   C39   1.398429 A    
C34   C102  1.493108 S    
P3    O7    1.613467 S    
C33   C37   1.398425 A    
C35   C103  1.479004 S    
C101  H99   1.095329 S    
P1    Ba1   3.598386 S    
N25   O97   1.301754 A    
C90   H66   1.095815 S    
C32   N4    1.478872 S    
C9    H9    1.106900 S    
Ba4   O48   2.916801 S    
P3    Ba3   3.598386 S    
O29   Ba1   2.915340 S    
C113  H133  1.103482 S    
O21   C29   1.432888 S    
N8    O63   1.294906 A    
C69   C73   1.470818 A    
O31   Ba3   2.915340 S    
C110  H125  1.103817 S    
C101  H97   1.063734 S    
O18   C22   1.396465 S    
C23   C91   1.500650 S    
O25   Ba1   2.954149 S    
O9    P14   1.738021 S    
C95   H79   1.098520 S    
C91   H67   1.105383 S    
C4    H4    1.093392 S    
N6    O60   1.302561 A    
C86   H54   1.094766 S    
O44   C8    1.407272 S    
C92   H70   1.091902 S    
N1    O50   1.293746 A    
N7    O62   1.302622 A    
C6    C10   1.554868 S    
N2    O52   1.295396 A    
C89   H61   1.105384 S    
C34   C54   1.419623 A    
C47   C73   1.600008 S    
C10   N30   1.458490 S    
C50   C98   1.504823 S    
C47   C51   1.479087 A    
C93   H74   1.104142 S    
C111  H129  1.101296 S    
O8    Ba3   2.917731 S    
C87   H55   1.103792 S    
P10   O42   1.749239 S    
P12   O32   1.777061 S    
C70   C74   1.479423 A    
C88   H58   1.107959 S    
C78   H34   1.067489 S    
P3    C67   1.939604 S    
C82   H41   1.110860 S    
C29   N17   1.447784 S    
C115  H140  1.109656 S    
Ba2   O45   3.162152 S    
C94   H77   1.100918 S    
C112  H132  1.107901 S    
N24   O96   1.299081 A    
C24   C28   1.562756 S    
C2    H2    1.093395 S    
C60   C64   1.399067 A    
P2    Ba2   3.607273 S    
C57   C73   1.421288 A    
C105  H111  1.102733 S    
C1    N21   1.461181 S    
N27   O102  1.295100 A    
C66   C78   1.387203 A    
C12   C96   1.523959 S    
C64   C80   1.398918 A    
N21   O89   1.300666 A    
O41   C5    1.406757 S    
N23   O94   1.295953 A    
O26   Ba2   2.940589 S    
Ba3   O48   3.157135 S    
C40   C44   1.400127 A    
O10   P13   1.738757 S    
P9    O33   1.543482 D    
C84   H46   1.107174 S    
P5    Ba1   3.609319 S    
C113  H135  1.082719 S    
N8    O64   1.302562 A    
P7    Ba3   3.609319 S    
C11   C95   1.513149 S    
N12   O72   1.301064 A    
P10   O30   1.777063 S    
P11   O35   1.543484 D    
C93   H73   1.098522 S    
C116  H144  1.104321 S    
C7    C11   1.549982 S    
N20   O88   1.298364 A    
C109  H122  1.104587 S    
C25   H21   1.112780 S    
C3    C107  1.516609 S    
C91   H69   1.108364 S    
C27   H23   1.112778 S    
C12   H12   1.098178 S    
N30   O107  1.297347 A    
C92   H72   1.095818 S    
O24   C32   1.433581 S    
N17   O82   1.297623 A    
C17   C81   1.550844 S    
C19   C87   1.537554 S    
C89   H63   1.108368 S    
N18   O84   1.298383 A    
C15   C115  1.499634 S    
C10   C94   1.523961 S    
C33   C53   1.411326 A    
N29   O105  1.296700 A    
N10   O67   1.298512 A    
C72   N28   1.414568 S    
C85   H50   1.095386 S    
P10   C37   1.898394 S    
N16   O80   1.292214 A    
C81   H37   1.107560 S    
C87   H57   1.095789 S    
P5    O37   1.756295 S    
C108  H119  1.104901 S    
N14   O76   1.292178 A    
C88   H60   1.094760 S    
C14   C114  1.504560 S    
N16   O79   1.292326 A    
C83   H45   1.109918 S    
C16   C20   1.567548 S    
C30   N18   1.438961 S    
O5    Ba2   2.919605 S    
C13   H13   1.104626 S    
C106  H113  1.104904 S    
C5    C109  1.540403 S    
O7    Ba4   2.919605 S    
C15   H15   1.104626 S    
C114  H136  1.099048 S    
N26   O99   1.295182 A    
N15   O77   1.297237 A    
O21   P14   1.772290 S    
C102  H100  1.067056 S    
C2    N22   1.484056 S    
N11   O69   1.300716 A    
O23   P16   1.772289 S    
P1    O17   1.754974 S    
C104  H107  1.097894 S    
C116  H142  1.099051 S    
N28   O104  1.297928 A    
P8    O40   1.758326 S    
C68   C72   1.452265 A    
P3    O3    1.641720 D    
C107  H116  1.105127 S    
O11   Ba3   2.928287 S    
P9    C38   1.880628 S    
P4    O20   1.756265 S    
O40   C15   1.393770 S    
C94   H78   1.103691 S    
P8    O47   1.620141 S    
C34   C38   1.402007 A    
C84   H48   1.102857 S    
N20   O87   1.296599 A    
C96   H83   1.100915 S    
C98   H89   1.104419 S    
P6    O38   1.758321 S    
N31   O109  1.296718 A    
C1    C29   1.572173 S    
P7    C56   1.958825 S    
P5    C54   1.958819 S    
C100  H95   1.104418 S    
P4    O4    1.635727 D    
C13   C17   1.572297 S    
N22   O92   1.299091 A    
N4    O55   1.295585 A    
C9    C93   1.513153 S    
C103  H104  1.103724 S    
N13   O73   1.297236 A    
C25   N13   1.463534 S    
P8    Ba4   3.600162 S    
C19   C83   1.550849 S    
C97   H86   1.108884 S    
C48   C74   1.609431 S    
C59   H27   1.061187 S    
P1    O5    1.613467 S    
C46   C50   1.486541 A    
O38   C13   1.393770 S    
C89   H62   1.087578 S    
N7    O61   1.294769 A    
P6    O45   1.620141 S    
C36   C56   1.419622 A    
O6    Ba1   2.917731 S    
C94   H76   1.093590 S    
C28   H24   1.107923 S    
O9    Ba1   2.928287 S    
C81   H39   1.109914 S    
N23   O93   1.300663 A    
N3    O54   1.293747 A    
P12   O36   1.545120 D    
N19   O85   1.298003 A    
P2    C66   1.952435 S    
P7    O39   1.756297 S    
Ba1   O45   2.918646 S    
C42   H30   1.059494 S    
O14   P13   1.539447 D    
C77   H33   1.076476 S    
C31   N19   1.447784 S    
C1    C105  1.516611 S    
C114  H138  1.104308 S    
C90   H65   1.103877 S    
C49   C97   1.503171 S    
C8    C12   1.554871 S    
C60   C76   1.418492 A    
C31   N3    1.479142 S    
C24   C92   1.512755 S    
C65   C69   1.449239 A    
C45   C75   1.600005 S    
C102  H102  1.105138 S    
C17   N5    1.477055 S    
C110  H124  1.110117 S    
C45   C49   1.479086 A    
C25   N9    1.461469 S    
C48   C52   1.486539 A    
C17   C85   1.537552 S    
C23   C27   1.555035 S    
C14   C18   1.567554 S    
N27   O101  1.301751 A    
C86   H53   1.104611 S    
C22   H18   1.111994 S    
P10   O34   1.545123 D    
C14   H14   1.106864 S    
P11   O31   1.767513 S    
N1    O49   1.300690 A    
C41   H29   1.059386 S    
C5    H5    1.086798 S    
C20   N8    1.469199 S    
C7    H7    1.086797 S    
C95   H80   1.104142 S    
C21   C89   1.500654 S    
P7    O48   1.624296 S    
C10   H10   1.098181 S    
C61   C77   1.392708 A    
P13   C62   1.877877 S    
C111  H128  1.104588 S    
N32   O111  1.297344 A    
O22   C30   1.433591 S    
O10   Ba2   2.915373 S    
O16   P15   1.539445 D    
C58   C74   1.418491 A    
O19   C23   1.395109 S    
C26   N14   1.460848 S    
Ba1   Ba2   4.904774 S    
C82   H40   1.107173 S    
C4    C32   1.580106 S    
P3    O19   1.754976 S    
Ba3   Ba4   4.904774 S    
O4    Ba4   2.951133 S    
C12   N32   1.458502 S    
C52   C56   1.464802 A    
C115  H139  1.103482 S    
Ba2   O46   2.916801 S    
P4    C68   1.952448 S    
C83   H43   1.107559 S    
P12   C39   1.898390 S    
C51   C55   1.456508 A    
C112  H131  1.103824 S    
C46   C76   1.609431 S    
P11   C40   1.880623 S    
N15   O78   1.299315 A    
N9    O65   1.300715 A    
C39   C43   1.400618 A    
C105  H110  1.105128 S    
C5    C9    1.549981 S    
C36   C104  1.493109 S    
C99   H92   1.108882 S    
C4    C108  1.531713 S    
Ba3   O47   2.918646 S    
N25   O98   1.295110 A    
Ba4   O47   3.162152 S    
C113  H134  1.109656 S    
C57   H25   1.061183 S    
C8    H8    1.075324 S    
C110  H126  1.107892 S    
C69   N25   1.416742 S    
C116  H143  1.087346 S    
C26   N10   1.476003 S    
C20   C84   1.554216 S    
P2    O2    1.635727 D    
C28   N16   1.460848 S    
C36   C40   1.402007 A    
O43   C7    1.406756 S    
C20   C88   1.542226 S    
C91   H68   1.087577 S    
P6    O26   1.641577 D    
N6    O59   1.294905 A    
N30   O108  1.298451 A    
O12   P15   1.738754 S    
C92   H71   1.103878 S    
O23   C31   1.432882 S    
C95   H81   1.105220 S    
N17   O81   1.298002 A    
N2    O51   1.295588 A    
N9    O66   1.298197 A    
C2    C106  1.531705 S    
C71   C75   1.470817 A    
P6    C53   1.949206 S    
C109  H123  1.101294 S    
C80   H36   1.067491 S    
C93   H75   1.105220 S    
P6    Ba2   3.600162 S    
C85   H49   1.103789 S    
C71   N27   1.416736 S    
C87   H56   1.095385 S    
C108  H118  1.106115 S    
C3    N23   1.461181 S    
N26   O100  1.297928 A    
C58   H26   1.059195 S    
C88   H59   1.104602 S    
C82   H42   1.102859 S    
C67   C71   1.449236 A    
C11   H11   1.106895 S    
P2    O6    1.617567 S    
C115  H141  1.082727 S    
C13   C113  1.499629 S    
C106  H112  1.106117 S    
C26   H22   1.107922 S    
C99   H93   1.093825 S    
N24   O95   1.303562 A    
O27   Ba3   2.954149 S    
C16   C116  1.504567 S    
O37   C14   1.393642 S    
O24   P15   1.769910 S    
C42   C46   1.419236 A    
O1    Ba1   2.937763 S    
O3    Ba3   2.937763 S    
C104  H106  1.067057 S    
C44   H32   1.059492 S    
C18   C82   1.554222 S    
P1    C65   1.939600 S    
C43   H31   1.059383 S    
N21   O90   1.295960 A    
C107  H115  1.104683 S    
C8    C112  1.537065 S    
C111  H127  1.106499 S    
C84   H47   1.110859 S    
O32   Ba4   2.928312 S    
C3    H3    1.098432 S    
C19   N7    1.477052 S    
C96   H82   1.093576 S    
N12   O71   1.298519 A    
C66   C70   1.452264 A    
C29   N1    1.479144 S    
C60   H28   1.059187 S    
C63   C79   1.392710 A    
C101  H98   1.103731 S    
C58   C62   1.399078 A    
C99   H91   1.106235 S    
C27   N11   1.461467 S    
C11   N31   1.455103 S    
C100  H94   1.109018 S    
C21   H17   1.103555 S    
C35   C55   1.411327 A    
