data_mof_unit_64954.cif
_audit_creation_date              2012-12-10T18:55:54-0500
_audit_creation_method            fapswitch 2.2
_symmetry_space_group_name_H-M    P1
_symmetry_Int_Tables_number       1
_space_group_crystal_system       triclinic
_cell_length_a                    17.064966
_cell_length_b                    18.12419
_cell_length_c                    19.427547
_cell_angle_alpha                 89.859701
_cell_angle_beta                  89.306679
_cell_angle_gamma                 94.0077
_cell_volume                      5993.55563247

loop_
_atom_site_label
_atom_site_type_symbol
_atom_type_description
_atom_site_fract_x
_atom_site_fract_y
_atom_site_fract_z
_atom_type_partial_charge
C1    C     C_R   0.499857 0.500106 0.367415 0.917902
C2    C     C_R   0.466736 0.557050 0.254403 -0.046491
C3    C     C_R   0.499008 0.499563 0.708373 -0.281547
C4    C     C_R   0.500005 0.500141 0.291579 -0.279375
C5    C     C_R   0.557202 0.541814 0.963148 0.543883
C6    C     C_R   0.442996 0.454198 0.036749 0.518181
C7    C     C_R   0.557498 0.541932 0.034888 0.548994
C8    C     C_R   0.442709 0.454073 0.965016 0.523312
C9    C     C_R   0.500588 0.497898 0.071761 -0.308358
C10   C     C_R   0.499995 0.497666 0.928142 -0.307974
C11   C     C_R   0.551238 0.725180 0.458776 0.736799
C12   C     C_R   0.499461 0.499879 0.632571 0.920052
C13   C     C_R   0.451900 0.274866 0.543899 0.742598
C14   C     C_R   0.552085 0.802730 0.458842 0.507189
C15   C     C_R   0.451866 0.197366 0.544296 0.552715
C16   C     C_R   0.651264 0.509197 0.498134 0.955191
C17   C     C_R   0.348740 0.490803 0.501877 0.939286
C18   C     C_R   0.499501 0.838679 0.501387 -0.037496
C19   C     C_R   0.501572 0.161377 0.499072 -0.105269
C20   C     C_R   0.446707 0.794641 0.543310 -0.005110
C21   C     C_R   0.550412 0.205588 0.453477 -0.004542
C22   C     C_R   0.448383 0.716968 0.541741 -0.072012
C23   C     C_R   0.534068 0.441167 0.815636 0.044590
C24   C     C_R   0.548455 0.283024 0.455310 0.061275
C25   C     C_R   0.432345 0.956923 0.483698 -0.293344
C26   C     C_R   0.568306 0.043116 0.518214 -0.341516
C27   C     C_R   0.432693 0.034517 0.482607 0.722840
C28   C     C_R   0.568147 0.965556 0.518844 0.729699
C29   C     C_R   0.500981 0.078602 0.499490 -0.049700
C30   C     C_R   0.500031 0.921451 0.501488 -0.013467
C31   C     C_R   0.737560 0.514480 0.494354 -0.404725
C32   C     C_R   0.262453 0.485503 0.505676 -0.400169
C33   C     C_R   0.777412 0.455225 0.467670 0.497480
C34   C     C_R   0.534366 0.441280 0.183847 0.047505
C35   C     C_R   0.222594 0.544591 0.532684 0.477000
C36   C     C_R   0.859556 0.459327 0.464651 -0.031638
C37   C     C_R   0.140450 0.540461 0.535714 -0.026266
C38   C     C_R   0.902508 0.522890 0.489846 0.101600
C39   C     C_R   0.097518 0.477030 0.510248 0.101725
C40   C     C_R   0.862681 0.582851 0.513595 0.537649
C41   C     C_R   0.137351 0.417212 0.486181 0.537582
C42   C     C_R   0.780888 0.578833 0.516278 0.488432
C43   C     C_R   0.219141 0.421269 0.483458 0.483450
C44   C     C_R   0.533424 0.442416 0.743832 0.632442
C45   C     C_R   0.499829 0.497496 0.852790 -0.006949
C46   C     C_R   0.533711 0.442567 0.255656 0.620829
C47   C     C_R   0.500937 0.498042 0.147119 -0.007070
C48   C     C_R   0.465408 0.554440 0.817984 0.681299
C49   C     C_R   0.467641 0.555638 0.182357 0.681489
C50   C     C_R   0.464513 0.555800 0.745954 -0.047963
Cu1   Cu    Cu3+1 0.500020 0.573360 0.500000 1.086106
Cu2   Cu    Cu3+1 0.499980 0.426640 0.500000 1.124811
F1    F     F_    0.263030 0.605734 0.557849 -0.650174
F2    F     F_    0.634157 0.933543 0.537836 -0.568127
F3    F     F_    0.903732 0.644745 0.536264 -0.540795
F4    F     F_    0.096308 0.355438 0.463237 -0.540206
F5    F     F_    0.744389 0.637209 0.542008 -0.537422
F6    F     F_    0.255657 0.363061 0.457405 -0.540684
F7    F     F_    0.568264 0.388456 0.708828 -0.585575
F8    F     F_    0.567780 0.388134 0.290152 -0.597951
F9    F     F_    0.432012 0.608419 0.854160 -0.593822
F10   F     F_    0.435205 0.610151 0.146601 -0.591846
F11   F     F_    0.612721 0.584256 0.927688 -0.548209
F12   F     F_    0.736964 0.393918 0.442830 -0.617902
F13   F     F_    0.387199 0.412071 0.072196 -0.556345
F14   F     F_    0.613300 0.584487 0.068527 -0.545580
F15   F     F_    0.386681 0.411785 0.931381 -0.553127
F16   F     F_    0.601739 0.691563 0.416835 -0.567658
F17   F     F_    0.403579 0.308483 0.587872 -0.559535
F18   F     F_    0.603030 0.842445 0.416495 -0.554457
F19   F     F_    0.404099 0.157666 0.589268 -0.544877
F20   F     F_    0.366559 0.066603 0.464079 -0.572473
H1    H     H_    0.408410 0.683229 0.574347 0.229446
H2    H     H_    0.120059 0.606364 0.616887 0.275768
H3    H     H_    0.882842 0.351533 0.461767 0.289976
H4    H     H_    0.879921 0.392992 0.383783 0.281685
H5    H     H_    0.615188 0.406331 0.881139 0.240218
H6    H     H_    0.528876 0.354056 0.881340 0.263211
H7    H     H_    0.527991 0.353992 0.118838 0.261316
H8    H     H_    0.614848 0.405402 0.116722 0.241192
H9    H     H_    0.368166 0.611487 0.727698 0.277979
H10   H     H_    0.454084 0.664176 0.725783 0.273394
H11   H     H_    0.458658 0.665732 0.274197 0.290231
H12   H     H_    0.585695 0.316768 0.420428 0.258191
H13   H     H_    0.371728 0.614659 0.274195 0.267674
H14   H     H_    0.379292 0.924344 0.469808 0.217164
H15   H     H_    0.620999 0.075601 0.533142 0.215610
H16   H     H_    0.335948 0.808172 0.575728 0.260765
H17   H     H_    0.403507 0.811343 0.638678 0.258840
H18   H     H_    0.566035 0.135501 0.374344 0.266395
H19   H     H_    0.642569 0.145555 0.429247 0.255833
H20   H     H_    0.117126 0.648226 0.539095 0.285327
N1    N     N_2   0.985597 0.529054 0.491022 -0.083823
N2    N     N_3   0.570278 0.382350 0.149173 -0.454770
N3    N     N_3   0.426810 0.613256 0.711177 -0.516343
N4    N     N_3   0.430259 0.615302 0.289622 -0.502603
N5    N     N_2   0.014436 0.470863 0.509103 -0.082311
N6    N     N_R   0.500010 0.683620 0.500020 -0.282414
N7    N     N_R   0.499990 0.316380 0.499980 -0.310540
N8    N     N_3   0.392812 0.828391 0.588409 -0.512749
N9    N     N_3   0.600225 0.173640 0.403524 -0.483974
N10   N     N_3   0.100748 0.599600 0.566273 -0.434955
N11   N     N_3   0.899231 0.400015 0.434371 -0.431473
N12   N     N_3   0.570796 0.382751 0.849851 -0.452631
O1    O     O_R   0.500030 0.561980 0.400180 -0.537138
O2    O     O_R   0.499970 0.438020 0.599820 -0.509101
O3    O     O_R   0.500000 0.438070 0.400190 -0.556400
O4    O     O_R   0.500000 0.561930 0.599810 -0.572792
O5    O     O_R   0.613940 0.568730 0.499360 -0.499749
O6    O     O_R   0.386060 0.431270 0.500640 -0.504620
O7    O     O_R   0.613910 0.444830 0.499370 -0.549960
O8    O     O_R   0.386090 0.555170 0.500630 -0.558027

loop_
_geom_bond_atom_site_label_1
_geom_bond_atom_site_label_2
_ccdc_geom_bond_type
C38   C40   A    
Cu1   O8    S    
C22   N6    A    
C31   C42   A    
C35   F1    S    
C24   N7    A    
C14   F18   S    
C14   C18   A    
C17   O6    A    
C6    C9    A    
C39   C41   A    
C4    C46   A    
C8    F15   S    
C16   C31   S    
C15   C19   A    
H18   N9    S    
C36   N11   S    
C23   C45   A    
C35   C37   A    
C37   N10   S    
H9    N3    S    
C11   C14   A    
C50   N3    S    
C39   N5    S    
C27   C29   A    
C44   F7    S    
C33   C36   A    
C5    F11   S    
C3    C12   S    
C43   F6    S    
C6    F13   S    
Cu2   O3    S    
C26   H15   S    
C31   C33   A    
C34   C46   A    
H20   N10   S    
H2    N10   S    
C21   N9    S    
Cu1   N6    S    
C40   C42   A    
Cu2   O2    S    
Cu1   O5    S    
H3    N11   S    
C41   C43   A    
H19   N9    S    
C42   F5    S    
C3    C50   A    
C16   O5    A    
H10   N3    S    
C3    C44   A    
H17   N8    S    
H6    N12   S    
Cu1   Cu2   S    
C32   C35   A    
H7    N2    S    
C47   C49   A    
C5    C7    A    
C28   F2    S    
Cu1   O4    S    
C6    C8    A    
Cu2   O7    S    
C2    N4    S    
C23   C44   A    
C13   N7    A    
C2    C4    A    
C41   F4    S    
C2    C49   A    
C23   N12   S    
C20   N8    S    
Cu2   O6    S    
Cu1   O1    S    
C40   F3    S    
C10   C45   S    
H16   N8    S    
C1    O3    A    
C18   C30   S    
C20   C22   A    
C9    C47   S    
C13   C15   A    
H8    N2    S    
C19   C29   S    
C17   O8    A    
N1    N5    D    
C11   N6    A    
C11   F16   S    
C12   O4    A    
C45   C48   A    
C25   C30   A    
C7    C9    A    
C49   F10   S    
C46   F8    S    
C34   N2    S    
C25   C27   A    
C15   F19   S    
Cu2   N7    S    
C26   C28   A    
C1    C4    S    
C36   C38   A    
C24   H12   S    
C5    C10   A    
C37   C39   A    
C7    F14   S    
C12   O2    A    
C48   F9    S    
C13   F17   S    
H4    N11   S    
C33   F12   S    
H11   N4    S    
C38   N1    S    
C48   C50   A    
C25   H14   S    
H13   N4    S    
C32   C43   A    
C28   C30   A    
C18   C20   A    
C26   C29   A    
C8    C10   A    
C21   C24   A    
C17   C32   S    
H5    N12   S    
C34   C47   A    
C22   H1    S    
C27   F20   S    
C16   O7    A    
C1    O1    A    
C19   C21   A    
