data_mof_unit_29612.cif
_audit_creation_date              2012-12-10T20:03:14-0500
_audit_creation_method            fapswitch 2.2
_symmetry_space_group_name_H-M    P1
_symmetry_Int_Tables_number       1
_space_group_crystal_system       triclinic
_cell_length_a                    8.614483
_cell_length_b                    19.313535
_cell_length_c                    18.450804
_cell_angle_alpha                 89.781477
_cell_angle_beta                  97.66783
_cell_angle_gamma                 89.987046
_cell_volume                      3042.30112352

loop_
_atom_site_label
_atom_site_type_symbol
_atom_type_description
_atom_site_fract_x
_atom_site_fract_y
_atom_site_fract_z
_atom_type_partial_charge
C1    C     C_R   0.500296 0.365610 0.500244 0.885939
C2    C     C_R   0.367987 0.482339 0.265434 -0.033810
C3    C     C_R   0.414387 0.548445 0.796828 -0.320756
C4    C     C_R   0.366147 0.482350 0.189426 -0.321607
C5    C     C_R   0.499902 0.498557 0.841182 0.155238
C6    C     C_R   0.501545 0.499970 0.158678 0.146744
C7    C     C_R   0.585816 0.448352 0.807725 0.489101
C8    C     C_R   0.638168 0.518322 0.205818 0.503572
C9    C     C_R   0.585442 0.451287 0.730824 -0.152853
C10   C     C_R   0.632869 0.518022 0.282516 -0.171887
C11   C     C_R   0.445554 0.440864 0.958743 0.416806
C12   C     C_R   0.499563 0.634390 0.499796 0.885294
C13   C     C_R   0.540735 0.559826 0.039954 0.422738
C14   C     C_R   0.453408 0.440017 0.035779 0.336281
C15   C     C_R   0.548140 0.558244 0.963912 0.334420
C16   C     C_R   0.201847 0.498366 0.481816 0.970927
C17   C     C_R   0.798144 0.501424 0.518225 0.970759
C18   C     C_R   0.498725 0.499892 0.077051 -0.222687
C19   C     C_R   0.498118 0.499141 0.922413 -0.222026
C20   C     C_2   0.040835 0.484637 0.475527 -0.029985
C21   C     C_2   0.959305 0.514643 0.524822 -0.013357
C22   C     C_R   0.494655 0.745482 0.432821 -0.289033
C23   C     C_R   0.376637 0.964094 0.529985 -0.228627
C24   C     C_R   0.508394 0.254830 0.567875 -0.307634
C25   C     C_R   0.489054 0.817424 0.431589 0.544938
C26   C     C_R   0.503926 0.182450 0.569294 0.558939
C27   C     C_R   0.491041 0.853388 0.497789 -0.011478
C28   C     C_R   0.497988 0.146711 0.502806 -0.002423
C29   C     C_R   0.491934 0.817538 0.563837 -0.250626
C30   C     C_R   0.491110 0.182261 0.436297 -0.265024
C31   C     C_R   0.494429 0.745884 0.564550 -0.196339
C32   C     C_R   0.490995 0.253854 0.435308 -0.191681
C33   C     C_R   0.496637 0.709568 0.499119 -0.107468
C34   C     C_R   0.612161 0.036086 0.470504 -0.215205
C35   C     C_R   0.499727 0.290415 0.501042 -0.097412
C36   C     C_3   0.980334 0.426292 0.423967 -0.909852
C37   C     C_3   0.021015 0.571385 0.578203 -0.913578
C38   C     C_3   0.667775 0.334400 0.823094 -0.273395
C39   C     C_3   0.873427 0.579507 0.213398 -0.284896
C40   C     C_3   0.229613 0.388870 0.899716 -0.270964
C41   C     C_3   0.446389 0.660044 0.079966 -0.290153
C42   C     C_3   0.542812 0.338417 0.086746 -0.215053
C43   C     C_3   0.762265 0.612339 0.932211 -0.225613
C44   C     C_3   0.331738 0.857838 0.332397 -0.328104
C45   C     C_R   0.378507 0.035786 0.531424 -0.113676
C46   C     C_3   0.411263 0.167363 0.679946 -0.348695
C47   C     C_R   0.610415 0.964394 0.469149 -0.104694
C48   C     C_R   0.496572 0.071696 0.501891 0.156945
C49   C     C_R   0.492398 0.928443 0.498707 0.136594
C50   C     C_R   0.415763 0.548192 0.721008 -0.034411
H1    H     H_    0.654750 0.415441 0.703748 0.142367
H2    H     H_    0.703925 0.063826 0.447810 0.140612
H3    H     H_    0.287694 0.063296 0.554892 0.138308
H4    H     H_    0.701345 0.936926 0.445719 0.152919
H5    H     H_    0.349895 0.586859 0.687267 0.143156
H6    H     H_    0.263177 0.468175 0.288286 0.155370
H7    H     H_    0.346209 0.587210 0.820808 0.179887
H8    H     H_    0.259108 0.468856 0.154670 0.194080
H9    H     H_    0.078254 0.396211 0.405934 0.234955
H10   H     H_    0.909190 0.389097 0.451693 0.239776
H11   H     H_    0.910150 0.447478 0.374164 0.258513
H12   H     H_    0.734850 0.531434 0.320172 0.145826
H13   H     H_    0.923938 0.601281 0.597234 0.239619
H14   H     H_    0.090374 0.548151 0.627268 0.261870
H15   H     H_    0.093225 0.609131 0.551780 0.232884
H16   H     H_    0.748419 0.327836 0.781421 0.142727
H17   H     H_    0.545478 0.320578 0.800127 0.165287
H18   H     H_    0.705208 0.297266 0.868051 0.197137
H19   H     H_    0.945091 0.555697 0.261623 0.147101
H20   H     H_    0.806301 0.624944 0.229571 0.169748
H21   H     H_    0.955894 0.598979 0.176716 0.190726
H22   H     H_    0.199338 0.435001 0.864268 0.144330
H23   H     H_    0.496361 0.718087 0.381798 0.176210
H24   H     H_    0.167510 0.390967 0.948852 0.188893
H25   H     H_    0.187002 0.342446 0.867877 0.183632
H26   H     H_    0.358478 0.632372 0.108447 0.138916
H27   H     H_    0.393689 0.675504 0.023848 0.178159
H28   H     H_    0.479278 0.708097 0.110997 0.189122
H29   H     H_    0.635823 0.364829 0.124433 0.154278
H30   H     H_    0.589669 0.321763 0.036180 0.185205
H31   H     H_    0.508427 0.291112 0.114918 0.172672
H32   H     H_    0.797409 0.565826 0.902827 0.151550
H33   H     H_    0.822015 0.612464 0.989569 0.183885
H34   H     H_    0.520945 0.283202 0.618782 0.160481
H35   H     H_    0.802889 0.658595 0.904315 0.173032
H36   H     H_    0.258301 0.886815 0.367339 0.165595
H37   H     H_    0.280344 0.805892 0.318615 0.158464
H38   H     H_    0.330139 0.887176 0.280504 0.198216
H39   H     H_    0.292827 0.176287 0.648849 0.152931
H40   H     H_    0.453461 0.214446 0.710844 0.163031
H41   H     H_    0.399108 0.125975 0.720646 0.202844
H42   H     H_    0.492779 0.845156 0.614905 0.165520
H43   H     H_    0.484499 0.154377 0.385115 0.162919
H44   H     H_    0.495569 0.719062 0.616287 0.170231
H45   H     H_    0.484451 0.280452 0.383196 0.172842
H46   H     H_    0.284659 0.936397 0.552557 0.141277
N1    N     N_R   0.500020 0.499980 0.689440 -0.104674
N2    N     N_R   0.499980 0.500020 0.310560 -0.104049
O1    O     O_R   0.500010 0.398180 0.560840 -0.629330
O2    O     O_3   0.775459 0.529468 0.175099 -0.600487
O3    O     O_3   0.392858 0.382734 0.919462 -0.566735
O4    O     O_3   0.582361 0.619782 0.078376 -0.553412
O5    O     O_3   0.409563 0.380877 0.070240 -0.583755
O6    O     O_3   0.598220 0.616354 0.929746 -0.581067
O7    O     O_3   0.488070 0.852461 0.366073 -0.620909
O8    O     O_3   0.521316 0.145365 0.634578 -0.609198
O9    O     O_R   0.499990 0.601820 0.439160 -0.620419
O10   O     O_R   0.499930 0.398180 0.439210 -0.619373
O11   O     O_R   0.500070 0.601820 0.560790 -0.629188
O12   O     O_R   0.271780 0.500000 0.546590 -0.616172
O13   O     O_R   0.728220 0.500000 0.453410 -0.628466
O14   O     O_R   0.271710 0.499990 0.424960 -0.635610
O15   O     O_R   0.728290 0.500010 0.575040 -0.618363
O16   O     O_3   0.679245 0.402062 0.852049 -0.608273
Zn1   Zn    Zn3+2 0.500050 0.500000 0.581210 0.937498
Zn2   Zn    Zn3+2 0.499950 0.500000 0.418790 0.934640

loop_
_geom_bond_atom_site_label_1
_geom_bond_atom_site_label_2
_ccdc_geom_bond_type
C42   H30   S    
C23   C45   A    
C27   C29   A    
C43   H33   S    
C14   C18   A    
C9    H1    S    
C36   H9    S    
C42   O5    S    
C26   O8    S    
C39   O2    S    
C16   O12   A    
C47   C49   A    
C46   H39   S    
C44   O7    S    
C41   O4    S    
C15   C19   A    
C11   C19   A    
C13   C18   A    
C7    O16   S    
C24   C26   A    
C30   H43   S    
C41   H27   S    
C38   O16   S    
C11   C14   A    
C23   C49   A    
C23   H46   S    
C10   N2    A    
C43   O6    S    
C40   O3    S    
C38   H16   S    
C22   C25   A    
C37   H15   S    
C31   C33   A    
O13   Zn2   S    
C15   O6    S    
N1    Zn1   S    
C44   H37   S    
C45   H3    S    
C42   H29   S    
C1    O1    A    
C10   H12   S    
C42   H31   S    
C44   H36   S    
C17   O13   A    
C12   O11   A    
C37   H13   S    
C3    C50   A    
C6    C18   S    
C24   C35   A    
C17   O15   A    
C43   H35   S    
C32   C35   A    
C4    C6    A    
C25   O7    S    
C41   H28   S    
C5    C7    A    
C1    C35   S    
C6    C8    A    
C46   H41   S    
C3    C5    A    
C17   C21   S    
C2    C4    A    
N2    Zn2   S    
C16   C20   S    
C39   H19   S    
C11   O3    S    
C38   H17   S    
C47   H4    S    
C46   H40   S    
C3    H7    S    
C38   H18   S    
C13   C15   A    
C34   C48   A    
C36   H11   S    
O14   Zn2   S    
C37   H14   S    
C16   O14   A    
C45   C48   A    
C7    C9    A    
C22   C33   A    
C28   C48   S    
C50   N1    A    
C9    N1    A    
C40   H22   S    
C26   C28   A    
C36   H10   S    
C12   O9    A    
C5    C19   S    
C25   C27   A    
C31   H44   S    
C34   H2    S    
C50   H5    S    
C40   H25   S    
O10   Zn2   S    
C28   C30   A    
C24   H34   S    
C29   C31   A    
C2    H6    S    
C41   H26   S    
C30   C32   A    
C14   O5    S    
C12   C33   S    
C46   O8    S    
O1    Zn1   S    
C39   H20   S    
C40   H24   S    
C8    O2    S    
O9    Zn2   S    
O11   Zn1   S    
C1    O10   A    
C20   C36   S    
C32   H45   S    
C21   C37   S    
C20   C21   D    
C2    N2    A    
C8    C10   A    
C4    H8    S    
C43   H32   S    
C39   H21   S    
C34   C47   A    
C22   H23   S    
C13   O4    S    
C44   H38   S    
O12   Zn1   S    
C29   H42   S    
C27   C49   S    
O15   Zn1   S    
