data_mof_unit_37725.cif
_audit_creation_date              2012-12-10T17:53:23-0500
_audit_creation_method            fapswitch 2.2
_symmetry_space_group_name_H-M    P1
_symmetry_Int_Tables_number       1
_space_group_crystal_system       triclinic
_cell_length_a                    23.410622
_cell_length_b                    10.620244
_cell_length_c                    9.929769
_cell_angle_alpha                 89.590803
_cell_angle_beta                  89.52549
_cell_angle_gamma                 91.917228
_cell_volume                      2467.26925797

loop_
_atom_site_label
_atom_site_type_symbol
_atom_type_description
_atom_site_fract_x
_atom_site_fract_y
_atom_site_fract_z
_atom_type_partial_charge
C1    C     C_R   0.501472 0.260773 0.500390 0.849462
C2    C     C_R   0.121562 0.601326 0.514601 0.540828
C3    C     C_R   0.237819 0.482346 0.627191 0.216480
C4    C     C_R   0.389400 0.498811 0.500581 0.868082
C5    C     C_R   0.297192 0.486076 0.625215 -0.241969
C6    C     C_R   0.327073 0.494718 0.502114 -0.077849
C7    C     C_R   0.296954 0.498232 0.380649 -0.211435
C8    C     C_R   0.237682 0.494765 0.382518 -0.128586
C9    C     C_R   0.208197 0.487407 0.505303 0.270228
C10   C     C_R   0.762149 0.515056 0.618618 -0.101802
C11   C     C_R   0.702902 0.516178 0.619340 -0.235620
C12   C     C_R   0.965726 0.264551 0.478014 -0.151115
C13   C     C_R   0.672831 0.499961 0.498603 -0.043577
C14   C     C_R   0.702722 0.482753 0.377314 -0.180600
C15   C     C_R   0.761988 0.481340 0.377051 -0.098139
C16   C     C_R   0.501718 0.739384 0.499517 0.886454
C17   C     C_R   0.791550 0.497450 0.497627 0.318729
C18   C     C_R   0.597255 0.137310 0.622903 -0.173919
C19   C     C_R   0.642210 0.074375 0.681546 -0.106606
C20   C     C_R   0.642447 0.943368 0.680341 -0.101930
C21   C     C_R   0.597748 0.874843 0.620409 -0.169373
C22   C     C_R   0.551457 0.937218 0.561874 0.097511
C23   C     C_R   0.025159 0.262994 0.479806 -0.148097
C24   C     C_R   0.551192 0.069182 0.563132 0.096145
C25   C     C_R   0.505290 0.128678 0.500585 -0.085479
C26   C     C_R   0.462184 0.061905 0.433598 -0.202961
C27   C     C_R   0.462454 0.933331 0.432413 -0.176840
C28   C     C_R   0.610580 0.500364 0.499495 0.854817
C29   C     C_R   0.505801 0.871964 0.498307 -0.089792
C30   C     C_R   0.424707 0.334805 0.142386 -0.144033
C31   C     C_R   0.387498 0.253902 0.073384 -0.179445
C32   C     C_R   0.387511 0.254110 0.933948 -0.168632
C33   C     C_R   0.424779 0.335134 0.862626 -0.145621
C34   C     C_R   0.057578 0.375906 0.491575 -0.016052
C35   C     C_R   0.462946 0.418679 0.929072 0.157631
C36   C     C_R   0.462941 0.418623 0.073587 0.128513
C37   C     C_R   0.535516 0.578283 0.068588 0.200346
C38   C     C_R   0.535323 0.577663 0.926086 -0.141106
C39   C     C_R   0.882621 0.607412 0.508708 0.508317
C40   C     C_R   0.878197 0.383036 0.486929 0.505130
C41   C     C_R   0.937760 0.379043 0.488032 -0.015081
C42   C     C_R   0.969926 0.492899 0.499962 -0.018732
C43   C     C_R   0.942263 0.608322 0.510257 -0.016038
C44   C     C_R   0.029893 0.491343 0.501668 -0.019020
C45   C     C_R   0.062035 0.605260 0.513352 -0.017729
C46   C     C_R   0.034089 0.719747 0.523313 -0.145576
C47   C     C_R   0.974674 0.721264 0.521827 -0.152774
C48   C     C_R   0.117237 0.376875 0.493480 0.538712
H1    H     H_    0.941834 0.175950 0.468871 0.195342
H2    H     H_    0.045557 0.173250 0.471959 0.193011
H3    H     H_    0.422182 0.328803 0.249254 0.196927
H4    H     H_    0.358504 0.190558 0.128655 0.160049
H5    H     H_    0.358511 0.190983 0.880524 0.166337
H6    H     H_    0.422465 0.329655 0.755804 0.201755
H7    H     H_    0.564072 0.640995 0.870246 0.163789
H8    H     H_    0.057980 0.808364 0.532335 0.196392
H9    H     H_    0.954286 0.811011 0.529774 0.192539
H10   H     H_    0.319736 0.482251 0.719884 0.182921
H11   H     H_    0.319058 0.504287 0.284439 0.178166
H12   H     H_    0.680774 0.530042 0.714036 0.166586
H13   H     H_    0.214494 0.498700 0.288731 0.162014
H14   H     H_    0.785312 0.527505 0.711793 0.142422
H15   H     H_    0.785030 0.467863 0.283523 0.142612
H16   H     H_    0.680424 0.469676 0.283058 0.178200
H17   H     H_    0.427676 0.109586 0.384521 0.142602
H18   H     H_    0.599510 0.239084 0.623280 0.154500
H19   H     H_    0.677241 0.127494 0.726850 0.154944
H20   H     H_    0.677651 0.894690 0.724721 0.156127
H21   H     H_    0.600384 0.773413 0.618634 0.143965
H22   H     H_    0.428072 0.881249 0.382833 0.159116
I1    I     I_    0.593891 0.708181 0.158168 -0.341591
I2    I     I_    0.194618 0.469629 0.815374 -0.316513
N1    N     N_R   0.852227 0.495947 0.497354 -0.361096
N2    N     N_R   0.147533 0.488378 0.505178 -0.354462
N3    N     N_R   0.499460 0.498800 0.142780 -0.140158
N4    N     N_R   0.499440 0.498720 0.857170 -0.133562
O1    O     O_R   0.500000 0.316780 0.614690 -0.639832
O2    O     O_R   0.583850 0.500050 0.614640 -0.637902
O3    O     O_R   0.583840 0.500030 0.385310 -0.588651
O4    O     O_2   0.855050 0.716679 0.517972 -0.544478
O5    O     O_2   0.846334 0.275303 0.476449 -0.546656
O6    O     O_2   0.144918 0.267792 0.483909 -0.536106
O7    O     O_2   0.153425 0.709060 0.525143 -0.531959
O8    O     O_R   0.500000 0.316750 0.385360 -0.627860
O9    O     O_R   0.416160 0.499970 0.614690 -0.633439
O10   O     O_R   0.416150 0.499950 0.385360 -0.641686
O11   O     O_R   0.500000 0.683250 0.614640 -0.617183
O12   O     O_R   0.500000 0.683220 0.385310 -0.580644
Zn1   Zn    Zn3+2 0.500000 0.500020 0.653130 0.939249
Zn2   Zn    Zn3+2 0.500000 0.499980 0.346870 0.972358

loop_
_geom_bond_atom_site_label_1
_geom_bond_atom_site_label_2
_ccdc_geom_bond_type
C1    C25   S    
C30   H3    S    
C22   C29   A    
C27   C29   A    
C1    O1    A    
C41   C42   A    
C35   C36   A    
C31   H4    S    
C12   H1    S    
C7    C8    A    
C38   N4    A    
C45   C46   A    
C1    O8    A    
C12   C23   A    
O1    Zn1   S    
C26   C27   A    
C37   C38   A    
O8    Zn2   S    
C5    H10   S    
C18   C24   A    
C5    C6    A    
C4    O10   A    
C10   C17   A    
C40   N1    A    
C18   C19   A    
C28   O3    A    
O3    Zn2   S    
N3    Zn2   S    
C38   H7    S    
C19   C20   A    
C8    C9    A    
C16   O11   A    
C13   C28   S    
C19   H19   S    
C28   O2    A    
C2    N2    A    
C8    H13   S    
C37   N3    A    
O2    Zn1   S    
C13   C14   A    
C17   N1    S    
C2    O7    S    
C10   H14   S    
C42   C44   A    
C7    H11   S    
C2    C45   A    
C35   N4    A    
C48   N2    A    
C34   C44   A    
C24   C25   A    
C4    C6    S    
O10   Zn2   S    
O9    Zn1   S    
C23   H2    S    
C39   C43   A    
C4    O9    A    
C16   C29   S    
C21   H21   S    
C12   C41   A    
C3    C9    A    
C36   N3    A    
C47   H9    S    
C31   C32   A    
C23   C34   A    
C14   H16   S    
C27   H22   S    
C40   C41   A    
O12   Zn2   S    
C37   I1    S    
C22   C24   A    
C34   C48   A    
C9    N2    S    
C11   H12   S    
C32   H5    S    
C44   C45   A    
C33   H6    S    
C15   C17   A    
C46   C47   A    
C26   H17   S    
C40   O5    S    
C20   H20   S    
C3    C5    A    
C6    C7    A    
C18   H18   S    
N4    Zn1   S    
C30   C36   A    
C32   C33   A    
O11   Zn1   S    
C3    I2    S    
C25   C26   A    
C39   O4    S    
C11   C13   A    
C30   C31   A    
C33   C35   A    
C48   O6    S    
C39   N1    A    
C10   C11   A    
C20   C21   A    
C42   C43   A    
C46   H8    S    
C16   O12   A    
C15   H15   S    
C14   C15   A    
C21   C22   A    
C43   C47   A    
