data_mof_unit_34861.cif
_audit_creation_date              2013-03-05T15:56:34-0500
_audit_creation_method            fapswitch 2.2
_symmetry_space_group_name_H-M    P1
_symmetry_Int_Tables_number       1
_space_group_crystal_system       triclinic
_cell_length_a                    6.949843
_cell_length_b                    14.452292
_cell_length_c                    16.198332
_cell_angle_alpha                 90.302111
_cell_angle_beta                  89.0856
_cell_angle_gamma                 88.86859
_cell_volume                      1626.4295032

loop_
_atom_site_label
_atom_site_type_symbol
_atom_site_description
_atom_site_fract_x
_atom_site_fract_y
_atom_site_fract_z
_atom_type_partial_charge
O1    O     O_R   0.361600 0.167310 0.164620 -0.590109
O2    O     O_R   0.638400 0.832690 0.835380 -0.590121
O3    O     O_R   0.691080 0.157570 0.338750 -0.572421
O4    O     O_R   0.308920 0.842430 0.661250 -0.572418
O5    O     O_R   0.861410 0.336420 0.339360 -0.582159
O6    O     O_R   0.138590 0.663580 0.660640 -0.582159
C1    C     C_R   0.522454 0.136024 0.367969 1.141938
C2    C     C_R   0.477546 0.863975 0.632031 1.141948
O7    O     O_R   0.691320 0.156280 0.165240 -0.557025
O8    O     O_R   0.308680 0.843720 0.834760 -0.556979
O9    O     O_R   0.861640 0.335130 0.164600 -0.588903
O10   O     O_R   0.138360 0.664870 0.835400 -0.589102
C3    C     C_R   0.524509 0.133418 0.136357 1.099486
C4    C     C_R   0.475489 0.866589 0.863638 1.099381
O11   O     O_R   0.361370 0.168600 0.339370 -0.581322
O12   O     O_R   0.638630 0.831400 0.660630 -0.581314
O13   O     O_3   0.527990 0.310540 0.251980 -0.246515
O14   O     O_3   0.472010 0.689460 0.748020 -0.246641
V1    V     V_3+5 0.802830 0.240980 0.251990 1.401021
V2    V     V_3+5 0.197170 0.759020 0.748010 1.400987
O15   O     O_R   0.191360 0.346160 0.165220 -0.548252
O16   O     O_R   0.808640 0.653840 0.834780 -0.548253
C5    C     C_R   0.022080 0.368668 0.136637 1.119104
C6    C     C_R   0.977921 0.631321 0.863354 1.119212
O17   O     O_R   0.191130 0.347440 0.338740 -0.565623
O18   O     O_R   0.808870 0.652560 0.661260 -0.565617
C7    C     C_R   0.019860 0.367493 0.368741 1.208467
C8    C     C_R   0.980140 0.632507 0.631259 1.208457
V3    V     V_3+5 0.302840 0.262750 0.251990 1.394081
V4    V     V_3+5 0.697160 0.737250 0.748010 1.394036
O19   O     O_3   0.027820 0.193180 0.251990 -0.262075
O20   O     O_3   0.972180 0.806820 0.748010 -0.262037
C9    C     C_3   0.891280 0.429669 0.522453 0.171623
C10   C     C_3   0.108720 0.570330 0.477548 0.171627
C11   C     C_3   0.067717 0.462491 0.569421 0.336456
C12   C     C_3   0.932283 0.537508 0.430580 0.336450
C13   C     C_3   0.996579 0.564274 0.560531 -0.638697
C14   C     C_3   0.003420 0.435725 0.439469 -0.638700
C15   C     C_3   0.818931 0.530975 0.513517 0.410588
C16   C     C_3   0.181069 0.469024 0.486484 0.410584
C17   C     C_R   0.862050 0.488629 0.938204 0.435933
C18   C     C_R   0.137982 0.511333 0.061760 0.435711
C19   C     C_R   0.870788 0.426792 0.005113 0.267411
C20   C     C_R   0.129258 0.573157 0.994847 0.267506
C21   C     C_R   0.010236 0.436665 0.067283 -0.494963
C22   C     C_R   0.989761 0.563312 0.932698 -0.495031
C23   C     C_R   0.651526 0.994193 0.441454 0.259732
C24   C     C_R   0.348473 0.005806 0.558544 0.259733
C25   C     C_R   0.636616 0.927030 0.503705 0.460255
C26   C     C_R   0.363383 0.072968 0.496294 0.460252
C27   C     C_R   0.487565 0.933131 0.563996 -0.514002
C28   C     C_R   0.512434 0.066868 0.436003 -0.513997
C29   C     C_R   0.643469 0.987939 0.059830 0.250646
C30   C     C_R   0.356518 0.012077 0.940161 0.250673
C31   C     C_R   0.626583 0.923014 0.994883 0.302053
C32   C     C_R   0.373401 0.077003 0.005109 0.302142
C33   C     C_R   0.482835 0.933980 0.934391 -0.479811
C34   C     C_R   0.517154 0.066034 0.065601 -0.479978
Cl1   Cl    Cl    0.158737 0.412336 0.661603 -0.363081
Cl2   Cl    Cl    0.841263 0.587663 0.338398 -0.363085
N1    N     N_R   0.777492 0.352415 0.551504 0.319997
O21   O     O_R   0.691401 0.357347 0.623313 -0.199719
O22   O     O_R   0.770745 0.276347 0.508531 -0.305634
N2    N     N_R   0.222508 0.647584 0.448496 0.319995
O23   O     O_R   0.308600 0.642652 0.376687 -0.199753
O24   O     O_R   0.229255 0.723653 0.491469 -0.305633
Cl3   Cl    Cl    0.591661 0.586747 0.531180 -0.446104
Cl4   Cl    Cl    0.408339 0.413252 0.468821 -0.446110
Cl5   Cl    Cl    0.694849 0.467021 0.859344 -0.405055
Cl6   Cl    Cl    0.305231 0.532948 0.140601 -0.405098
N3    N     N_R   0.735336 0.353719 0.009533 0.266974
O25   O     O_R   0.759397 0.280469 0.963251 -0.255526
O26   O     O_R   0.572849 0.367620 0.048958 -0.305829
N4    N     N_R   0.264887 0.646142 0.990364 0.267074
O27   O     O_R   0.427777 0.631944 0.951345 -0.305612
O28   O     O_R   0.240346 0.719723 0.036172 -0.256085
N5    N     N_R   0.805531 0.985846 0.381889 0.284330
O29   O     O_R   0.767385 0.975898 0.304256 -0.309303
O30   O     O_R   0.983782 0.984422 0.405248 -0.289719
N6    N     N_R   0.194465 0.014152 0.618108 0.284332
O31   O     O_R   0.232608 0.024101 0.695741 -0.309298
O32   O     O_R   0.016215 0.015575 0.594747 -0.289716
Cl7   Cl    Cl    0.795343 0.829519 0.498666 -0.440774
Cl8   Cl    Cl    0.204656 0.170480 0.501333 -0.440770
N7    N     N_R   0.778784 0.968176 0.123617 0.268336
O33   O     O_R   0.774529 0.888046 0.159848 -0.220542
O34   O     O_R   0.933413 0.016892 0.129064 -0.293614
N8    N     N_R   0.221217 0.031842 0.876369 0.268336
O35   O     O_R   0.225478 0.111974 0.840140 -0.220514
O36   O     O_R   0.066596 0.983122 0.870909 -0.293580
N9    N     N_R   0.756182 0.844356 0.991960 0.261049
O37   O     O_R   0.941249 0.856041 0.991978 -0.299343
O38   O     O_R   0.689844 0.761420 0.000187 -0.302775
N10   N     N_R   0.243818 0.155669 0.008026 0.261027
O39   O     O_R   0.310182 0.238599 0.999791 -0.302860
O40   O     O_R   0.058747 0.144001 0.007997 -0.299584

loop_
_geom_bond_atom_site_label_1
_geom_bond_atom_site_label_2
_geom_bond_distance
_ccdc_geom_bond_type
C14   C16   1.544505 S    
C5    C21   1.498660 S    
C10   C13   1.546748 S    
O13   V3    1.722837 S    
C29   C31   1.413805 A    
O4    C2    1.301014 A    
V1    O19   1.696926 S    
C26   Cl8   1.773166 S    
C23   C25   1.407353 A    
N5    O29   1.297132 A    
C32   N10   1.436484 S    
O9    V1    2.011507 S    
C9    C15   1.546876 S    
N4    O28   1.300387 A    
C10   C16   1.546876 S    
C11   C13   1.550733 S    
C1    C28   1.493382 S    
O3    C1    1.301013 A    
C9    C11   1.535041 S    
C7    C14   1.509145 S    
O12   V4    2.009262 S    
C18   Cl6   1.771190 S    
C30   N8    1.434245 S    
C11   Cl1   1.782875 S    
N1    O22   1.300141 A    
O7    C3    1.304940 A    
C31   N9    1.436451 S    
C1    O11   1.299073 A    
O5    C7    1.294145 A    
O7    V1    2.031678 S    
C24   C27   1.417402 A    
O6    C8    1.294145 A    
O8    V2    2.031678 S    
C25   C27   1.413431 A    
C26   C28   1.413430 A    
C17   C22   1.413167 A    
O3    V1    2.012806 S    
O14   V4    1.722838 S    
C10   C12   1.535041 S    
C24   C26   1.407351 A    
C2    O12   1.299072 A    
C17   C19   1.409676 A    
N10   O39   1.299434 A    
C18   C20   1.409612 A    
O1    V3    2.002737 S    
C20   C22   1.417276 A    
O11   V3    2.009264 S    
N7    O34   1.300228 A    
O17   V3    1.996235 S    
C13   C15   1.544504 S    
C30   C32   1.413828 A    
N4    O27   1.299900 A    
N6    O32   1.300881 A    
O8    C4    1.304928 A    
N9    O37   1.300530 A    
N3    O26   1.300027 A    
C3    C34   1.502223 S    
N7    O33   1.301697 A    
O15   V3    2.011134 S    
C18   C21   1.413165 A    
N2    O24   1.300141 A    
C20   N4    1.429775 S    
N9    O38   1.299439 A    
O10   V2    2.011509 S    
C10   N2    1.456685 S    
N5    O30   1.300880 A    
N10   O40   1.300531 A    
C19   C21   1.417337 A    
C2    C27   1.493384 S    
N8    O36   1.300228 A    
O18   V4    1.996234 S    
C31   C33   1.417734 A    
O16   C6    1.306938 A    
O1    C3    1.300215 A    
C23   N5    1.432404 S    
C12   C14   1.550732 S    
C17   Cl5   1.771178 S    
V2    O20   1.696927 S    
C4    C33   1.502242 S    
C19   N3    1.429853 S    
O16   V4    2.011137 S    
C15   Cl3   1.777424 S    
C12   C15   1.550752 S    
N6    O31   1.297131 A    
C12   Cl2   1.782875 S    
C29   C34   1.417885 A    
C23   C28   1.417401 A    
O5    V1    2.022671 S    
O17   C7    1.305144 A    
O6    V2    2.022671 S    
O10   C6    1.300371 A    
O18   C8    1.305144 A    
C9    C14   1.546748 S    
O2    V4    2.002740 S    
C6    C22   1.498652 S    
N2    O23   1.300499 A    
C25   Cl7   1.773165 S    
O15   C5    1.306952 A    
C11   C16   1.550752 S    
N3    O25   1.300518 A    
V3    O19   2.177168 S    
V4    O20   2.177166 S    
C24   N6    1.432403 S    
C8    C13   1.509144 S    
O9    C5    1.300363 A    
O13   V1    2.140857 S    
C32   C34   1.417759 A    
O14   V2    2.140859 S    
N1    O21   1.300499 A    
O2    C4    1.300235 A    
O4    V2    2.012804 S    
N8    O35   1.301697 A    
C9    N1    1.456686 S    
C16   Cl4   1.777423 S    
C29   N7    1.434247 S    
C30   C33   1.417906 A    
