data_mof_unit_53361.cif
_audit_creation_date              2012-12-10T17:35:37-0500
_audit_creation_method            fapswitch 2.2
_symmetry_space_group_name_H-M    P1
_symmetry_Int_Tables_number       1
_space_group_crystal_system       triclinic
_cell_length_a                    10.733931
_cell_length_b                    12.379065
_cell_length_c                    13.331868
_cell_angle_alpha                 116.517519
_cell_angle_beta                  77.250435
_cell_angle_gamma                 101.914702
_cell_volume                      1534.17227789

loop_
_atom_site_label
_atom_site_type_symbol
_atom_type_description
_atom_site_fract_x
_atom_site_fract_y
_atom_site_fract_z
_atom_type_partial_charge
C1    C     C_R   0.507683 0.853695 0.287444 0.810308
C2    C     C_3   0.122144 0.994906 0.493521 -0.047665
C3    C     C_3   0.055175 0.071515 0.615572 0.119669
C4    C     C_3   0.048577 0.864221 0.457369 -0.408584
C5    C     C_R   0.431707 0.260823 0.030369 -0.127953
C6    C     C_R   0.489456 0.225034 0.834046 -0.134372
C7    C     C_R   0.561467 0.811550 0.085440 -0.191069
C8    C     C_R   0.564361 0.737019 0.970564 -0.019785
C9    C     C_R   0.513124 0.614641 0.934443 0.205039
C10   C     C_R   0.480088 0.560862 0.012777 0.046421
C11   C     C_R   0.455278 0.639199 0.130320 -0.027884
C12   C     C_R   0.739844 0.998848 0.497815 0.813708
C13   C     C_R   0.471177 0.432678 0.978967 0.078144
C14   C     C_R   0.428073 0.384351 0.060805 0.041476
C15   C     C_R   0.378618 0.458678 0.170792 0.199703
C16   C     C_R   0.384226 0.583447 0.203130 -0.075183
C17   C     C_R   0.510659 0.350962 0.867200 -0.186537
C18   C     C_R   0.461318 0.180998 0.918339 0.281943
C19   C     C_R   0.502672 0.767249 0.166962 -0.085091
C20   C     C_R   0.703288 0.345992 0.326787 -0.218054
C21   C     C_R   0.320254 0.752378 0.640130 0.492018
C22   C     C_R   0.268516 0.645826 0.651476 -0.233937
C23   C     C_R   0.491952 0.144388 0.712595 0.879032
C24   C     C_R   0.323752 0.539512 0.584711 -0.017082
C25   C     C_R   0.445835 0.542326 0.518460 -0.012352
C26   C     C_R   0.490884 0.651383 0.501530 0.189672
C27   C     C_R   0.521353 0.440931 0.463888 -0.030351
C28   C     C_R   0.629154 0.443937 0.381184 0.103389
C29   C     C_R   0.661889 0.545237 0.355143 0.187476
C30   C     C_R   0.597275 0.647454 0.417299 -0.205812
C31   C     C_R   0.498289 0.338657 0.491347 0.090410
C32   C     C_R   0.674319 0.248252 0.356482 0.066299
C33   C     C_R   0.260492 0.997174 0.496502 0.833048
C34   C     C_3   0.962192 0.037279 0.401706 0.081158
C35   C     C_3   0.107300 0.041493 0.405438 -0.224816
C36   C     C_3   0.918216 0.087395 0.610927 -0.466210
C37   C     C_3   0.904122 0.867665 0.467547 -0.358009
C38   C     C_3   0.878175 0.997325 0.493914 0.010446
Cu1   Cu    Cu3+1 0.529690 0.098270 0.475420 0.995477
Cu2   Cu    Cu3+1 0.470310 0.901730 0.524580 1.015102
H1    H     H_    0.945897 0.131397 0.422316 0.155159
H2    H     H_    0.061014 0.822487 0.512520 0.228387
H3    H     H_    0.850206 0.070856 0.680346 0.187374
H4    H     H_    0.045727 0.019257 0.667115 0.186054
H5    H     H_    0.410332 0.223917 0.092852 0.211833
H6    H     H_    0.560117 0.383081 0.804456 0.202979
H7    H     H_    0.603722 0.905759 0.111190 0.184210
H8    H     H_    0.731747 0.173488 0.314216 0.163173
H9    H     H_    0.785165 0.344492 0.262460 0.207433
H10   H     H_    0.421982 0.332869 0.557169 0.178010
H11   H     H_    0.176626 0.643371 0.704920 0.189955
H12   H     H_    0.632228 0.721298 0.394285 0.223344
H13   H     H_    0.151482 0.136582 0.433336 0.187725
H14   H     H_    0.914295 0.182364 0.625077 0.214719
H15   H     H_    0.851371 0.840508 0.536286 0.203019
H16   H     H_    0.868905 0.800241 0.387546 0.239009
H17   H     H_    0.084376 0.806080 0.367965 0.223224
N1    N     N_R   0.574690 0.246280 0.438200 -0.200459
N2    N     N_R   0.426100 0.754320 0.561190 -0.222931
O1    O     O_R   0.537340 0.972510 0.318130 -0.572539
O2    O     O_R   0.487200 0.806530 0.359650 -0.614279
O3    O     O_R   0.707380 0.082980 0.479220 -0.585868
O4    O     O_R   0.657240 0.917000 0.520740 -0.604934
O5    O     O_R   0.512800 0.193470 0.640350 -0.575388
O6    O     O_R   0.462660 0.027490 0.681870 -0.509467
O7    O     O_R   0.342760 0.083000 0.479260 -0.577023
O8    O     O_R   0.292620 0.917020 0.520780 -0.554785
Br1   Br    Br    0.470763 0.017085 0.891669 -0.436161
Br2   Br    Br    0.289312 0.387565 0.275444 -0.539164
Br3   Br    Br    0.450346 0.540042 0.790571 -0.535559
C39   C     C_1   0.625212 0.786037 0.889206 0.391049
N3    N     N_1   0.675238 0.824231 0.823395 -0.219052
Br4   Br    Br    0.906446 0.937539 0.251846 -0.482184
C40   C     C_1   0.295432 0.641742 0.302368 0.380493
N4    N     N_1   0.223068 0.681164 0.383560 -0.274913
Br5   Br    Br    0.795912 0.550477 0.234040 -0.500272
Br6   Br    Br    0.220417 0.885276 0.728103 -0.419326
C41   C     C_1   0.234599 0.431091 0.563636 0.368834
N5    N     N_1   0.157538 0.347458 0.546574 -0.260829
C42   C     C_1   0.180769 0.976578 0.292280 0.348946
N6    N     N_1   0.238642 0.926052 0.204142 -0.210197
Br7   Br    Br    0.151015 0.226012 0.703387 -0.448787

loop_
_geom_bond_atom_site_label_1
_geom_bond_atom_site_label_2
_ccdc_geom_bond_type
C2    C35   S    
C35   H13   S    
C32   N1    A    
C7    C8    A    
C29   Br5   S    
Cu1   O5    S    
C11   C19   A    
C29   C30   A    
Cu2   O4    S    
C16   C40   S    
C31   N1    A    
C28   C29   A    
C37   C38   S    
C21   N2    A    
Cu1   O1    S    
C18   Br1   S    
C15   C16   A    
C35   C42   S    
C34   C35   S    
C6    C17   A    
C37   H16   S    
C8    C9    A    
Cu2   O8    S    
C4    H17   S    
C26   N2    A    
Cu2   N2    S    
C21   C22   A    
C32   H8    S    
C34   H1    S    
C6    C18   A    
C9    C10   A    
C33   O7    A    
C15   Br2   S    
C3    H4    S    
C1    C19   S    
C40   N4    T    
C27   C31   A    
C17   H6    S    
C1    O1    A    
Cu1   Cu2   S    
C12   O4    A    
C41   N5    T    
C5    C18   A    
C20   C28   A    
C25   C26   A    
Cu1   N1    S    
C5    H5    S    
Cu2   O2    S    
C7    H7    S    
C2    C4    S    
C20   H9    S    
C12   O3    A    
C11   C16   A    
C3    Br7   S    
C24   C25   A    
C5    C14   A    
C2    C33   S    
C24   C41   S    
C23   O5    A    
C26   C30   A    
C7    C19   A    
Cu2   O6    S    
Cu1   O7    S    
C22   C24   A    
C31   H10   S    
C33   O8    A    
C20   C32   A    
Cu1   O3    S    
C30   H12   S    
C8    C39   S    
C34   C38   S    
C42   N6    T    
C10   C13   A    
C1    O2    A    
C25   C27   A    
C13   C17   A    
C23   O6    A    
C36   C38   S    
C2    C3    S    
C39   N3    T    
C4    H2    S    
C3    C36   S    
C6    C23   S    
C12   C38   S    
C36   H14   S    
C10   C11   A    
C34   Br4   S    
C9    Br3   S    
C37   H15   S    
C4    C37   S    
C21   Br6   S    
C27   C28   A    
C14   C15   A    
C36   H3    S    
C13   C14   A    
C22   H11   S    
