data_mof_unit_15565.cif
_audit_creation_date              2012-12-10T17:54:17-0500
_audit_creation_method            fapswitch 2.2
_symmetry_space_group_name_H-M    P1
_symmetry_Int_Tables_number       1
_space_group_crystal_system       triclinic
_cell_length_a                    27.699681
_cell_length_b                    10.51515
_cell_length_c                    9.920679
_cell_angle_alpha                 90.750167
_cell_angle_beta                  89.256841
_cell_angle_gamma                 92.888314
_cell_volume                      2885.42212549

loop_
_atom_site_label
_atom_site_type_symbol
_atom_type_description
_atom_site_fract_x
_atom_site_fract_y
_atom_site_fract_z
_atom_type_partial_charge
C1    C     C_R   0.508055 0.262777 0.499839 0.924707
C2    C     C_R   0.972974 0.391294 0.513217 0.096674
C3    C     C_R   0.976901 0.625206 0.494723 -0.174182
C4    C     C_R   0.406160 0.503316 0.501055 0.946896
C5    C     C_R   0.949636 0.507713 0.502182 0.006688
C6    C     C_R   0.944392 0.277632 0.531431 -0.183900
C7    C     C_R   0.894326 0.277975 0.532574 -0.087212
C8    C     C_R   0.871117 0.391222 0.513857 0.023568
C9    C     C_R   0.898640 0.506436 0.497009 -0.135520
C10   C     C_R   0.875167 0.620090 0.474457 -0.272020
C11   C     C_R   0.824465 0.616135 0.473174 0.604184
C12   C     C_R   0.277168 0.505186 0.388903 -0.099768
C13   C     C_R   0.820721 0.392165 0.512088 0.515884
C14   C     C_R   0.722512 0.512142 0.373265 -0.090215
C15   C     C_R   0.672335 0.511135 0.374650 -0.208564
C16   C     C_R   0.507763 0.739683 0.499855 0.973343
C17   C     C_R   0.671859 0.491061 0.618512 -0.176595
C18   C     C_R   0.722015 0.491750 0.616688 -0.098228
C19   C     C_R   0.747277 0.502438 0.494201 0.291998
C20   C     C_R   0.024002 0.392464 0.505499 0.071968
C21   C     C_R   0.050878 0.510653 0.513447 0.010519
C22   C     C_R   0.027202 0.627113 0.518723 -0.044786
C23   C     C_R   0.253244 0.519242 0.512661 0.293487
C24   C     C_R   0.049182 0.279517 0.489746 -0.186871
C25   C     C_R   0.104754 0.740539 0.558318 -0.225820
C26   C     C_R   0.953044 0.735010 0.457206 0.601422
C27   C     C_R   0.902911 0.733056 0.450284 0.593548
C28   C     C_R   0.593933 0.500354 0.499223 0.878936
C29   C     C_R   0.054643 0.740020 0.552947 0.695908
C30   C     C_R   0.558624 0.140715 0.731056 -0.143436
C31   C     C_R   0.577261 0.076612 0.839224 -0.213855
C32   C     C_R   0.581803 0.945787 0.831384 -0.162819
C33   C     C_R   0.566456 0.877729 0.716956 0.648150
C34   C     C_R   0.101873 0.512423 0.517208 -0.065037
C35   C     C_R   0.542997 0.939074 0.611786 -0.087757
C36   C     C_R   0.540909 0.073055 0.615935 0.047233
C37   C     C_R   0.524323 0.133863 0.499405 -0.214286
C38   C     C_R   0.524112 0.068550 0.376603 -0.249389
C39   C     C_R   0.521665 0.938450 0.374810 0.632986
C40   C     C_R   0.176526 0.402882 0.501797 0.524639
C41   C     C_R   0.524268 0.873092 0.496831 -0.265893
C42   C     C_R   0.420297 0.375800 0.134200 -0.031266
C43   C     C_R   0.377826 0.353997 0.060349 -0.303437
C44   C     C_R   0.381107 0.339416 0.920816 -0.059049
C45   C     C_R   0.126001 0.398289 0.502275 -0.007823
C46   C     C_R   0.425260 0.370949 0.857691 -0.190317
C47   C     C_R   0.462411 0.438345 0.927040 0.140012
C48   C     C_R   0.461499 0.439001 0.071304 0.103546
C49   C     C_R   0.536708 0.556521 0.071234 -0.064834
C50   C     C_R   0.536724 0.556155 0.928411 -0.098896
C51   C     C_R   0.179267 0.628369 0.535970 0.564529
C52   C     C_R   0.279298 0.532691 0.631988 -0.083794
C53   C     C_R   0.329355 0.529433 0.627917 -0.187655
C54   C     C_R   0.327225 0.502126 0.384612 -0.158641
C55   C     C_2   0.425581 0.268773 0.225057 1.000059
C56   C     C_R   0.099339 0.282726 0.487320 -0.099761
C57   C     C_2   0.340222 0.280378 0.842820 0.934840
C58   C     C_R   0.128770 0.628327 0.536170 -0.122898
C59   C     C_R   0.353609 0.511393 0.504387 -0.011372
C60   C     C_R   0.646678 0.500745 0.497405 -0.021958
F1    F     F_    0.977814 0.841122 0.412289 -0.579189
F2    F     F_    0.881971 0.841966 0.416025 -0.565533
F3    F     F_    0.033487 0.847270 0.595512 -0.613260
F4    F     F_    0.580923 0.757324 0.701606 -0.694489
F5    F     F_    0.514023 0.878429 0.254254 -0.635911
H1    H     H_    0.345113 0.491734 0.288027 0.171123
H2    H     H_    0.599539 0.897839 0.911467 0.168535
H3    H     H_    0.566675 0.602998 0.124436 0.153624
H4    H     H_    0.345380 0.316427 0.111439 0.208150
H5    H     H_    0.430557 0.338991 0.756228 0.240960
H6    H     H_    0.567131 0.600715 0.875338 0.202665
H7    H     H_    0.117130 0.193901 0.474060 0.206464
H8    H     H_    0.653743 0.518922 0.279966 0.159453
H9    H     H_    0.742218 0.520272 0.278523 0.145992
H10   H     H_    0.873864 0.188608 0.547523 0.219846
H11   H     H_    0.959782 0.187268 0.549256 0.186848
H12   H     H_    0.260672 0.544066 0.727704 0.155656
H13   H     H_    0.031024 0.187395 0.474571 0.191069
H14   H     H_    0.348935 0.539847 0.721474 0.165490
H15   H     H_    0.401797 0.173443 0.390176 0.350625
H16   H     H_    0.316162 0.209589 0.664371 0.376332
H17   H     H_    0.124617 0.829177 0.582302 0.223442
H18   H     H_    0.652902 0.482775 0.714421 0.161464
H19   H     H_    0.741348 0.484369 0.710222 0.143944
H20   H     H_    0.522435 0.117124 0.282009 0.238296
H21   H     H_    0.561538 0.243248 0.736874 0.177808
H22   H     H_    0.590863 0.129674 0.926195 0.172600
H23   H     H_    0.256867 0.495819 0.296438 0.151704
N1    N     N_R   0.201834 0.516891 0.517239 -0.359569
N2    N     N_R   0.798707 0.503577 0.492835 -0.369184
N3    N     N_R   0.499540 0.498800 0.142780 -0.121033
N4    N     N_R   0.499520 0.498720 0.857170 -0.118704
O1    O     O_R   0.500000 0.316780 0.614690 -0.649670
O2    O     O_R   0.571250 0.499990 0.614680 -0.602994
O3    O     O_R   0.571240 0.499970 0.385350 -0.649620
O4    O     O_2   0.200303 0.294561 0.486409 -0.529238
O5    O     O_2   0.450884 0.182763 0.188671 -0.634004
O6    O     O_R   0.396087 0.254528 0.339859 -0.798242
O7    O     O_2   0.300650 0.260504 0.896792 -0.598586
O8    O     O_R   0.346800 0.247433 0.706957 -0.803927
O9    O     O_2   0.793785 0.282778 0.528935 -0.530353
O10   O     O_2   0.205690 0.738704 0.552812 -0.530750
O11   O     O_2   0.800860 0.723505 0.454104 -0.453478
O12   O     O_R   0.500000 0.316750 0.385360 -0.618429
O13   O     O_R   0.428760 0.500030 0.614650 -0.644041
O14   O     O_R   0.428750 0.500010 0.385320 -0.619207
O15   O     O_R   0.500000 0.683250 0.614640 -0.571129
O16   O     O_R   0.500000 0.683220 0.385310 -0.554927
Zn1   Zn    Zn3+2 0.500000 0.500020 0.653130 0.976381
Zn2   Zn    Zn3+2 0.500000 0.499980 0.346870 0.999120

loop_
_geom_bond_atom_site_label_1
_geom_bond_atom_site_label_2
_ccdc_geom_bond_type
C10   C27   A    
C29   F3    S    
C8    C13   A    
C49   H3    S    
C13   N2    A    
O15   Zn1   S    
C15   C60   A    
C35   C36   A    
C43   C44   A    
C53   C59   A    
C7    C8    A    
C39   C41   A    
C31   C32   A    
C51   O10   S    
C12   C23   A    
C26   C27   A    
C28   O3    A    
C14   H9    S    
N3    Zn2   S    
C36   C37   A    
C22   C29   A    
C26   F1    S    
C40   O4    S    
C30   C31   A    
N4    Zn1   S    
C57   O7    D    
C4    C59   S    
C28   O2    A    
C18   C19   A    
C47   N4    A    
C16   O15   A    
C20   C24   A    
C45   C56   A    
C8    C9    A    
C56   H7    S    
C48   N3    A    
C18   H19   S    
C23   N1    S    
C40   N1    A    
C30   H21   S    
C9    C10   A    
C1    C37   S    
H15   O6    S    
C43   H4    S    
C21   C22   A    
C39   F5    S    
C2    C6    A    
C49   N3    A    
C44   C46   A    
C54   C59   A    
C28   C60   S    
C25   C29   A    
C40   C45   A    
C31   H22   S    
C12   H23   S    
C38   H20   S    
C2    C20   A    
C51   C58   A    
C7    H10   S    
C21   C34   A    
C57   O8    S    
C4    O14   A    
C17   H18   S    
C50   H6    S    
C5    C9    A    
C37   C38   A    
C27   F2    S    
C42   C55   S    
C47   C48   A    
C44   C57   S    
C55   O5    D    
C17   C18   A    
C34   C45   A    
C42   C48   A    
C1    O12   A    
C32   H2    S    
C50   N4    A    
C15   H8    S    
C25   H17   S    
C2    C5    A    
C42   C43   A    
C13   O9    S    
C52   H12   S    
C52   C53   A    
O14   Zn2   S    
C24   H13   S    
O13   Zn1   S    
C46   C47   A    
C53   H14   S    
C14   C19   A    
C3    C26   A    
C3    C5    A    
O3    Zn2   S    
C6    H11   S    
C6    C7    A    
C54   H1    S    
H16   O8    S    
C24   C56   A    
C4    O13   A    
O2    Zn1   S    
C30   C36   A    
C32   C33   A    
C19   N2    S    
C51   N1    A    
O12   Zn2   S    
C11   N2    A    
C23   C52   A    
C38   C39   A    
C33   F4    S    
C55   O6    S    
C33   C35   A    
O16   Zn2   S    
C35   C41   A    
C46   H5    S    
C10   C11   A    
C16   O16   A    
C17   C60   A    
C20   C21   A    
C1    O1    A    
C49   C50   A    
C25   C58   A    
C34   C58   A    
C14   C15   A    
C3    C22   A    
C11   O11   S    
C16   C41   S    
C12   C54   A    
O1    Zn1   S    
