data_mof_unit_10354.cif
_audit_creation_date              2013-03-05T16:34:04-0500
_audit_creation_method            fapswitch 2.2
_symmetry_space_group_name_H-M    P1
_symmetry_Int_Tables_number       1
_space_group_crystal_system       triclinic
_cell_length_a                    9.552764
_cell_length_b                    10.833976
_cell_length_c                    17.008986
_cell_angle_alpha                 88.906551
_cell_angle_beta                  93.727395
_cell_angle_gamma                 89.788994
_cell_volume                      1756.27008336

loop_
_atom_site_label
_atom_site_type_symbol
_atom_site_description
_atom_site_fract_x
_atom_site_fract_y
_atom_site_fract_z
_atom_type_partial_charge
O1    O     O_R   0.618810 0.319640 0.500000 -0.580029
O2    O     O_R   0.381230 0.319680 0.499990 -0.598478
C1    C     C_R   0.500161 0.262388 0.499368 0.811370
O3    O     O_R   0.631790 0.498830 0.613930 -0.535275
O4    O     O_R   0.394210 0.498870 0.613920 -0.586217
C2    C     C_R   0.517320 0.497557 0.651293 0.860232
Cu1   Cu    Cu3+1 0.640670 0.499980 0.500000 1.013271
Cu2   Cu    Cu3+1 0.359330 0.500020 0.500000 1.002153
O5    O     O_R   0.618770 0.680320 0.500010 -0.551977
O6    O     O_R   0.381190 0.680360 0.500000 -0.596270
O7    O     O_R   0.605790 0.501130 0.386080 -0.600121
O8    O     O_R   0.368210 0.501170 0.386070 -0.531703
C3    C     C_R   0.499729 0.737656 0.499571 0.810195
C4    C     C_R   0.483453 0.498371 0.348823 0.846050
C5    C     C_R   0.525840 0.503335 0.738061 -0.215830
C6    C     C_R   0.407680 0.545952 0.774958 -0.309978
C7    C     C_R   0.411701 0.562658 0.856440 0.319766
C8    C     C_R   0.537112 0.534942 0.901787 0.224401
C9    C     C_R   0.655478 0.494439 0.865521 -0.217632
C10   C     C_R   0.650708 0.475082 0.784416 0.305604
C11   C     C_R   0.608118 0.487712 0.143074 0.330357
C12   C     C_R   0.604520 0.504078 0.224107 -0.250820
C13   C     C_R   0.481342 0.462563 0.098358 0.273096
N1    N     N_2   0.545070 0.541030 0.984567 -0.130399
N2    N     N_2   0.472948 0.459535 0.014952 -0.168821
C14   C     C_R   0.479781 0.488068 0.262472 -0.109164
H1    H     H_    0.701460 0.524755 0.257570 0.204081
H2    H     H_    0.750234 0.471926 0.901447 0.243926
C15   C     C_R   0.357908 0.452802 0.218565 -0.120209
C16   C     C_R   0.358444 0.441718 0.137032 -0.153239
H3    H     H_    0.262831 0.432417 0.247092 0.238836
H4    H     H_    0.262159 0.418373 0.103558 0.210246
H5    H     H_    0.312489 0.569971 0.739836 0.225762
C17   C     C_R   0.625737 0.062883 0.503934 0.121088
C18   C     C_R   0.500198 0.129364 0.493631 -0.107954
C19   C     C_R   0.374841 0.065722 0.474993 -0.189674
H6    H     H_    0.276497 0.114737 0.463011 0.175650
C20   C     C_R   0.374482 0.937074 0.475555 -0.187225
H7    H     H_    0.276016 0.889920 0.464329 0.167325
C21   C     C_R   0.499383 0.871079 0.494405 -0.112760
C22   C     C_R   0.625087 0.935619 0.504675 0.250897
C23   C     C_3   0.734626 0.927119 0.571402 -0.427091
C24   C     C_3   0.736351 0.067014 0.570109 -0.453259
H8    H     H_    0.694033 0.886613 0.625983 0.193709
H9    H     H_    0.834259 0.885721 0.553956 0.251705
H10   H     H_    0.698012 0.107944 0.624220 0.238657
H11   H     H_    0.836550 0.105351 0.550887 0.206248
C25   C     C_R   0.069740 0.603659 0.477783 0.077086
N3    N     N_R   0.147870 0.500930 0.499500 -0.166826
C26   C     C_R   0.078271 0.402609 0.530034 -0.000429
H12   H     H_    0.136506 0.322866 0.553385 0.135988
C27   C     C_R   0.929539 0.402523 0.529848 0.015549
H13   H     H_    0.877282 0.323030 0.553157 0.156486
N4    N     N_R   0.851960 0.500890 0.499500 -0.210739
C28   C     C_R   0.922759 0.604553 0.479648 0.143278
C29   C     C_3   0.901767 0.676589 0.404489 0.363873
C30   C     C_3   0.060069 0.673017 0.400104 0.055269
H14   H     H_    0.840264 0.627400 0.357300 0.142530
H15   H     H_    0.109562 0.765496 0.402635 0.136615
F1    F     F_    0.853013 0.794593 0.416428 -0.672476
N5    N     N_R   0.100695 0.600461 0.333721 0.135945
O9    O     O_R   0.164916 0.654862 0.277633 -0.316086
O10   O     O_R   0.054524 0.488450 0.323964 -0.377374
N6    N     N_R   0.741239 0.489804 0.108167 0.144548
O11   O     O_R   0.770552 0.406496 0.057554 -0.319080
O12   O     O_R   0.841104 0.561290 0.135996 -0.280480
N7    N     N_R   0.770631 0.421069 0.751386 0.146411
O13   O     O_R   0.896392 0.454931 0.775689 -0.295665
O14   O     O_R   0.755661 0.322933 0.708783 -0.381383
N8    N     N_R   0.289666 0.609720 0.891748 0.150408
O15   O     O_R   0.302215 0.672576 0.956241 -0.287229
O16   O     O_R   0.165774 0.598903 0.856012 -0.286720

loop_
_geom_bond_atom_site_label_1
_geom_bond_atom_site_label_2
_geom_bond_distance
_ccdc_geom_bond_type
C25   C28   1.406505 A    
C26   C27   1.420595 A    
C28   C29   1.486945 S    
C30   N5    1.460131 S    
C15   C16   1.394600 A    
C6    H5    1.083130 S    
O4    Cu2   1.944434 S    
C4    C14   1.473263 S    
C24   H11   1.110863 S    
C22   C23   1.494132 S    
C10   N7    1.435870 S    
C18   C19   1.405351 A    
C1    C18   1.446330 S    
Cu2   O8    1.944996 S    
N6    O11   1.301249 A    
N3    C26   1.369471 A    
C19   C20   1.393634 A    
O2    C1    1.293359 A    
C25   C30   1.504851 S    
C15   H3    1.078805 S    
C11   C12   1.395622 A    
C29   C30   1.519287 S    
N7    O13   1.301226 A    
Cu1   O7    1.944434 S    
C9    H2    1.083055 S    
N5    O9    1.300440 A    
C17   C22   1.378631 A    
C23   H8    1.112360 S    
C19   H6    1.083234 S    
C13   N2    1.416709 S    
O3    Cu1   1.944994 S    
C8    N1    1.407934 S    
O4    C2    1.299880 A    
C27   H13   1.078872 S    
O3    C2    1.299978 A    
C21   C22   1.394623 A    
C20   C21   1.404587 A    
C27   N4    1.369254 A    
C7    C8    1.410216 A    
Cu1   O5    1.964206 S    
C12   H1    1.081453 S    
C11   C13   1.417732 A    
C5    C10   1.415634 A    
C24   H10   1.111783 S    
C30   H15   1.109830 S    
C23   C24   1.515521 S    
C3    C21   1.446468 S    
C5    C6    1.407282 A    
C16   H4    1.083173 S    
C13   C16   1.399535 A    
C29   F1    1.382176 S    
Cu1   Cu2   2.687573 S    
N8    O15   1.301316 A    
C20   H7    1.079866 S    
N1    N2    1.246864 D    
C14   C15   1.400092 A    
Cu2   O6    1.965692 S    
C17   C18   1.396121 A    
C12   C14   1.405033 A    
N7    O14   1.301158 A    
O7    C4    1.293411 A    
N5    O10   1.302632 A    
C8    C9    1.396051 A    
O5    C3    1.293285 A    
N4    C28   1.361450 A    
C25   N3    1.369133 A    
C11   N6    1.438075 S    
N8    O16   1.301574 A    
Cu1   N4    2.019034 S    
C26   H12   1.080853 S    
C2    C5    1.475332 S    
O1    Cu1   1.965692 S    
C29   H14   1.109373 S    
C7    N8    1.441533 S    
Cu2   N3    2.019478 S    
O6    C3    1.293732 A    
O2    Cu2   1.964206 S    
C17   C24   1.494355 S    
C9    C10   1.397155 A    
O8    C4    1.305911 A    
C6    C7    1.399174 A    
O1    C1    1.293580 A    
C23   H9    1.110738 S    
N6    O12   1.301800 A    
