data_mof_unit_29599.cif
_audit_creation_date              2012-10-26T19:57:13-0400
_audit_creation_method            fapswitch 2.2
_symmetry_space_group_name_H-M    P1
_symmetry_Int_Tables_number       1
_space_group_crystal_system       triclinic
_cell_length_a                    13.009748
_cell_length_b                    10.921083
_cell_length_c                    9.687407
_cell_angle_alpha                 89.881318
_cell_angle_beta                  96.719213
_cell_angle_gamma                 90.134721
_cell_volume                      1366.93219198

loop_
_atom_site_label
_atom_site_type_symbol
_atom_type_description
_atom_site_fract_x
_atom_site_fract_y
_atom_site_fract_z
_atom_type_partial_charge
C1    C     C_R   0.498884 0.265350 0.499985 0.562936
C2    C     C_2   0.494726 0.133355 0.501874 -0.114870
C3    C     C_2   0.460468 0.410428 0.915230 0.377188
C4    C     C_R   0.300243 0.500563 0.473510 0.590064
C5    C     C_2   0.481778 0.403604 0.073951 -0.040954
C6    C     C_R   0.501856 0.734631 0.500254 0.537184
C7    C     C_R   0.699334 0.500541 0.526594 0.541889
C8    C     C_R   0.811797 0.505454 0.542866 0.011036
C9    C     C_R   0.186619 0.499145 0.457553 0.017500
C10   C     C_R   0.023087 0.431707 0.335419 -0.148372
C11   C     C_R   0.130856 0.442515 0.340604 0.215808
C12   C     C_R   0.026599 0.533732 0.559094 0.034089
C13   C     C_R   0.133851 0.551584 0.562568 0.206443
C14   C     C_3   0.346915 0.239309 0.909297 -0.014972
C15   C     C_3   0.403341 0.117583 0.939996 -0.277454
C16   C     C_3   0.340953 0.031627 0.022786 -0.489026
C17   C     C_3   0.141717 0.411634 0.104011 0.018086
C18   C     C_3   0.095530 0.294889 0.033717 -0.280380
C19   C     C_3   0.054144 0.318378 0.882113 -0.482918
C20   C     C_3   0.167726 0.742729 0.658275 -0.007313
C21   C     C_3   0.260998 0.809936 0.612107 -0.249443
C22   C     C_3   0.241307 0.947481 0.599461 -0.488848
C23   C     C_R   0.971482 0.476248 0.442837 -0.038268
C24   C     C_R   0.864606 0.463433 0.434961 -0.123355
C25   C     C_R   0.866495 0.556831 0.661886 -0.156026
C26   C     C_R   0.973284 0.571302 0.669887 -0.136826
C27   C     C_2   0.496374 0.933178 0.386115 -0.163399
C28   C     C_2   0.507380 0.866600 0.503153 -0.125733
C29   C     C_2   0.500345 0.067227 0.386668 -0.166414
Cu1   Cu    Cu3+1 0.500020 0.500020 0.638640 1.007698
Cu2   Cu    Cu3+1 0.499980 0.499980 0.361360 0.942649
H1    H     H_    0.822254 0.421144 0.344169 0.121826
H2    H     H_    0.522006 0.907299 0.605240 0.095798
H3    H     H_    0.506468 0.112216 0.287844 0.141271
H4    H     H_    0.274511 0.219666 0.840197 0.151468
H5    H     H_    0.321713 0.280336 0.004383 0.124363
H6    H     H_    0.415694 0.072854 0.840313 0.165766
H7    H     H_    0.480370 0.133723 0.999519 0.147974
H8    H     H_    0.330055 0.073092 0.124664 0.161737
H9    H     H_    0.382943 0.943672 0.041527 0.143952
H10   H     H_    0.263993 0.012620 0.964280 0.139551
H11   H     H_    0.205863 0.444058 0.046906 0.162344
H12   H     H_    0.484883 0.092302 0.601100 0.097586
H13   H     H_    0.083522 0.487036 0.094425 0.112384
H14   H     H_    0.155262 0.222200 0.039052 0.160465
H15   H     H_    0.031484 0.259594 0.088800 0.157720
H16   H     H_    0.987974 0.382881 0.876317 0.158811
H17   H     H_    0.026835 0.230988 0.832005 0.144753
H18   H     H_    0.115632 0.357382 0.824545 0.174085
H19   H     H_    0.154085 0.777567 0.762267 0.138146
H20   H     H_    0.097248 0.765983 0.585704 0.117971
H21   H     H_    0.329713 0.793641 0.689341 0.189071
H22   H     H_    0.277135 0.774034 0.509614 0.161565
H23   H     H_    0.546449 0.560902 0.902522 0.158038
H24   H     H_    0.173932 0.966189 0.520869 0.153230
H25   H     H_    0.310194 0.993787 0.566087 0.159305
H26   H     H_    0.226188 0.985997 0.701120 0.140408
H27   H     H_    0.478419 0.315448 0.124091 0.141374
H28   H     H_    0.493723 0.582847 0.104863 0.197927
H29   H     H_    0.826481 0.588843 0.746872 0.122268
H30   H     H_    0.979119 0.385044 0.249577 0.109964
H31   H     H_    0.013544 0.611660 0.762951 0.133208
H32   H     H_    0.485227 0.888556 0.285352 0.145722
N1    N     N_2   0.498860 0.498660 0.846770 -0.313493
N2    N     N_2   0.498840 0.498630 0.152900 -0.374519
O1    O     O_R   0.500020 0.321960 0.617050 -0.441298
O2    O     O_3   0.184324 0.385260 0.242419 -0.553756
O3    O     O_3   0.188601 0.615407 0.671385 -0.561305
O4    O     O_R   0.499980 0.321920 0.382890 -0.507230
O5    O     O_R   0.349010 0.500000 0.598060 -0.424237
O6    O     O_R   0.348980 0.499950 0.363910 -0.464674
O7    O     O_R   0.500020 0.678080 0.617110 -0.518042
O8    O     O_R   0.499980 0.678040 0.382950 -0.505133
O9    O     O_R   0.651020 0.500050 0.636090 -0.511536
O10   O     O_R   0.650990 0.500000 0.401940 -0.497611
O11   O     O_3   0.407168 0.318639 0.835845 -0.515214

loop_
_geom_bond_atom_site_label_1
_geom_bond_atom_site_label_2
_ccdc_geom_bond_type
Cu1   O7    S    
C23   C24   A    
C24   H1    S    
C15   H7    S    
C7    O10   A    
C22   H24   S    
C8    C25   A    
C25   H29   S    
Cu1   N1    S    
C10   C23   A    
C21   H22   S    
C19   H18   S    
Cu2   O10   S    
C20   H19   S    
C14   C15   S    
Cu1   O5    S    
C27   H32   S    
C2    H12   S    
C22   H26   S    
C4    O5    A    
C17   C18   S    
C26   H31   S    
C17   H13   S    
C7    C8    S    
C25   C26   A    
C21   C22   S    
H28   N2    S    
C3    N1    D    
C6    O7    A    
C3    O11   S    
C9    C11   A    
C12   C23   A    
Cu1   O1    S    
H23   N1    S    
C5    H27   S    
C16   H9    S    
C2    C29   D    
C20   O3    S    
C14   O11   S    
C18   H15   S    
Cu2   O6    S    
C8    C24   A    
C11   O2    S    
C28   H2    S    
C1    C2    S    
C7    O9    A    
C4    O6    A    
C20   H20   S    
C14   H5    S    
Cu1   Cu2   S    
Cu1   O9    S    
C19   H16   S    
Cu2   O8    S    
C10   H30   S    
C27   C29   S    
C10   C11   A    
C17   O2    S    
C15   C16   S    
C18   H14   S    
C3    C5    S    
C6    C28   S    
Cu2   O4    S    
C20   C21   S    
C6    O8    A    
C5    N2    D    
C18   C19   S    
C27   C28   D    
Cu2   N2    S    
C9    C13   A    
C17   H11   S    
C15   H6    S    
C22   H25   S    
C16   H8    S    
C12   C13   A    
C4    C9    S    
C19   H17   S    
C16   H10   S    
C14   H4    S    
C21   H21   S    
C1    O4    A    
C12   C26   A    
C29   H3    S    
C13   O3    S    
C1    O1    A    
