data_mof_unit_61360.cif
_audit_creation_date              2012-12-10T21:21:44-0500
_audit_creation_method            fapswitch 2.2
_symmetry_space_group_name_H-M    P1
_symmetry_Int_Tables_number       1
_space_group_crystal_system       triclinic
_cell_length_a                    17.549116
_cell_length_b                    16.731579
_cell_length_c                    23.451336
_cell_angle_alpha                 89.989702
_cell_angle_beta                  90.277403
_cell_angle_gamma                 89.999988
_cell_volume                      6885.80413119

loop_
_atom_site_label
_atom_site_type_symbol
_atom_type_description
_atom_site_fract_x
_atom_site_fract_y
_atom_site_fract_z
_atom_type_partial_charge
C1    C     C_R   0.353085 0.500000 0.499325 0.883869
C2    C     C_R   0.500784 0.427280 0.703012 -0.166051
C3    C     C_R   0.498689 0.427531 0.237791 -0.084763
C4    C     C_R   0.501101 0.427360 0.762191 -0.078180
C5    C     C_R   0.498704 0.500101 0.208312 0.274462
C6    C     C_R   0.501298 0.499898 0.791693 0.273856
C7    C     C_R   0.847383 0.572616 0.484292 -0.135599
C8    C     C_R   0.152477 0.427393 0.483616 -0.132415
C9    C     C_R   0.152476 0.572617 0.483624 -0.133419
C10   C     C_R   0.847384 0.427391 0.484294 -0.136350
C11   C     C_R   0.769007 0.572735 0.491358 -0.149793
C12   C     C_R   0.646915 0.500000 0.499505 0.889404
C13   C     C_R   0.230942 0.427270 0.490701 -0.143138
C14   C     C_R   0.230940 0.572736 0.490710 -0.144877
C15   C     C_R   0.769008 0.427269 0.491360 -0.151593
C16   C     C_R   0.729431 0.500001 0.494859 -0.061787
C17   C     C_R   0.270541 0.500002 0.494348 -0.066454
C18   C     C_R   0.885975 0.500004 0.480672 0.140030
C19   C     C_R   0.113826 0.500005 0.480078 0.138736
C20   C     C_R   0.499810 0.500008 0.389069 0.892801
C21   C     C_R   0.500190 0.499992 0.610932 0.896320
C22   C     C_1   0.966052 0.500006 0.477267 -0.026427
C23   C     C_R   0.498898 0.572639 0.237813 -0.079091
C24   C     C_1   0.033679 0.500006 0.477071 -0.025851
C25   C     C_R   0.451399 0.832337 0.463537 0.459584
C26   C     C_R   0.548584 0.167643 0.536439 0.459591
C27   C     C_R   0.548585 0.832339 0.536437 0.459858
C28   C     C_R   0.451398 0.167681 0.463538 0.459853
C29   C     C_R   0.452277 0.748069 0.464199 0.518920
C30   C     C_R   0.547718 0.251911 0.535792 0.520066
C31   C     C_R   0.547720 0.748071 0.535791 0.520521
C32   C     C_R   0.452276 0.251948 0.464199 0.519372
C33   C     C_R   0.499988 0.875594 0.499984 -0.375136
C34   C     C_R   0.501314 0.572468 0.762214 -0.083905
C35   C     C_R   0.499988 0.124406 0.499985 -0.375135
C36   C     C_1   0.499982 0.963444 0.499979 0.276716
C37   C     C_1   0.499982 0.036556 0.499980 0.276715
C38   C     C_R   0.565884 0.521922 0.880883 0.564257
C39   C     C_R   0.434118 0.478077 0.119123 0.563975
C40   C     C_R   0.436190 0.477906 0.880087 0.558870
C41   C     C_R   0.563812 0.522092 0.119918 0.558655
C42   C     C_R   0.434478 0.477374 0.939563 -0.078407
C43   C     C_R   0.565524 0.522624 0.060443 -0.078292
C44   C     C_R   0.500411 0.500021 0.970014 -0.090434
C45   C     C_R   0.499215 0.572719 0.296992 -0.167260
C46   C     C_R   0.499591 0.499977 0.029992 -0.090441
C47   C     C_R   0.567087 0.522694 0.940621 -0.153945
C48   C     C_R   0.432915 0.477304 0.059385 -0.153789
C49   C     C_R   0.368500 0.454957 0.969004 -0.218857
C50   C     C_R   0.631502 0.545041 0.031002 -0.219219
C51   C     C_R   0.367439 0.454817 0.028308 0.689247
C52   C     C_R   0.632563 0.545181 0.971698 0.689529
C53   C     C_R   0.501000 0.572615 0.703033 -0.163641
C54   C     C_R   0.499364 0.500035 0.326913 -0.069531
C55   C     C_R   0.500636 0.499964 0.673090 -0.070894
C56   C     C_R   0.499003 0.427384 0.296972 -0.164866
F1    F     F_    0.405097 0.707143 0.428808 -0.591276
F2    F     F_    0.403371 0.128712 0.427511 -0.557617
F3    F     F_    0.594908 0.292818 0.571185 -0.587942
F4    F     F_    0.594912 0.707147 0.571183 -0.586170
F5    F     F_    0.405095 0.292893 0.428810 -0.589530
F6    F     F_    0.302123 0.432558 0.054743 -0.581210
F7    F     F_    0.697879 0.567440 0.945263 -0.580781
F8    F     F_    0.403372 0.871325 0.427510 -0.558575
F9    F     F_    0.596605 0.128634 0.572458 -0.557447
F10   F     F_    0.596607 0.871329 0.572457 -0.556486
H1    H     H_    0.317313 0.437384 0.946248 0.225309
H2    H     H_    0.501237 0.371256 0.785227 0.159661
H3    H     H_    0.877900 0.628850 0.482132 0.156822
H4    H     H_    0.121931 0.371158 0.481477 0.157906
H5    H     H_    0.121927 0.628852 0.481493 0.157733
H6    H     H_    0.877902 0.371158 0.482136 0.156722
H7    H     H_    0.739536 0.629503 0.493847 0.192954
H8    H     H_    0.260443 0.370500 0.493179 0.196771
H9    H     H_    0.260440 0.629505 0.493194 0.196540
H10   H     H_    0.739538 0.370499 0.493851 0.192723
H11   H     H_    0.682689 0.562613 0.053758 0.225135
H12   H     H_    0.498762 0.628743 0.214778 0.159453
H13   H     H_    0.501321 0.628546 0.785266 0.160220
H14   H     H_    0.499369 0.629471 0.319206 0.197441
H15   H     H_    0.500956 0.629390 0.680835 0.197893
H16   H     H_    0.499048 0.370610 0.319170 0.197741
H17   H     H_    0.500628 0.370528 0.680799 0.197593
H18   H     H_    0.498683 0.371452 0.214739 0.160021
N1    N     N_R   0.501143 0.499872 0.852350 -0.369792
N2    N     N_R   0.498858 0.500127 0.147655 -0.369678
N3    N     N_R   0.500000 0.707230 0.500000 -0.260621
N4    N     N_R   0.500000 0.292770 0.500000 -0.260616
O1    O     O_R   0.389110 0.566570 0.500000 -0.585652
O2    O     O_2   0.371351 0.457562 0.148748 -0.438362
O3    O     O_2   0.373448 0.457177 0.850008 -0.533521
O4    O     O_2   0.626554 0.542819 0.149998 -0.534354
O5    O     O_R   0.610890 0.433430 0.500000 -0.585320
O6    O     O_R   0.610890 0.566570 0.500000 -0.584870
O7    O     O_R   0.389110 0.433430 0.500000 -0.585207
O8    O     O_R   0.499970 0.566560 0.416150 -0.585147
O9    O     O_R   0.500030 0.433440 0.583850 -0.584012
O10   O     O_R   0.500030 0.566560 0.583850 -0.584261
O11   O     O_R   0.499970 0.433440 0.416150 -0.585392
O12   O     O_2   0.628650 0.542438 0.851257 -0.437268
Zn1   Zn    Zn3+2 0.500000 0.588860 0.500000 1.063399
Zn2   Zn    Zn3+2 0.500000 0.411140 0.500000 1.063399

loop_
_geom_bond_atom_site_label_1
_geom_bond_atom_site_label_2
_ccdc_geom_bond_type
C31   F4    S    
C8    C13   A    
C23   C45   A    
C27   C33   A    
C7    C11   A    
C41   N2    A    
C6    N1    S    
C36   C37   T    
C35   C37   S    
C32   F5    S    
C2    C55   A    
C15   C16   A    
C32   N4    A    
C33   C36   S    
C53   H15   S    
C3    C56   A    
N3    Zn1   S    
C9    C19   A    
C48   C51   A    
C12   C16   S    
O6    Zn1   S    
C49   C51   A    
C50   C52   A    
C39   O2    S    
O9    Zn2   S    
C44   C47   A    
C40   C42   A    
C15   H10   S    
C20   O8    A    
C23   H12   S    
O8    Zn1   S    
C41   C43   A    
C14   C17   A    
C12   O6    A    
C2    H17   S    
C51   F6    S    
C42   C44   A    
C44   C46   A    
C54   C56   A    
C53   C55   A    
C25   C29   A    
C46   C48   A    
C8    C19   A    
C31   N3    A    
C38   N1    A    
C27   C31   A    
C28   C32   A    
C28   C35   A    
C20   C54   S    
C11   H7    S    
C21   C55   S    
C6    C34   A    
C25   F8    S    
C40   N1    A    
C2    C4    A    
C9    C14   A    
C34   H13   S    
C21   O9    A    
C11   C16   A    
C5    C23   A    
C1    O7    A    
C7    C18   A    
C30   F3    S    
C41   O4    S    
C38   C47   A    
C5    N2    S    
C4    C6    A    
C29   F1    S    
C45   C54   A    
C26   C30   A    
C22   C24   T    
C12   O5    A    
C30   N4    A    
C50   H11   S    
C4    H2    S    
C1    O1    A    
C49   H1    S    
O1    Zn1   S    
C18   C22   S    
C26   F9    S    
C8    H4    S    
C9    H5    S    
C3    C5    A    
C52   F7    S    
O5    Zn2   S    
C7    H3    S    
N4    Zn2   S    
O7    Zn2   S    
C43   C50   A    
C56   H16   S    
C47   C52   A    
C28   F2    S    
O10   Zn1   S    
C1    C17   S    
C13   C17   A    
C10   C15   A    
C14   H9    S    
C19   C24   S    
C27   F10   S    
C21   O10   A    
C38   O12   S    
C20   O11   A    
C10   C18   A    
C45   H14   S    
C40   O3    S    
C43   C46   A    
C29   N3    A    
C42   C49   A    
C26   C35   A    
O11   Zn2   S    
C13   H8    S    
C34   C53   A    
C3    H18   S    
C39   N2    A    
C25   C33   A    
C39   C48   A    
C10   H6    S    
