data_mof_unit_60085.cif
_audit_creation_date              2012-12-10T18:36:46-0500
_audit_creation_method            fapswitch 2.2
_symmetry_space_group_name_H-M    P1
_symmetry_Int_Tables_number       1
_space_group_crystal_system       triclinic
_cell_length_a                    30.130472
_cell_length_b                    21.325405
_cell_length_c                    21.32513
_cell_angle_alpha                 89.930806
_cell_angle_beta                  134.934856
_cell_angle_gamma                 89.961599
_cell_volume                      9700.00174235

loop_
_atom_site_label
_atom_site_type_symbol
_atom_type_description
_atom_site_fract_x
_atom_site_fract_y
_atom_site_fract_z
_atom_type_partial_charge
C1    C     C_R   0.121651 0.500186 0.121638 0.928151
C2    C     C_R   0.621651 0.000187 0.121638 0.928187
C3    C     C_3   0.940236 0.729368 0.939005 -0.310919
C4    C     C_3   0.939968 0.270956 0.939282 -0.314702
C5    C     C_3   0.440236 0.229368 0.939005 -0.310851
C6    C     C_3   0.439968 0.770956 0.939280 -0.314723
C7    C     C_3   0.000328 0.689152 0.000300 -0.116188
C8    C     C_3   0.000109 0.310853 0.000291 -0.110597
C9    C     C_3   0.500328 0.189152 0.000300 -0.116136
C10   C     C_3   0.500109 0.810853 0.000291 -0.110587
C11   C     C_3   0.229596 0.444229 0.208482 -0.330957
C12   C     C_3   0.229483 0.547461 0.192422 -0.334394
C13   C     C_3   0.729596 0.944229 0.208481 -0.331065
C14   C     C_3   0.729483 0.047462 0.192424 -0.334557
C15   C     C_3   0.270482 0.491479 0.213368 0.643350
C16   C     C_3   0.770482 0.991480 0.213368 0.643289
C17   C     C_3   0.310926 0.500352 0.311893 -0.146501
C18   C     C_3   0.810926 0.000352 0.311894 -0.146498
C19   C     C_3   0.270683 0.453572 0.308820 -0.268370
C20   C     C_3   0.270543 0.556232 0.292755 -0.298562
C21   C     C_3   0.770683 0.953571 0.308820 -0.268230
C22   C     C_3   0.770543 0.056232 0.292757 -0.298302
C23   C     C_3   0.229450 0.509250 0.287833 0.758872
C24   C     C_3   0.729450 0.009249 0.287834 0.759277
C25   C     C_3   0.189145 0.500328 0.189144 -0.170613
C26   C     C_3   0.689145 0.000328 0.189144 -0.170833
C27   C     C_3   0.770841 0.551057 0.740034 -0.214432
C28   C     C_3   0.771060 0.447271 0.742771 -0.225624
C29   C     C_3   0.270841 0.051066 0.740048 -0.214329
C30   C     C_3   0.271060 0.947279 0.742755 -0.225468
C31   C     C_3   0.729320 0.498483 0.670429 -0.278793
C32   C     C_3   0.229320 0.998501 0.670428 -0.278715
C33   C     C_R   0.000376 0.621639 0.000367 0.906667
C34   C     C_R   0.000312 0.378361 0.000372 0.903319
C35   C     C_R   0.500376 0.121639 0.000367 0.906668
C36   C     C_R   0.500312 0.878361 0.000372 0.903317
C37   C     C_3   0.689214 0.499873 0.690266 -0.129297
C38   C     C_3   0.189214 0.999873 0.690265 -0.129284
C39   C     C_3   0.730329 0.551228 0.759273 0.554896
C40   C     C_3   0.730512 0.449865 0.761921 0.552289
C41   C     C_3   0.230329 0.051219 0.759287 0.554842
C42   C     C_3   0.230512 0.949856 0.761906 0.552097
C43   C     C_3   0.771136 0.501253 0.832305 -0.354876
C44   C     C_3   0.271136 0.001236 0.832305 -0.355241
C45   C     C_3   0.811003 0.499864 0.811553 -0.117346
C46   C     C_3   0.311003 0.999864 0.811553 -0.117176
C47   C     C_R   0.000115 0.000090 0.878561 0.917794
C48   C     C_R   0.500113 0.500095 0.878560 0.917788
C49   C     C_R   0.000112 0.878381 0.000004 0.921150
C50   C     C_R   0.999994 0.121620 0.999988 0.927244
C51   C     C_R   0.500112 0.378381 0.000004 0.921140
C52   C     C_R   0.499995 0.621620 0.999988 0.927233
C53   C     C_R   0.999923 0.000369 0.121661 0.916876
C54   C     C_R   0.499923 0.500369 0.121661 0.916872
C55   C     C_R   0.500042 0.500076 0.378431 0.888987
C56   C     C_R   0.000042 0.000076 0.378431 0.888980
C57   C     C_R   0.378380 0.500086 0.378747 0.960854
C58   C     C_R   0.878380 0.000086 0.378747 0.961095
C59   C     C_R   0.500219 0.500024 0.621902 0.969594
C60   C     C_R   0.000231 0.000023 0.621914 0.969440
C61   C     C_R   0.878395 0.499940 0.878501 0.893832
C62   C     C_R   0.378395 0.999940 0.878501 0.893804
C63   C     C_R   0.621647 0.499949 0.622587 0.922589
C64   C     C_R   0.121647 0.999949 0.622586 0.922237
C65   C     C_3   0.954644 0.038754 0.725621 -0.196750
C66   C     C_3   0.056618 0.020568 0.827441 -0.200161
C67   C     C_3   0.454152 0.538186 0.725132 -0.196783
C68   C     C_3   0.556342 0.521277 0.827162 -0.200149
C69   C     C_3   0.510045 0.559153 0.739590 -0.316600
C70   C     C_3   0.010799 0.059021 0.740342 -0.316404
C71   C     C_3   0.500494 0.500328 0.689639 -0.204449
C72   C     C_3   0.000518 0.000322 0.689663 -0.204544
C73   C     C_3   0.445612 0.479510 0.675557 0.644243
C74   C     C_3   0.545874 0.462977 0.775695 0.645054
C75   C     C_3   0.945376 0.980190 0.675315 0.644374
C76   C     C_3   0.045426 0.962407 0.775252 0.644855
C77   C     C_3   0.990023 0.941068 0.761087 -0.317321
C78   C     C_3   0.490748 0.440947 0.761813 -0.317239
C79   C     C_3   0.000368 0.000061 0.811346 -0.151905
C80   C     C_3   0.500359 0.500068 0.811337 -0.151968
C81   C     C_3   0.991530 0.941326 0.220982 -0.219786
C82   C     C_3   0.055307 0.022562 0.284645 -0.233267
C83   C     C_3   0.491532 0.441325 0.220983 -0.219783
C84   C     C_3   0.555306 0.522563 0.284645 -0.233269
C85   C     C_3   0.546879 0.463522 0.317594 -0.137950
C86   C     C_3   0.046878 0.963521 0.317593 -0.137947
C87   C     C_3   0.499920 0.500386 0.310783 -0.036917
C88   C     C_3   0.999920 0.000386 0.310783 -0.036917
C89   C     C_3   0.031052 0.729197 0.979525 -0.178592
C90   C     C_3   0.030508 0.270763 0.979034 -0.184458
C91   C     C_3   0.531052 0.229197 0.979526 -0.178721
C92   C     C_3   0.530510 0.770763 0.979038 -0.184472
C93   C     C_3   0.444383 0.477849 0.215400 -0.241588
C94   C     C_3   0.508645 0.559783 0.279365 -0.263301
C95   C     C_3   0.944383 0.977850 0.215400 -0.241595
C96   C     C_3   0.008646 0.059783 0.279367 -0.263292
C97   C     C_3   0.954008 0.036552 0.184333 0.598339
C98   C     C_3   0.454007 0.536551 0.184332 0.598339
C99   C     C_3   0.999953 0.000389 0.189238 -0.050040
C100  C     C_3   0.499953 0.500389 0.189238 -0.050037
C101  C     C_3   0.971331 0.770783 0.918920 -0.168826
C102  C     C_3   0.970750 0.229491 0.918719 -0.173855
C103  C     C_3   0.471331 0.270783 0.918921 -0.168885
C104  C     C_3   0.470752 0.729491 0.918720 -0.173882
C105  C     C_3   0.000532 0.810911 0.000146 -0.114483
C106  C     C_3   0.000198 0.189089 0.000033 -0.112110
C107  C     C_3   0.500532 0.310911 0.000146 -0.114497
C108  C     C_3   0.500198 0.689089 0.000033 -0.112095
C109  C     C_3   0.060645 0.770622 0.060828 -0.326226
C110  C     C_3   0.060342 0.229090 0.060424 -0.328042
C111  C     C_3   0.560645 0.270622 0.060828 -0.326230
C112  C     C_3   0.560342 0.729090 0.060427 -0.328053
C113  C     C_3   0.029374 0.730176 0.080433 0.491420
C114  C     C_3   0.029381 0.269567 0.080501 0.489489
C115  C     C_3   0.529374 0.230176 0.080433 0.491416
C116  C     C_3   0.529379 0.769567 0.080501 0.489505
C117  C     C_3   0.970039 0.770192 0.020200 0.499281
C118  C     C_3   0.970009 0.229840 0.020558 0.494978
C119  C     C_3   0.470039 0.270191 0.020200 0.499285
C120  C     C_3   0.470007 0.729840 0.020555 0.494990
H1    H     H_    0.948093 0.789759 0.853141 0.160240
H2    H     H_    0.947247 0.210747 0.852810 0.154483
H3    H     H_    0.448094 0.289759 0.853141 0.160345
H4    H     H_    0.447251 0.710747 0.852812 0.154500
H5    H     H_    0.710287 0.497362 0.602992 0.162050
H6    H     H_    0.210287 0.997393 0.602991 0.162034
H7    H     H_    0.789543 0.592542 0.733432 0.145189
H8    H     H_    0.789957 0.404666 0.738416 0.144427
H9    H     H_    0.289543 0.092559 0.733459 0.145171
H10   H     H_    0.289957 0.904682 0.738388 0.144389
H11   H     H_    0.789403 0.502373 0.899267 0.165826
H12   H     H_    0.289403 0.002341 0.899267 0.165690
H13   H     H_    0.517961 0.607271 0.729249 0.197976
H14   H     H_    0.019320 0.107033 0.730603 0.197998
H15   H     H_    0.917001 0.069691 0.706475 0.169975
H16   H     H_    0.102572 0.036684 0.891577 0.173757
H17   H     H_    0.416128 0.568654 0.705604 0.170393
H18   H     H_    0.602088 0.537966 0.891094 0.173596
H19   H     H_    0.981587 0.893081 0.771028 0.162365
H20   H     H_    0.482913 0.392859 0.772357 0.162297
H21   H     H_    0.585109 0.433514 0.374560 0.141229
H22   H     H_    0.085107 0.933512 0.374558 0.141228
H23   H     H_    0.055693 0.710337 0.962316 0.169209
H24   H     H_    0.054953 0.289577 0.961496 0.163918
H25   H     H_    0.555693 0.210337 0.962316 0.169153
H26   H     H_    0.554957 0.789577 0.961503 0.163913
H27   H     H_    0.985026 0.893260 0.195636 0.172449
H28   H     H_    0.100511 0.040424 0.311199 0.163149
H29   H     H_    0.485028 0.393260 0.195639 0.172449
H30   H     H_    0.600510 0.540427 0.311198 0.163145
H31   H     H_    0.399276 0.459959 0.189111 0.175803
H32   H     H_    0.515471 0.608042 0.304375 0.155447
H33   H     H_    0.899275 0.959961 0.189110 0.175801
H34   H     H_    0.015474 0.108041 0.304378 0.155452
H35   H     H_    0.109315 0.788953 0.109546 0.173398
H36   H     H_    0.109013 0.210551 0.108888 0.171712
H37   H     H_    0.609315 0.288953 0.109546 0.173405
H38   H     H_    0.609013 0.710551 0.108893 0.171706
H39   H     H_    0.891786 0.710494 0.889559 0.140279
H40   H     H_    0.891529 0.290091 0.890120 0.140238
H41   H     H_    0.391786 0.210494 0.889559 0.140286
H42   H     H_    0.391530 0.790092 0.890117 0.140228
H43   H     H_    0.211179 0.399079 0.172022 0.164156
H44   H     H_    0.211003 0.585219 0.143182 0.164395
H45   H     H_    0.711179 0.899080 0.172020 0.164172
H46   H     H_    0.711003 0.085220 0.143184 0.164422
H47   H     H_    0.289045 0.416223 0.358511 0.201207
H48   H     H_    0.288641 0.601268 0.329487 0.185535
H49   H     H_    0.789045 0.916222 0.358509 0.201036
H50   H     H_    0.788641 0.101267 0.329490 0.185634
O1    O     O_R   0.093030 0.500000 0.145540 -0.554583
O2    O     O_R   0.593030 0.000000 0.145540 -0.554606
O3    O     O_R   0.052520 0.906980 0.052620 -0.638407
O4    O     O_R   0.052520 0.093020 0.052620 -0.643312
O5    O     O_R   0.552520 0.406980 0.052620 -0.638406
O6    O     O_R   0.552520 0.593020 0.052620 -0.643327
O7    O     O_R   0.947460 0.000000 0.040550 -0.574900
O8    O     O_R   0.447460 0.500000 0.040550 -0.574898
O9    O     O_R   0.052490 0.000000 0.145610 -0.645663
O10   O     O_R   0.552490 0.500000 0.145610 -0.645660
O11   O     O_R   0.499990 0.552490 0.407030 -0.638956
O12   O     O_R   0.499990 0.447510 0.407030 -0.626001
O13   O     O_R   0.999990 0.052490 0.407030 -0.638961
O14   O     O_R   0.999990 0.947510 0.407030 -0.625993
O15   O     O_R   0.406970 0.552510 0.407040 -0.635663
O16   O     O_R   0.406970 0.447490 0.407040 -0.616973
O17   O     O_R   0.906970 0.052510 0.407040 -0.635554
O18   O     O_R   0.906970 0.947490 0.407040 -0.617137
O19   O     O_R   0.500000 0.552540 0.593090 -0.633152
O20   O     O_R   0.500000 0.447460 0.593090 -0.583074
O21   O     O_R   0.000000 0.052540 0.593090 -0.633014
O22   O     O_R   0.000000 0.947460 0.593090 -0.583015
O23   O     O_R   0.593020 0.552520 0.593090 -0.596948
O24   O     O_R   0.593020 0.447480 0.593090 -0.591534
O25   O     O_R   0.093020 0.052520 0.593090 -0.596993
O26   O     O_R   0.093020 0.947480 0.593090 -0.591439
O27   O     O_R   0.093020 0.500000 0.040510 -0.646122
O28   O     O_R   0.593020 0.000000 0.040510 -0.646103
O29   O     O_R   0.999990 0.593020 0.052510 -0.591276
O30   O     O_R   0.999990 0.406980 0.052510 -0.594459
O31   O     O_R   0.499990 0.093020 0.052510 -0.591279
O32   O     O_R   0.499990 0.906980 0.052510 -0.594460
O33   O     O_R   0.999990 0.593020 0.947470 -0.634813
O34   O     O_R   0.999990 0.406980 0.947470 -0.635818
O35   O     O_R   0.499990 0.093020 0.947470 -0.634813
O36   O     O_R   0.499990 0.906980 0.947470 -0.635823
O37   O     O_R   0.906980 0.500000 0.959490 -0.646108
O38   O     O_R   0.406980 0.000000 0.959490 -0.646101
O39   O     O_R   0.906970 0.500000 0.854460 -0.618199
O40   O     O_R   0.406970 0.000000 0.854460 -0.618220
O41   O     O_R   0.947510 0.000000 0.854550 -0.626722
O42   O     O_R   0.447510 0.500000 0.854550 -0.626868
O43   O     O_R   0.052540 0.000000 0.959610 -0.626353
O44   O     O_R   0.552540 0.500000 0.959610 -0.626217
O45   O     O_R   0.947490 0.906970 0.947560 -0.603536
O46   O     O_R   0.947490 0.093030 0.947560 -0.597157
O47   O     O_R   0.447490 0.406970 0.947560 -0.603491
O48   O     O_R   0.447490 0.593030 0.947560 -0.597176
Zn1   Zn    Zn3+2 0.000000 0.500000 0.070130 1.033449
Zn2   Zn    Zn3+2 0.500000 0.000000 0.070130 1.033430
Zn3   Zn    Zn3+2 0.000000 0.500000 0.929870 0.943801
Zn4   Zn    Zn3+2 0.500000 0.000000 0.929870 0.943772
Zn5   Zn    Zn3+2 0.929870 0.000000 0.929930 1.028661
Zn6   Zn    Zn3+2 0.429870 0.500000 0.929930 1.028568
Zn7   Zn    Zn3+2 0.070130 0.000000 0.070230 0.945880
Zn8   Zn    Zn3+2 0.570130 0.500000 0.070230 0.946000
Zn9   Zn    Zn3+2 0.499990 0.570130 0.500050 0.984436
Zn10  Zn    Zn3+2 0.499990 0.429870 0.500050 1.034458
Zn11  Zn    Zn3+2 0.999990 0.070130 0.500050 0.984540
Zn12  Zn    Zn3+2 0.999990 0.929870 0.500050 1.034492
F1    F     F_    0.206644 0.518582 0.325050 -0.621003
F2    F     F_    0.706644 0.018580 0.325051 -0.620679
O49   O     O_3   0.704408 0.604638 0.762632 -0.579456
C121  C     C_3   0.753213 0.644382 0.831117 -0.308560
H51   H     H_    0.780801 0.662099 0.818114 0.146699
H52   H     H_    0.784485 0.620614 0.896711 0.155641
H53   H     H_    0.732276 0.685631 0.834025 0.195155
O50   O     O_3   0.704695 0.397914 0.767923 -0.557425
C122  C     C_3   0.753581 0.359003 0.838363 -0.248949
H54   H     H_    0.784826 0.384249 0.902726 0.150543
H55   H     H_    0.781181 0.339382 0.826252 0.127627
H56   H     H_    0.732732 0.318945 0.843335 0.201204
O51   O     O_3   0.204407 0.104621 0.762661 -0.579600
C123  C     C_3   0.253212 0.144360 0.831157 -0.308786
H57   H     H_    0.280799 0.162089 0.818157 0.146798
H58   H     H_    0.284485 0.120582 0.896744 0.155627
H59   H     H_    0.232275 0.185601 0.834077 0.195150
O52   O     O_3   0.204695 0.897895 0.767894 -0.557579
C124  C     C_3   0.253582 0.858977 0.838319 -0.249260
H60   H     H_    0.284831 0.884212 0.902691 0.150423
H61   H     H_    0.281177 0.839365 0.826196 0.127765
H62   H     H_    0.232734 0.818913 0.843283 0.201336
F3    F     F_    0.388917 0.458425 0.595790 -0.646844
F4    F     F_    0.592975 0.424755 0.799681 -0.636757
F5    F     F_    0.888423 0.959816 0.595282 -0.646719
F6    F     F_    0.092053 0.923601 0.798778 -0.636646
O53   O     O_3   0.906073 0.073927 0.110218 -0.576863
C125  C     C_3   0.872270 0.103319 0.125013 -0.296777
H63   H     H_    0.902279 0.136971 0.181005 0.154868
H64   H     H_    0.851381 0.068500 0.136878 0.180370
H65   H     H_    0.833116 0.130365 0.064827 0.190704
O54   O     O_3   0.406071 0.573925 0.110216 -0.576864
C126  C     C_3   0.372269 0.603317 0.125011 -0.296758
H66   H     H_    0.402277 0.636970 0.181001 0.154859
H67   H     H_    0.351380 0.568497 0.136878 0.180372
H68   H     H_    0.333113 0.630361 0.064824 0.190717
O55   O     O_3   0.058193 0.704073 0.162793 -0.590646
C127  C     C_3   0.087289 0.752054 0.226512 -0.281031
H69   H     H_    0.053601 0.789673 0.206094 0.174575
H70   H     H_    0.127616 0.772110 0.240585 0.157080
H71   H     H_    0.105886 0.731569 0.289152 0.199917
O56   O     O_3   0.058531 0.295399 0.163021 -0.595479
C128  C     C_3   0.087558 0.247152 0.226653 -0.289089
H72   H     H_    0.127575 0.226615 0.240225 0.158235
H73   H     H_    0.053717 0.209921 0.206466 0.184757
H74   H     H_    0.106591 0.267495 0.289519 0.199148
O57   O     O_3   0.558193 0.204073 0.162793 -0.590648
C129  C     C_3   0.587288 0.252054 0.226512 -0.280944
H75   H     H_    0.553601 0.289673 0.206094 0.174552
H76   H     H_    0.627616 0.272110 0.240585 0.157092
H77   H     H_    0.605886 0.231569 0.289152 0.199946
O58   O     O_3   0.558527 0.795399 0.163019 -0.595477
C130  C     C_3   0.587553 0.747151 0.226651 -0.289167
H78   H     H_    0.627570 0.726614 0.240225 0.158221
H79   H     H_    0.553711 0.709921 0.206462 0.184774
H80   H     H_    0.606584 0.767495 0.289517 0.199127
O59   O     O_3   0.939934 0.797153 0.042537 -0.622808
C131  C     C_3   0.908514 0.749969 0.044986 -0.319913
H81   H     H_    0.940729 0.711334 0.091171 0.197566
H82   H     H_    0.868370 0.731210 0.977585 0.154014
H83   H     H_    0.889315 0.770877 0.069402 0.191779
O60   O     O_3   0.940164 0.202994 0.043369 -0.590788
C132  C     C_3   0.908874 0.250323 0.045952 -0.277094
H84   H     H_    0.868315 0.268852 0.978441 0.142428
H85   H     H_    0.941000 0.289097 0.091387 0.185273
H86   H     H_    0.890307 0.229682 0.071384 0.191430
O61   O     O_3   0.439934 0.297153 0.042537 -0.622798
C133  C     C_3   0.408514 0.249969 0.044985 -0.319951
H87   H     H_    0.440729 0.211334 0.091171 0.197562
H88   H     H_    0.368370 0.231210 0.977585 0.154019
H89   H     H_    0.389315 0.270877 0.069402 0.191776
O62   O     O_3   0.440160 0.702994 0.043363 -0.590785
C134  C     C_3   0.408869 0.750323 0.045943 -0.277116
H90   H     H_    0.368311 0.768851 0.978432 0.142435
H91   H     H_    0.440994 0.789097 0.091379 0.185265
H92   H     H_    0.390299 0.729681 0.071373 0.191431
O63   O     O_3   0.297836 0.482094 0.181187 -0.633109
C135  C     C_3   0.250119 0.477132 0.088241 -0.342877
H93   H     H_    0.222919 0.521511 0.057254 0.169335
H94   H     H_    0.218386 0.437052 0.066697 0.174775
H95   H     H_    0.272165 0.468320 0.063964 0.192470
O64   O     O_3   0.797836 0.982097 0.181188 -0.633113
C136  C     C_3   0.750119 0.977135 0.088241 -0.342841
H96   H     H_    0.722919 0.021514 0.057255 0.169324
H97   H     H_    0.718387 0.937054 0.066697 0.174779
H98   H     H_    0.772165 0.968324 0.063964 0.192457

loop_
_geom_bond_atom_site_label_1
_geom_bond_atom_site_label_2
_ccdc_geom_bond_type
C18   C21   S    
C108  C120  S    
C68   H18   S    
C103  H3    S    
C49   O3    A    
C134  H91   S    
C53   C99   S    
C66   C79   S    
O58   C130  S    
C112  H38   S    
C5    C119  S    
C46   C62   S    
C81   C95   S    
C86   C88   S    
C28   C40   S    
C94   H32   S    
C83   C93   S    
C64   O25   A    
C128  H74   S    
C123  H57   S    
O25   Zn11  S    
C11   C15   S    
C18   C58   S    
C40   C43   S    
C96   H34   S    
C48   O42   A    
O56   C128  S    
C81   H27   S    
C4    C102  S    
C6    C104  S    
C57   O15   A    
C81   C86   S    
C135  H95   S    
C8    C114  S    
C88   C95   S    
C106  C118  S    
C7    C33   S    
O19   Zn9   S    
C121  H52   S    
C62   O38   A    
C37   C63   S    
C44   C46   S    
C38   C64   S    
C77   C79   S    
C27   C31   S    
C84   C100  S    
C131  H83   S    
C71   C73   S    
C35   O31   A    
C56   O14   A    
C89   H23   S    
C1    O1    A    
C54   O8    A    
C95   H33   S    
C121  H53   S    
C5    H41   S    
C19   C23   S    
C113  O55   S    
C134  H90   S    
C87   C93   S    
C66   C76   S    
C12   C20   S    
C13   C21   S    
C2    C26   S    
C36   O36   A    
C14   C26   S    
C22   H50   S    
C66   H16   S    
O26   Zn12  S    
C83   C100  S    
C33   O29   A    
C59   O19   A    
C44   H12   S    
C133  H87   S    
C126  H67   S    
C89   C101  S    
C110  H36   S    
C91   C103  S    
C53   O7    A    
C95   C97   S    
C132  H86   S    
O6    Zn8   S    
C49   O45   A    
C123  H59   S    
C43   H11   S    
O3    Zn7   S    
C66   C70   S    
C92   C104  S    
O17   Zn11  S    
C34   O30   A    
C51   C107  S    
C21   C24   S    
C70   H14   S    
C60   C72   S    
C103  C107  S    
C23   F1    S    
C5    C103  S    
O40   Zn4   S    
C47   O41   A    
O34   Zn3   S    
O11   Zn9   S    
C42   O52   S    
C124  H60   S    
O5    Zn8   S    
O20   Zn10  S    
O4    Zn7   S    
C24   C26   S    
C37   C40   S    
O27   Zn3   S    
C78   C80   S    
C56   C88   S    
C11   C25   S    
C68   C74   S    
C65   C70   S    
O64   C136  S    
O53   C125  S    
C32   H6    S    
C90   C102  S    
C40   O50   S    
C29   H9    S    
C34   O34   A    
C14   H46   S    
O49   C121  S    
C110  C114  S    
O2    Zn2   S    
O21   Zn11  S    
C3    C101  S    
O57   C129  S    
C130  H80   S    
C3    H39   S    
C72   C75   S    
C53   O9    A    
C135  H94   S    
C54   C100  S    
C92   H26   S    
O29   Zn1   S    
O23   Zn9   S    
C38   C41   S    
C85   H21   S    
C116  C120  S    
C131  H82   S    
C5    C9    S    
C132  H84   S    
C75   C77   S    
C98   O54   S    
C20   C23   S    
C60   O22   A    
C11   H43   S    
C62   O40   A    
C63   O24   A    
C122  H55   S    
C8    C34   S    
C43   C45   S    
C113  C117  S    
C115  C119  S    
C13   C26   S    
C31   H5    S    
C91   H25   S    
C10   C116  S    
C50   C106  S    
O42   Zn6   S    
O13   Zn11  S    
C124  H62   S    
C29   C41   S    
C58   O17   A    
C18   C22   S    
C107  C111  S    
C30   C46   S    
C1    O27   A    
C114  O56   S    
C82   H28   S    
O55   C127  S    
O54   C126  S    
C104  H4    S    
C14   C22   S    
C125  H63   S    
O12   Zn10  S    
O36   Zn4   S    
C21   H49   S    
C64   O26   A    
O10   Zn8   S    
C128  H73   S    
C55   O12   A    
C123  H58   S    
C129  H76   S    
C55   C87   S    
C76   F6    S    
O43   Zn7   S    
C13   C16   S    
C130  H78   S    
C129  H75   S    
O1    Zn1   S    
C2    O2    A    
C88   C96   S    
O38   Zn2   S    
C4    C118  S    
O39   Zn3   S    
C82   C99   S    
C116  O58   S    
C122  H54   S    
C112  C116  S    
C118  O60   S    
C16   O64   S    
C126  H66   S    
C51   O47   A    
O22   Zn12  S    
C11   C19   S    
C19   H47   S    
C41   O51   S    
C65   C79   S    
C29   C32   S    
C3    C7    S    
C94   C98   S    
O51   C123  S    
O15   Zn9   S    
O35   Zn4   S    
C17   C20   S    
O24   Zn10  S    
C105  C109  S    
C3    C117  S    
C27   H7    S    
C68   C69   S    
C129  H77   S    
C67   C73   S    
C117  O59   S    
C52   O6    A    
C4    C8    S    
C27   C45   S    
C10   C92   S    
C105  C117  S    
C133  H88   S    
C119  O61   S    
O18   Zn12  S    
C107  C119  S    
C134  H92   S    
C48   O44   A    
O63   C135  S    
C9    C115  S    
C84   C85   S    
C92   C112  S    
C49   C105  S    
C30   H10   S    
C101  H1    S    
C108  C112  S    
C133  H89   S    
O9    Zn7   S    
C12   H44   S    
C13   H45   S    
O59   C131  S    
C12   C15   S    
C50   O46   A    
C84   C94   S    
O7    Zn5   S    
C51   O5    A    
C57   O16   A    
C61   O37   A    
C73   F3    S    
C83   C85   S    
C98   C100  S    
C41   C44   S    
C22   C24   S    
C93   H31   S    
C121  H51   S    
C104  C108  S    
O52   C124  S    
C86   H22   S    
C39   O49   S    
C15   C17   S    
O50   C122  S    
C75   F5    S    
C28   C31   S    
C67   C80   S    
C77   H19   S    
O31   Zn2   S    
C24   F2    S    
C78   H20   S    
C6    C10   S    
C71   C74   S    
O48   Zn6   S    
C56   O13   A    
C15   O63   S    
C81   C99   S    
C52   O48   A    
C29   C46   S    
C111  H37   S    
O46   Zn5   S    
O14   Zn12  S    
C37   C39   S    
C82   C86   S    
C48   C80   S    
C136  H96   S    
C47   O43   A    
C45   C61   S    
C33   O33   A    
C109  H35   S    
C136  H97   S    
C31   C37   S    
O16   Zn10  S    
C127  H69   S    
C74   C78   S    
C9    C35   S    
O30   Zn1   S    
C30   C42   S    
C59   O20   A    
C10   C36   S    
C102  H2    S    
C28   H8    S    
C17   C57   S    
C83   H29   S    
C84   H30   S    
C68   C80   S    
C126  H68   S    
C42   C44   S    
C130  H79   S    
O61   C133  S    
C47   C79   S    
C72   C76   S    
C9    C91   S    
C97   O53   S    
O60   C132  S    
O28   Zn4   S    
C38   C42   S    
C65   H15   S    
O32   Zn2   S    
C7    C89   S    
C89   C109  S    
O33   Zn3   S    
C91   C111  S    
C69   C71   S    
C35   O35   A    
C6    H42   S    
C27   C39   S    
C73   C78   S    
C63   O23   A    
C32   C38   S    
C109  C113  S    
C87   C94   S    
C115  O57   S    
O47   Zn6   S    
O41   Zn5   S    
C1    C25   S    
O8    Zn6   S    
C36   O32   A    
C67   H17   S    
C6    C120  S    
C97   C99   S    
C85   C87   S    
C101  C105  S    
C20   H48   S    
C28   C45   S    
C124  H61   S    
C82   C96   S    
C58   O18   A    
C76   C77   S    
C136  H98   S    
C39   C43   S    
C67   C69   S    
C61   O39   A    
C125  H64   S    
C127  H71   S    
C96   C97   S    
C128  H72   S    
C55   O11   A    
C74   F4    S    
C114  C118  S    
C14   C16   S    
C125  H65   S    
C8    C90   S    
C90   C110  S    
C135  H93   S    
C106  C110  S    
O62   C134  S    
C69   H13   S    
C2    O28   A    
C127  H70   S    
O45   Zn5   S    
C70   C72   S    
O37   Zn1   S    
C65   C75   S    
C12   C25   S    
C50   O4    A    
C131  H81   S    
C7    C113  S    
C132  H85   S    
C30   C32   S    
C120  O62   S    
C4    H40   S    
C60   O21   A    
C17   C19   S    
C54   O10   A    
C102  C106  S    
C122  H56   S    
C23   C25   S    
O44   Zn8   S    
C90   H24   S    
C52   C108  S    
C16   C18   S    
C111  C115  S    
C93   C98   S    
C59   C71   S    
