data_mof_unit_34187.cif
_audit_creation_date              2012-12-11T17:25:07-0500
_audit_creation_method            fapswitch 2.2
_symmetry_space_group_name_H-M    P1
_symmetry_Int_Tables_number       1
_space_group_crystal_system       triclinic
_cell_length_a                    6.944614
_cell_length_b                    20.529117
_cell_length_c                    24.483552
_cell_angle_alpha                 90.145123
_cell_angle_beta                  90.753327
_cell_angle_gamma                 89.789742
_cell_volume                      3490.20551965

loop_
_atom_site_label
_atom_site_type_symbol
_atom_type_description
_atom_site_fract_x
_atom_site_fract_y
_atom_site_fract_z
_atom_type_partial_charge
O1    O     O_R   0.507280 0.423750 0.460310 -0.545116
O2    O     O_R   0.171030 0.555650 0.437630 -0.533729
O3    O     O_R   0.004080 0.576250 0.539690 -0.533073
C1    C     C_R   0.339045 0.575686 0.421756 0.719414
O4    O     O_R   0.177330 0.422980 0.453960 -0.534139
O5    O     O_R   0.010420 0.442640 0.556140 -0.532871
C2    C     C_R   0.345393 0.398691 0.443673 0.708046
O6    O     O_R   0.500930 0.557360 0.443860 -0.539588
O7    O     O_3   0.340310 0.506600 0.533500 -0.361447
V1    V     V_3+5 0.064140 0.498780 0.493780 1.489840
O8    O     O_R   0.680890 0.444350 0.562370 -0.533631
C3    C     C_R   0.850622 0.424406 0.578151 0.744788
O9    O     O_R   0.674590 0.577020 0.546040 -0.540937
C4    C     C_R   0.843874 0.600729 0.557072 0.786433
V2    V     V_3+5 0.564550 0.501220 0.506220 1.479255
O10   O     O_3   0.838250 0.493400 0.466500 -0.373513
C5    C     C_R   0.961223 0.835371 0.913599 -0.206799
C6    C     C_R   0.854641 0.660183 0.591073 -0.137407
C7    C     C_R   0.819663 0.726420 0.913511 0.023156
C8    C     C_R   0.860797 0.785754 0.939797 0.533025
C9    C     C_R   0.019270 0.826280 0.858839 0.004798
C10   C     C_R   0.937088 0.773645 0.827771 -0.041369
C11   C     C_R   0.858140 0.719833 0.856548 -0.120319
C12   C     C_R   0.923519 0.773531 0.769182 0.070875
C13   C     C_R   0.887352 0.714392 0.739945 -0.019710
C14   C     C_R   0.836869 0.659411 0.770468 -0.170055
C15   C     C_R   0.816609 0.662189 0.826824 0.597087
C16   C     C_R   0.916725 0.832369 0.739797 -0.179556
C17   C     C_R   0.895313 0.833033 0.683310 -0.161124
C18   C     C_R   0.880978 0.774981 0.653689 0.075944
C19   C     C_R   0.883073 0.714106 0.681160 0.002432
C20   C     C_R   0.860225 0.777737 0.596642 -0.159977
C21   C     C_R   0.843906 0.720931 0.565806 -0.275891
C22   C     C_R   0.878964 0.656353 0.648252 0.540338
H1    H     H_    0.826481 0.724333 0.521860 0.133447
H2    H     H_    0.889013 0.879619 0.662600 0.126157
H3    H     H_    0.791485 0.614657 0.751430 0.236452
H4    H     H_    0.917035 0.878917 0.760650 0.125743
H5    H     H_    0.855310 0.824218 0.575759 0.131700
C23   C     C_R   0.734415 0.256781 0.721756 0.552133
C24   C     C_R   0.892968 0.294454 0.706048 -0.104488
C25   C     C_R   0.069159 0.286633 0.734110 -0.176613
H6    H     H_    0.193085 0.315165 0.722643 0.215308
C26   C     C_R   0.086921 0.241958 0.777280 -0.162599
H7    H     H_    0.224184 0.236859 0.798397 0.223949
C27   C     C_R   0.928728 0.204361 0.793103 -0.110474
C28   C     C_R   0.752135 0.212072 0.765021 0.556324
C29   C     C_1   0.876009 0.340755 0.661187 0.108307
C30   C     C_1   0.947336 0.158507 0.838259 0.129863
C31   C     C_1   0.960851 0.120470 0.876140 -0.124510
C32   C     C_1   0.863178 0.379143 0.623553 -0.146232
H8    H     H_    0.689585 0.721871 0.310117 0.191936
C33   C     C_R   0.591616 0.778190 0.240935 -0.112510
H9    H     H_    0.732048 0.799443 0.234506 0.150973
C34   C     C_R   0.435822 0.794886 0.206512 0.028955
C35   C     C_R   0.255515 0.766392 0.215927 -0.229628
H10   H     H_    0.133322 0.778555 0.189887 0.152807
C36   C     C_R   0.231159 0.721917 0.258964 0.638095
C37   C     C_R   0.387180 0.705281 0.293471 -0.015779
C38   C     C_R   0.567377 0.733864 0.284049 -0.196298
C39   C     C_1   0.459887 0.840960 0.161688 0.000345
C40   C     C_1   0.363967 0.659205 0.338382 0.068763
C41   C     C_1   0.348855 0.620978 0.376117 -0.150162
C42   C     C_1   0.475351 0.879185 0.123973 -0.154787
C43   C     C_R   0.468780 0.160483 0.090930 -0.221360
C44   C     C_R   0.347521 0.336807 0.412691 -0.118708
C45   C     C_R   0.435253 0.277823 0.092107 -0.187962
C46   C     C_R   0.443179 0.219530 0.063306 0.604694
C47   C     C_R   0.480820 0.159866 0.149146 0.011995
C48   C     C_R   0.432573 0.218594 0.178480 0.071043
C49   C     C_R   0.431193 0.277946 0.149210 -0.093874
C50   C     C_R   0.387020 0.221390 0.235371 0.010391
C51   C     C_R   0.394966 0.281995 0.264714 -0.079526
C52   C     C_R   0.411978 0.339887 0.233658 0.604885
C53   C     C_R   0.422706 0.337299 0.176979 -0.185610
C54   C     C_R   0.306745 0.167348 0.261581 -0.146100
C55   C     C_R   0.266072 0.168521 0.316822 -0.194262
C56   C     C_R   0.299282 0.224429 0.347954 0.101932
C57   C     C_R   0.366367 0.282147 0.322897 0.104606
C58   C     C_R   0.256784 0.223367 0.403725 -0.182357
C59   C     C_R   0.275818 0.279198 0.436172 0.126278
C60   C     C_R   0.398482 0.337201 0.357214 -0.184472
H11   H     H_    0.423478 0.382687 0.154422 0.170891
H12   H     H_    0.462937 0.381195 0.342324 0.200944
H13   H     H_    0.204046 0.125518 0.335122 0.120358
H14   H     H_    0.426776 0.323120 0.069528 0.164576
H15   H     H_    0.257115 0.125657 0.238655 0.118818
H16   H     H_    0.203733 0.178945 0.422032 0.120608
O11   O     O_R   0.323320 0.942780 0.056240 -0.541161
O12   O     O_R   0.647300 0.077050 0.046060 -0.541959
O13   O     O_R   0.813840 0.057330 0.943840 -0.528035
C61   C     C_R   0.478655 0.100430 0.057561 0.774306
O14   O     O_R   0.653250 0.944380 0.062400 -0.528610
O15   O     O_R   0.819830 0.923720 0.960300 -0.519368
C62   C     C_R   0.485218 0.924430 0.078320 0.729976
O16   O     O_R   0.317330 0.076390 0.039790 -0.533007
O17   O     O_3   0.483830 0.993470 0.966560 -0.367714
V3    V     V_3+5 0.760140 0.001210 0.006210 1.511381
O18   O     O_R   0.149290 0.922840 0.953850 -0.547592
C63   C     C_R   0.979664 0.898599 0.943190 0.777894
O19   O     O_R   0.143340 0.055500 0.937510 -0.530957
C64   C     C_R   0.973603 0.075471 0.921746 0.720638
V4    V     V_3+5 0.259690 0.998600 0.993650 1.490878
O20   O     O_3   0.986130 0.006520 0.033440 -0.376084
F1    F     F_    0.754680 0.606900 0.850912 -0.681732
F2    F     F_    0.596921 0.176333 0.779523 -0.658525
F3    F     F_    0.562623 0.263255 0.695183 -0.667206
F4    F     F_    0.055391 0.695109 0.266827 -0.691232
F5    F     F_    0.912713 0.596494 0.669763 -0.707846
C65   C     C_3   0.219540 0.275188 0.495665 -0.347348
C66   C     C_3   0.000885 0.274508 0.501449 -0.712771
H17   H     H_    0.936813 0.319807 0.484268 0.225107
H18   H     H_    0.937893 0.231779 0.479906 0.220276
H19   H     H_    0.963774 0.271365 0.545321 0.214617
H20   H     H_    0.281240 0.230069 0.513941 0.187173
H21   H     H_    0.278837 0.316368 0.519984 0.173875
F6    F     F_    0.435481 0.220967 0.007856 -0.671618
C67   C     C_3   0.581238 0.102168 0.177359 -0.340982
C68   C     C_3   0.767105 0.123281 0.206458 -0.704103
H22   H     H_    0.863336 0.148405 0.177423 0.227512
H23   H     H_    0.736018 0.156386 0.241148 0.234086
H24   H     H_    0.843716 0.079787 0.222818 0.198423
H25   H     H_    0.488904 0.075825 0.206006 0.162824
H26   H     H_    0.623024 0.064048 0.147705 0.160104
F7    F     F_    0.392826 0.400060 0.255762 -0.689478
C69   C     C_3   0.719841 0.674469 0.947040 -0.223498
C70   C     C_3   0.503198 0.673243 0.935050 -0.638304
H27   H     H_    0.436780 0.720162 0.947629 0.213655
H28   H     H_    0.472269 0.665317 0.890977 0.252940
H29   H     H_    0.435852 0.633354 0.958546 0.223459
H30   H     H_    0.787057 0.625983 0.941381 0.233958
H31   H     H_    0.739118 0.683632 0.991503 0.214292
F8    F     F_    0.805991 0.795190 0.992429 -0.699663
C71   C     C_3   0.191175 0.864637 0.838149 -0.335866
C72   C     C_3   0.378904 0.840714 0.864962 -0.678823
H32   H     H_    0.373185 0.843068 0.910136 0.238031
H33   H     H_    0.407659 0.789479 0.852703 0.217320
H34   H     H_    0.500769 0.871232 0.851258 0.203430
H35   H     H_    0.213728 0.858548 0.793847 0.193382
H36   H     H_    0.170594 0.917532 0.845817 0.163798

loop_
_geom_bond_atom_site_label_1
_geom_bond_atom_site_label_2
_ccdc_geom_bond_type
C13   C19   A    
C43   C61   S    
O18   V4    S    
C34   C35   A    
C69   C70   S    
C72   H34   S    
C51   C52   A    
C4    C6    S    
C7    C11   A    
C66   H17   S    
C1    O6    A    
O17   V3    S    
C72   H32   S    
C33   H9    S    
C1    C41   S    
C14   C15   A    
C40   C41   T    
C16   C17   A    
O5    C3    A    
C18   C19   A    
C56   C58   A    
C52   F7    S    
O15   V3    S    
V2    O10   S    
C47   C67   S    
C61   O16   A    
C5    C8    A    
C35   H10   S    
C24   C25   A    
C20   H5    S    
C65   C66   S    
H8    C38   S    
C67   C68   S    
O8    V2    S    
C29   C32   T    
C7    C8    A    
V3    O20   S    
C37   C40   S    
C48   C49   A    
O1    V2    S    
C11   C15   A    
C8    F8    S    
O7    V1    S    
C45   C49   A    
C50   C54   A    
C28   F2    S    
C33   C34   A    
C55   H13   S    
C37   C38   A    
O14   C62   A    
O9    C4    A    
O11   V4    S    
C25   C26   A    
C6    C21   A    
C33   C38   A    
C26   C27   A    
C68   H23   S    
C49   C53   A    
C52   C53   A    
C45   C46   A    
O19   C64   A    
C12   C13   A    
C71   H35   S    
O4    C2    A    
C56   C57   A    
C50   C51   A    
C36   C37   A    
C55   C56   A    
C23   C28   A    
C5    C9    A    
O11   C62   A    
C39   C42   T    
O2    C1    A    
C70   H28   S    
C17   C18   A    
C46   F6    S    
C44   C60   A    
O12   C61   A    
O18   C63   A    
C17   H2    S    
O15   C63   A    
C68   H22   S    
C43   C46   A    
C51   C57   A    
C19   C22   A    
C66   H18   S    
C67   H26   S    
C54   C55   A    
C6    C22   A    
C54   H15   S    
O17   V4    S    
O3    C4    A    
C23   F3    S    
C23   C24   A    
C31   C64   S    
O6    V2    S    
C60   H12   S    
O9    V2    S    
C10   C12   A    
C25   H6    S    
O13   C64   A    
C70   H27   S    
O2    V1    S    
C65   H21   S    
C9    C71   S    
C3    C32   S    
C26   H7    S    
C68   H24   S    
C72   H33   S    
C27   C28   A    
C45   H14   S    
O1    C2    A    
C27   C30   S    
C12   C16   A    
C42   C62   S    
C58   C59   A    
O5    V1    S    
C57   C60   A    
O8    C3    A    
C14   H3    S    
C71   C72   S    
C71   H36   S    
C7    C69   S    
C20   C21   A    
O14   V3    S    
C13   C14   A    
C70   H29   S    
O4    V1    S    
C58   H16   S    
O3    V1    S    
V1    O10   S    
C2    C44   S    
C18   C20   A    
C53   H11   S    
C69   H30   S    
C43   C47   A    
C34   C39   S    
C21   H1    S    
C24   C29   S    
C35   C36   A    
C66   H19   S    
C36   F4    S    
C67   H25   S    
O13   V3    S    
O7    V2    S    
C47   C48   A    
C5    C63   S    
C69   H31   S    
C59   C65   S    
O19   V4    S    
C30   C31   T    
O16   V4    S    
V4    O20   S    
C22   F5    S    
C15   F1    S    
C10   C11   A    
C48   C50   A    
C16   H4    S    
C9    C10   A    
C65   H20   S    
O12   V3    S    
C44   C59   A    
