data_mof_unit_66374.cif
_audit_creation_date              2012-12-10T20:56:48-0500
_audit_creation_method            fapswitch 2.2
_symmetry_space_group_name_H-M    P1
_symmetry_Int_Tables_number       1
_space_group_crystal_system       triclinic
_cell_length_a                    26.350683
_cell_length_b                    33.029134
_cell_length_c                    21.137386
_cell_angle_alpha                 89.999929
_cell_angle_beta                  128.623875
_cell_angle_gamma                 90.0
_cell_volume                      14372.6276057

loop_
_atom_site_label
_atom_site_type_symbol
_atom_type_description
_atom_site_fract_x
_atom_site_fract_y
_atom_site_fract_z
_atom_type_partial_charge
C1    C     C_R   0.500000 0.145569 0.500000 0.492452
C2    C     C_R   0.646054 0.617840 0.501811 -0.094541
C3    C     C_R   0.640886 0.749638 0.499472 0.525193
C4    C     C_R   0.140886 0.750361 0.499472 0.525192
C5    C     C_R   0.858344 0.250371 0.498983 0.508190
C6    C     C_R   0.859113 0.750361 0.500528 0.525191
C7    C     C_R   0.141656 0.250371 0.501017 0.508192
C8    C     C_R   0.395492 0.250003 0.291104 0.492196
C9    C     C_R   0.604502 0.750013 0.708889 0.486612
C10   C     C_R   0.604507 0.250003 0.708896 0.492196
C11   C     C_R   0.395498 0.750013 0.291111 0.486614
C12   C     C_R   0.895498 0.749987 0.291111 0.486614
C13   C     C_R   0.809604 0.320373 0.757364 -0.110759
C14   C     C_R   0.104507 0.249997 0.708896 0.492196
C15   C     C_R   0.104502 0.749987 0.708889 0.486613
C16   C     C_R   0.895492 0.249997 0.291104 0.492196
C17   C     C_1   0.649658 0.250012 0.799023 -0.022584
C18   C     C_1   0.350426 0.749997 0.200979 -0.024695
C19   C     C_1   0.350342 0.250012 0.200977 -0.022584
C20   C     C_1   0.649574 0.749996 0.799021 -0.024694
C21   C     C_1   0.149574 0.750003 0.799021 -0.024695
C22   C     C_1   0.850342 0.249988 0.200977 -0.022584
C23   C     C_1   0.850426 0.750003 0.200979 -0.024695
C24   C     C_R   0.353942 0.617841 0.498181 -0.094541
C25   C     C_1   0.149658 0.249988 0.799023 -0.022584
C26   C     C_1   0.687126 0.250014 0.873941 -0.049604
C27   C     C_1   0.313002 0.749984 0.126061 -0.045361
C28   C     C_1   0.312874 0.250015 0.126059 -0.049605
C29   C     C_1   0.686998 0.749984 0.873939 -0.045360
C30   C     C_1   0.186998 0.750016 0.873939 -0.045360
C31   C     C_1   0.812874 0.249985 0.126059 -0.049604
C32   C     C_1   0.813002 0.750016 0.126061 -0.045361
C33   C     C_1   0.187126 0.249985 0.873941 -0.049604
C34   C     C_1   0.731328 0.250006 0.962539 -0.011600
C35   C     C_R   0.853946 0.882159 0.498187 -0.094540
C36   C     C_1   0.268725 0.749992 0.037461 -0.007698
C37   C     C_1   0.268672 0.250006 0.037461 -0.011600
C38   C     C_1   0.731275 0.749992 0.962539 -0.007697
C39   C     C_1   0.231275 0.750008 0.962539 -0.007698
C40   C     C_1   0.768672 0.249994 0.037461 -0.011600
C41   C     C_1   0.768725 0.750008 0.037461 -0.007698
C42   C     C_1   0.231328 0.249994 0.962539 -0.011600
C43   C     C_1   0.500000 0.399544 0.500000 -0.017430
C44   C     C_1   0.500000 0.600500 0.500000 -0.031735
C45   C     C_1   0.000000 0.899499 0.500000 -0.031735
C46   C     C_R   0.309603 0.179627 0.757364 -0.110759
C47   C     C_1   1.000000 0.100456 0.500000 -0.017430
C48   C     C_1   0.500000 0.437006 0.500000 -0.041740
C49   C     C_1   0.500000 0.563053 0.500000 -0.057487
C50   C     C_1   0.000000 0.936946 0.500000 -0.057487
C51   C     C_1   0.000000 0.062994 0.500000 -0.041740
C52   C     C_R   0.197630 0.344669 0.359453 0.023637
C53   C     C_R   0.137765 0.364525 0.320343 -0.103732
C54   C     C_R   0.130629 0.394819 0.360478 -0.100653
C55   C     C_R   0.183199 0.405656 0.439632 -0.096295
C56   C     C_R   0.243086 0.386330 0.478691 -0.113764
C57   C     C_R   0.146056 0.882160 0.501813 -0.094542
C58   C     C_R   0.250444 0.356032 0.438796 -0.080802
C59   C     C_R   0.614595 0.667564 0.394340 0.016070
C60   C     C_R   0.548381 0.672440 0.357275 -0.085988
C61   C     C_R   0.504940 0.685964 0.277259 -0.101062
C62   C     C_R   0.527111 0.694774 0.233591 -0.099035
C63   C     C_R   0.592715 0.689734 0.269661 -0.110078
C64   C     C_R   0.636281 0.675971 0.349511 -0.095199
C65   C     C_R   0.802370 0.344669 0.640547 0.023637
C66   C     C_R   0.862234 0.364526 0.679657 -0.103732
C67   C     C_R   0.869371 0.394819 0.639522 -0.100653
C68   C     C_R   0.690396 0.179627 0.242636 -0.110759
C69   C     C_R   0.816800 0.405656 0.560367 -0.096295
C70   C     C_R   0.756914 0.386330 0.521308 -0.113764
C71   C     C_R   0.749556 0.356032 0.561203 -0.080802
C72   C     C_R   0.385400 0.667562 0.605655 0.016069
C73   C     C_R   0.363712 0.675963 0.650485 -0.095198
C74   C     C_R   0.407277 0.689725 0.730336 -0.110077
C75   C     C_R   0.472880 0.694768 0.766407 -0.099036
C76   C     C_R   0.495052 0.685965 0.722738 -0.101062
C77   C     C_R   0.451614 0.672441 0.642721 -0.085986
C78   C     C_R   0.885404 0.832437 0.605658 0.016069
C79   C     C_R   0.204649 0.311956 0.317418 0.022349
C80   C     C_R   0.863716 0.824033 0.650488 -0.095199
C81   C     C_R   0.907282 0.810271 0.730338 -0.110077
C82   C     C_R   0.972885 0.805229 0.766409 -0.099036
C83   C     C_R   0.995057 0.814035 0.722741 -0.101062
C84   C     C_R   0.951617 0.827559 0.642724 -0.085987
C85   C     C_R   0.302370 0.155331 0.640547 0.023637
C86   C     C_R   0.362234 0.135474 0.679657 -0.103732
C87   C     C_R   0.369371 0.105181 0.639522 -0.100653
C88   C     C_R   0.316800 0.094344 0.560367 -0.096295
C89   C     C_R   0.256914 0.113670 0.521309 -0.113764
C90   C     C_R   0.660667 0.653402 0.479476 0.032935
C91   C     C_R   0.249556 0.143968 0.561204 -0.080803
C92   C     C_R   0.114596 0.832436 0.394342 0.016070
C93   C     C_R   0.048382 0.827561 0.357277 -0.085987
C94   C     C_R   0.004942 0.814036 0.277260 -0.101062
C95   C     C_R   0.027113 0.805227 0.233592 -0.099035
C96   C     C_R   0.092716 0.810267 0.269663 -0.110078
C97   C     C_R   0.136283 0.824030 0.349512 -0.095199
C98   C     C_R   0.697630 0.155331 0.359453 0.023637
C99   C     C_R   0.637765 0.135474 0.320343 -0.103732
C100  C     C_R   0.630629 0.105181 0.360478 -0.100653
C101  C     C_R   0.795352 0.311956 0.682581 0.022349
C102  C     C_R   0.683199 0.094344 0.439633 -0.096295
C103  C     C_R   0.743086 0.113670 0.478692 -0.113764
C104  C     C_R   0.750444 0.143968 0.438796 -0.080802
C105  C     C_R   0.500000 0.854432 0.500000 0.493425
C106  C     C_R   0.339329 0.653401 0.520518 0.032934
C107  C     C_R   0.839332 0.846598 0.520522 0.032935
C108  C     C_R   0.295351 0.188044 0.682582 0.022349
C109  C     C_R   0.160669 0.846598 0.479478 0.032935
C110  C     C_R   0.704648 0.188044 0.317418 0.022349
C111  C     C_R   0.225952 0.272608 0.351023 0.045856
C112  C     C_R   0.718810 0.674722 0.538945 0.044082
C113  C     C_R   0.774048 0.272609 0.648977 0.045856
C114  C     C_R   0.281188 0.674722 0.461050 0.044081
C115  C     C_R   0.781189 0.825278 0.461054 0.044081
C116  C     C_R   1.000000 0.645568 0.500000 0.493424
C117  C     C_R   0.274048 0.227392 0.648977 0.045856
C118  C     C_R   0.218811 0.825278 0.538946 0.044082
C119  C     C_R   0.725952 0.227391 0.351023 0.045856
C120  C     C_R   0.232474 0.242833 0.308992 -0.078480
C121  C     C_R   0.761390 0.659213 0.617996 -0.095939
C122  C     C_R   0.767526 0.242833 0.691008 -0.078480
C123  C     C_R   0.238609 0.659216 0.381997 -0.095937
C124  C     C_R   0.738610 0.840786 0.382002 -0.095938
C125  C     C_R   0.267526 0.257167 0.691008 -0.078481
C126  C     C_R   0.261391 0.840786 0.617999 -0.095938
C127  C     C_R   0.000000 0.354431 0.500000 0.492453
C128  C     C_R   0.732474 0.257167 0.308992 -0.078480
C129  C     C_R   0.218895 0.251884 0.235288 -0.101712
C130  C     C_R   0.746256 0.623670 0.638774 -0.111897
C131  C     C_R   0.781105 0.251884 0.764712 -0.101712
C132  C     C_R   0.253743 0.623674 0.361217 -0.111896
C133  C     C_R   0.753745 0.876328 0.361223 -0.111897
C134  C     C_R   0.281105 0.248116 0.764712 -0.101712
C135  C     C_R   0.246257 0.876329 0.638777 -0.111897
C136  C     C_R   0.718895 0.248116 0.235288 -0.101712
C137  C     C_R   0.197834 0.290555 0.202137 -0.107788
C138  C     C_1   0.500000 0.481306 0.500000 -0.007695
C139  C     C_R   0.688552 0.603158 0.580933 -0.102094
C140  C     C_R   0.802166 0.290556 0.797863 -0.107789
C141  C     C_R   0.311446 0.603161 0.419057 -0.102093
C142  C     C_R   0.811449 0.896840 0.419064 -0.102093
C143  C     C_R   0.302166 0.209445 0.797863 -0.107788
C144  C     C_R   0.188553 0.896841 0.580936 -0.102094
C145  C     C_R   0.697834 0.209444 0.202137 -0.107789
C146  C     C_R   0.188496 0.262317 0.431990 -0.137924
C147  C     C_R   0.789182 0.715741 0.523653 -0.161182
C148  C     C_R   0.811504 0.262318 0.568010 -0.137924
C149  C     C_1   0.500000 0.518765 0.500000 -0.013432
C150  C     C_R   0.210817 0.715741 0.476347 -0.161180
C151  C     C_R   0.710817 0.784259 0.476347 -0.161182
C152  C     C_R   0.311504 0.237683 0.568010 -0.137924
C153  C     C_R   0.289183 0.784259 0.523653 -0.161181
C154  C     C_R   0.688496 0.237682 0.431990 -0.137924
C155  C     C_R   0.197969 0.250721 0.502379 0.004679
C156  C     C_R   0.804009 0.751093 0.501586 0.025111
C157  C     C_R   0.802031 0.250721 0.497621 0.004679
C158  C     C_R   0.195991 0.751093 0.498414 0.025112
C159  C     C_R   0.695991 0.748907 0.498414 0.025112
C160  C     C_1   0.000000 0.981235 0.500000 -0.013432
C161  C     C_R   0.302031 0.249279 0.497621 0.004679
C162  C     C_R   0.304009 0.748907 0.501586 0.025112
C163  C     C_R   0.697969 0.249279 0.502379 0.004679
C164  C     C_R   0.260305 0.238444 0.571484 -0.033571
C165  C     C_R   0.764999 0.786002 0.478858 -0.029544
C166  C     C_R   0.739695 0.238444 0.428516 -0.033571
C167  C     C_R   0.235001 0.786001 0.521143 -0.029545
C168  C     C_R   0.735001 0.713998 0.521142 -0.029545
C169  C     C_R   0.239694 0.261555 0.428516 -0.033571
C170  C     C_R   0.264998 0.713999 0.478856 -0.029543
C171  C     C_1   0.000000 0.018693 0.500000 -0.007695
C172  C     C_R   0.760305 0.261556 0.571484 -0.033571
C173  C     C_R   0.500000 0.354474 0.500000 0.492085
C174  C     C_R   0.500000 0.645537 0.500000 0.471768
C175  C     C_R   0.000000 0.854463 0.500000 0.471768
C176  C     C_R   0.000000 0.145526 0.500000 0.492086
C177  C     C_1   0.500000 0.100499 0.500000 -0.019642
C178  C     C_1   0.500000 0.899506 0.500000 -0.016389
C179  C     C_1   1.000000 0.600494 0.500000 -0.016390
C180  C     C_1   1.000000 0.399501 0.500000 -0.019642
C181  C     C_1   0.500000 0.063037 0.500000 -0.046249
C182  C     C_R   0.190396 0.320373 0.242636 -0.110759
C183  C     C_1   0.500000 0.936970 0.500000 -0.041330
C184  C     C_1   1.000000 0.563030 0.500000 -0.041330
C185  C     C_1   1.000000 0.436962 0.500000 -0.046250
C186  C     C_1   0.500000 0.018735 0.500000 -0.009342
C187  C     C_1   0.500000 0.981273 0.500000 -0.007084
C188  C     C_1   1.000000 0.518726 0.500000 -0.007084
C189  C     C_1   1.000000 0.481264 0.500000 -0.009342
C190  C     C_R   0.641656 0.249629 0.501017 0.508191
C191  C     C_R   0.359113 0.749639 0.500528 0.525190
C192  C     C_R   0.358344 0.249629 0.498983 0.508191
H1    H     H_    0.187290 0.297461 0.144938 0.114882
H2    H     H_    0.601851 0.601188 0.457603 0.104523
H3    H     H_    0.825697 0.350292 0.783859 0.107946
H4    H     H_    0.398145 0.601188 0.542388 0.104525
H5    H     H_    0.898149 0.898811 0.542394 0.104524
H6    H     H_    0.325696 0.149709 0.783859 0.107947
H7    H     H_    0.101853 0.898812 0.457606 0.104524
H8    H     H_    0.674302 0.149708 0.216141 0.107946
H9    H     H_    0.248198 0.212538 0.333536 0.096759
H10   H     H_    0.805892 0.675130 0.664022 0.110742
H11   H     H_    0.751801 0.212539 0.666464 0.096759
H12   H     H_    0.676797 0.575715 0.597329 0.115795
H13   H     H_    0.194108 0.675135 0.335972 0.110741
H14   H     H_    0.694108 0.824868 0.335977 0.110741
H15   H     H_    0.251802 0.287462 0.666464 0.096759
H16   H     H_    0.305893 0.824868 0.664024 0.110742
H17   H     H_    0.748199 0.287461 0.333536 0.096759
H18   H     H_    0.224548 0.228834 0.203704 0.107537
H19   H     H_    0.779150 0.612156 0.700033 0.110943
H20   H     H_    0.775452 0.228834 0.796296 0.107537
H21   H     H_    0.220851 0.612162 0.299956 0.110942
H22   H     H_    0.720851 0.887842 0.299964 0.110943
H23   H     H_    0.812711 0.297462 0.855062 0.114882
H24   H     H_    0.275452 0.271166 0.796296 0.107537
H25   H     H_    0.279151 0.887842 0.700036 0.110943
H26   H     H_    0.724548 0.271166 0.203704 0.107537
H27   H     H_    0.140497 0.271142 0.378590 0.137375
H28   H     H_    0.818572 0.688805 0.540047 0.129836
H29   H     H_    0.859503 0.271142 0.621409 0.137375
H30   H     H_    0.181427 0.688806 0.459951 0.129836
H31   H     H_    0.681427 0.811194 0.459953 0.129836
H32   H     H_    0.359503 0.228858 0.621410 0.137375
H33   H     H_    0.318573 0.811194 0.540048 0.129837
H34   H     H_    0.323201 0.575718 0.402659 0.115794
H35   H     H_    0.640497 0.228858 0.378590 0.137375
H36   H     H_    0.096471 0.356177 0.259262 0.103394
H37   H     H_    0.084280 0.409824 0.330279 0.112693
H38   H     H_    0.177559 0.429073 0.470639 0.111505
H39   H     H_    0.283839 0.394844 0.539888 0.106680
H40   H     H_    0.297245 0.341497 0.469658 0.126292
H41   H     H_    0.530518 0.666198 0.390534 0.104279
H42   H     H_    0.454058 0.689586 0.249069 0.108514
H43   H     H_    0.493403 0.705332 0.171698 0.111945
H44   H     H_    0.609785 0.696323 0.235622 0.109267
H45   H     H_    0.823204 0.924283 0.402666 0.115795
H46   H     H_    0.686761 0.671664 0.376123 0.109989
H47   H     H_    0.903528 0.356178 0.740738 0.103393
H48   H     H_    0.915720 0.409825 0.669721 0.112693
H49   H     H_    0.822441 0.429073 0.529360 0.111505
H50   H     H_    0.716162 0.394844 0.460111 0.106680
H51   H     H_    0.702755 0.341497 0.530340 0.126292
H52   H     H_    0.313232 0.671654 0.623871 0.109986
H53   H     H_    0.390206 0.696309 0.764376 0.109267
H54   H     H_    0.506587 0.705326 0.828302 0.111944
H55   H     H_    0.545934 0.689590 0.750929 0.108514
H56   H     H_    0.312710 0.202539 0.855062 0.114882
H57   H     H_    0.469477 0.666203 0.609462 0.104281
H58   H     H_    0.813236 0.828341 0.623875 0.109988
H59   H     H_    0.890212 0.803684 0.764378 0.109267
H60   H     H_    0.006593 0.794671 0.828303 0.111945
H61   H     H_    0.045939 0.810411 0.750932 0.108515
H62   H     H_    0.969480 0.833799 0.609465 0.104279
H63   H     H_    0.403528 0.143823 0.740738 0.103394
H64   H     H_    0.415720 0.090176 0.669721 0.112693
H65   H     H_    0.322440 0.070927 0.529361 0.111506
H66   H     H_    0.216161 0.105155 0.460112 0.106680
H67   H     H_    0.176799 0.924284 0.597333 0.115795
H68   H     H_    0.202755 0.158503 0.530342 0.126292
H69   H     H_    0.030520 0.833802 0.390535 0.104279
H70   H     H_    0.954059 0.810414 0.249070 0.108514
H71   H     H_    0.993404 0.794669 0.171699 0.111945
H72   H     H_    0.109786 0.803678 0.235623 0.109267
H73   H     H_    0.186763 0.828337 0.376125 0.109988
H74   H     H_    0.596471 0.143822 0.259262 0.103394
H75   H     H_    0.584280 0.090176 0.330280 0.112693
H76   H     H_    0.677559 0.070927 0.470640 0.111505
H77   H     H_    0.783838 0.105156 0.539889 0.106680
H78   H     H_    0.687289 0.202538 0.144937 0.114882
H79   H     H_    0.797245 0.158503 0.469659 0.126291
H80   H     H_    0.174303 0.350291 0.216141 0.107947
O1    O     O_3   0.500000 0.250010 0.500000 -0.397601
O2    O     O_R   0.008350 0.334000 0.455930 -0.528413
O3    O     O_R   0.008350 0.666000 0.455930 -0.528735
O4    O     O_R   0.991650 0.334000 0.544070 -0.528413
O5    O     O_R   0.552380 0.334020 0.544040 -0.528802
O6    O     O_R   0.447620 0.665980 0.455960 -0.530294
O7    O     O_R   0.447620 0.334020 0.455960 -0.528803
O8    O     O_R   0.552380 0.665980 0.544040 -0.530293
O9    O     O_R   0.052380 0.834020 0.544040 -0.530293
O10   O     O_R   0.947620 0.165980 0.455960 -0.528802
O11   O     O_R   0.947620 0.834020 0.455960 -0.530294
O12   O     O_3   0.500000 0.749990 0.500000 -0.399373
O13   O     O_R   0.052380 0.165980 0.544040 -0.528803
O14   O     O_R   0.593780 0.227990 0.455960 -0.538447
O15   O     O_R   0.406220 0.772010 0.544040 -0.538718
O16   O     O_R   0.406220 0.227990 0.544040 -0.538448
O17   O     O_R   0.593780 0.772010 0.455960 -0.538717
O18   O     O_R   0.093780 0.727990 0.455960 -0.538717
O19   O     O_R   0.906220 0.272010 0.544040 -0.538448
O20   O     O_R   0.906220 0.727990 0.544040 -0.538718
O21   O     O_R   0.093780 0.272010 0.455960 -0.538447
O22   O     O_R   0.362170 0.272040 0.455960 -0.534159
O23   O     O_3   0.000000 0.750010 0.500000 -0.399373
O24   O     O_R   0.637830 0.727960 0.544040 -0.528054
O25   O     O_R   0.637830 0.272040 0.544040 -0.534160
O26   O     O_R   0.362170 0.727960 0.455960 -0.528055
O27   O     O_R   0.862170 0.772040 0.455960 -0.528055
O28   O     O_R   0.137830 0.227960 0.544040 -0.534159
O29   O     O_R   0.137830 0.772040 0.544040 -0.528055
O30   O     O_R   0.862170 0.227960 0.455960 -0.534159
O31   O     O_R   0.446360 0.228000 0.332000 -0.529909
O32   O     O_R   0.553640 0.772000 0.668000 -0.524805
O33   O     O_R   0.553640 0.228000 0.668000 -0.529910
O34   O     O_3   0.000000 0.249990 0.500000 -0.397602
O35   O     O_R   0.446360 0.772000 0.332000 -0.524802
O36   O     O_R   0.946360 0.728000 0.332000 -0.524803
O37   O     O_R   0.053640 0.272000 0.668000 -0.529910
O38   O     O_R   0.053640 0.728000 0.668000 -0.524804
O39   O     O_R   0.946360 0.272000 0.332000 -0.529910
O40   O     O_R   0.385640 0.272040 0.331990 -0.523292
O41   O     O_R   0.614360 0.727960 0.668010 -0.529366
O42   O     O_R   0.614360 0.272040 0.668010 -0.523292
O43   O     O_R   0.385640 0.727960 0.331990 -0.529366
O44   O     O_R   0.885640 0.772040 0.331990 -0.529366
O45   O     O_R   0.491650 0.166000 0.544070 -0.528412
O46   O     O_R   0.114360 0.227960 0.668010 -0.523292
O47   O     O_R   0.114360 0.772040 0.668010 -0.529366
O48   O     O_R   0.885640 0.227960 0.331990 -0.523292
O49   O     O_R   0.508350 0.834000 0.455930 -0.528736
O50   O     O_R   0.508350 0.166000 0.455930 -0.528412
O51   O     O_R   0.491650 0.834000 0.544070 -0.528735
O52   O     O_R   0.991650 0.666000 0.544070 -0.528735
Zn1   Zn    Zn3+2 0.574840 0.281480 0.562930 0.950121
Zn2   Zn    Zn3+2 0.488090 0.781450 0.562930 0.947763
Zn3   Zn    Zn3+2 0.488090 0.218550 0.562930 0.945103
Zn4   Zn    Zn3+2 0.511910 0.781450 0.437070 0.947766
Zn5   Zn    Zn3+2 0.011910 0.718550 0.437070 0.947765
Zn6   Zn    Zn3+2 0.988090 0.281450 0.562930 0.945103
Zn7   Zn    Zn3+2 0.988090 0.718550 0.562930 0.947764
Zn8   Zn    Zn3+2 0.011910 0.281450 0.437070 0.945103
Zn9   Zn    Zn3+2 0.425160 0.718520 0.437070 0.944176
Zn10  Zn    Zn3+2 0.425160 0.281480 0.437070 0.950121
Zn11  Zn    Zn3+2 0.574840 0.718520 0.562930 0.944179
Zn12  Zn    Zn3+2 0.074840 0.781480 0.562930 0.944179
Zn13  Zn    Zn3+2 0.925160 0.218520 0.437070 0.950121
Zn14  Zn    Zn3+2 0.925160 0.781480 0.437070 0.944178
Zn15  Zn    Zn3+2 0.074840 0.218520 0.562930 0.950121
Zn16  Zn    Zn3+2 0.511910 0.218550 0.437070 0.945103

loop_
_geom_bond_atom_site_label_1
_geom_bond_atom_site_label_2
_ccdc_geom_bond_type
O19   Zn6   S    
C61   H42   S    
O9    Zn12  S    
C101  C113  A    
O41   Zn11  S    
O37   Zn6   S    
C55   C56   A    
C7    O21   A    
C12   C23   S    
C124  C133  A    
C127  C180  S    
C153  H33   S    
C3    O24   A    
O13   Zn15  S    
C92   C109  S    
C46   H6    S    
C135  H25   S    
C67   H48   S    
C123  H13   S    
C37   C42   T    
C2    C90   A    
O12   Zn11  S    
C91   H68   S    
C134  C143  A    
C57   C109  A    
C113  C122  A    
C1    O45   A    
O16   Zn3   S    
C54   H37   S    
C64   H46   S    
C47   C176  S    
C119  C128  A    
C95   H71   S    
C59   C60   A    
O12   Zn4   S    
C81   H59   S    
C5    O19   A    
C6    O20   A    
C109  C118  A    
C14   O37   A    
C22   C31   T    
C74   H53   S    
C50   C160  S    
C122  H11   S    
C75   C76   A    
C128  H17   S    
O30   Zn13  S    
C24   C141  A    
C68   C110  A    
C163  C172  A    
C52   C58   A    
C88   H65   S    
O39   Zn8   S    
C97   H73   S    
C87   H64   S    
C94   H70   S    
C72   C106  S    
O35   Zn4   S    
C2    C139  A    
O2    Zn8   S    
C60   H41   S    
C72   C73   A    
O42   Zn1   S    
O22   Zn10  S    
C79   C182  A    
C48   C138  S    
C104  H79   S    
C43   C173  S    
C150  C170  A    
C45   C50   T    
C12   O36   A    
C163  C190  S    
O14   Zn16  S    
C69   C70   A    
C35   C107  A    
O50   Zn16  S    
C129  C137  A    
C88   C89   A    
C98   C99   A    
C111  C120  A    
C186  C187  T    
C142  H45   S    
O46   Zn15  S    
C11   C18   S    
C123  C132  A    
C65   C101  S    
C121  C130  A    
O43   Zn9   S    
C1    O50   A    
O40   Zn10  S    
C85   C86   A    
C133  C142  A    
C33   C42   S    
C82   H60   S    
C44   C174  S    
C6    O27   A    
C45   C175  S    
C78   C80   A    
C118  C167  S    
C143  H56   S    
C176  O10   A    
C92   C93   A    
O17   Zn4   S    
C63   H44   S    
O44   Zn14  S    
O15   Zn2   S    
C46   C108  A    
C29   C38   S    
C32   C41   S    
C131  C140  A    
C89   C91   A    
C52   C79   S    
C115  C165  S    
C152  C161  A    
C161  C169  A    
C66   C67   A    
C16   O39   A    
C96   H72   S    
C80   H58   S    
C57   H7    S    
C3    C159  S    
C55   H38   S    
C130  H19   S    
C92   C97   A    
C113  C172  S    
C9    O41   A    
C138  C149  T    
C8    C19   S    
C11   O35   A    
C120  C129  A    
C58   H40   S    
C38   C41   T    
O36   Zn5   S    
C191  O26   A    
C16   O48   A    
C151  C165  A    
C125  H15   S    
C56   H39   S    
C145  H78   S    
C151  C159  A    
C148  H29   S    
C83   C84   A    
C8    O40   A    
C19   C28   T    
C75   H54   S    
C114  C123  A    
O23   Zn7   S    
C24   C106  A    
C122  C131  A    
C52   C53   A    
C35   H5    S    
O25   Zn1   S    
C179  C184  T    
C132  C141  A    
C54   C55   A    
C192  O22   A    
C62   H43   S    
C57   C144  A    
C108  C117  A    
C36   C39   T    
C89   H66   S    
O32   Zn2   S    
C110  C119  A    
C181  C186  S    
C185  C189  S    
O23   Zn12  S    
C112  C121  A    
C69   H49   S    
C73   H52   S    
C28   C37   S    
C177  C181  T    
C56   C58   A    
C30   C39   S    
C148  C157  A    
C102  C103  A    
C4    O18   A    
C35   C142  A    
C63   C64   A    
O33   Zn3   S    
C146  C169  A    
O27   Zn14  S    
C132  H21   S    
C117  C125  A    
C6    C156  S    
C25   C33   T    
C116  O52   A    
C125  C134  A    
C182  H80   S    
C87   C88   A    
C99   H74   S    
C98   C110  S    
C73   C74   A    
C192  O16   A    
C7    O28   A    
O52   Zn7   S    
C133  H22   S    
C103  H77   S    
C128  C136  A    
C136  H26   S    
C24   H4    S    
C141  H34   S    
C134  H24   S    
C31   C40   S    
C144  H67   S    
C147  H28   S    
C140  H23   S    
C146  C155  A    
C126  H16   S    
C158  C167  A    
C190  O14   A    
C70   C71   A    
C191  O15   A    
C85   C108  S    
C176  O13   A    
C127  O4    A    
C178  C183  T    
O45   Zn3   S    
C8    O31   A    
C153  C167  A    
C105  O49   A    
C150  H30   S    
C161  C192  S    
C130  C139  A    
C162  C191  S    
O34   Zn15  S    
C173  O5    A    
O47   Zn12  S    
C117  C164  S    
C12   O44   A    
C13   C140  A    
O3    Zn5   S    
C9    O32   A    
C15   O47   A    
C86   C87   A    
C47   C51   T    
C53   C54   A    
C10   O33   A    
O5    Zn1   S    
C60   C61   A    
C2    H2    S    
C116  O3    A    
C62   C63   A    
O34   Zn8   S    
C9    C20   S    
C162  C170  A    
O24   Zn11  S    
C147  C156  A    
C146  H27   S    
C10   O42   A    
C83   H61   S    
C126  C135  A    
O10   Zn13  S    
C5    C157  S    
C152  H32   S    
C76   H55   S    
C77   H57   S    
C190  O25   A    
C16   C22   S    
C115  C124  A    
C150  C158  A    
O23   Zn14  S    
C49   C149  S    
C27   C36   S    
O49   Zn4   S    
C21   C30   T    
C153  C162  A    
C139  H12   S    
C23   C32   T    
O1    Zn16  S    
C71   H51   S    
C156  C165  A    
O1    Zn10  S    
C160  C171  T    
O29   Zn12  S    
O23   Zn5   S    
C14   C25   S    
C94   C95   A    
O48   Zn13  S    
C147  C168  A    
O18   Zn5   S    
O38   Zn7   S    
C15   O38   A    
C7    C155  S    
C82   C83   A    
C13   H3    S    
C116  C179  S    
C103  C104  A    
C105  O51   A    
C154  C166  A    
C111  C169  S    
C129  H18   S    
C68   C145  A    
O34   Zn13  S    
C173  O7    A    
C44   C49   T    
C174  O8    A    
O1    Zn1   S    
C93   C94   A    
C66   H47   S    
C95   C96   A    
C90   C112  A    
C105  C178  S    
O28   Zn15  S    
C81   C82   A    
C85   C91   A    
C59   C64   A    
C106  C114  A    
C34   C40   T    
C17   C26   T    
C121  H10   S    
C183  C187  S    
O34   Zn6   S    
C53   H36   S    
C98   C104  A    
C10   C17   S    
C112  C168  S    
C159  C168  A    
C1    C177  S    
C26   C34   S    
C4    C158  S    
C151  H31   S    
C5    O30   A    
C136  C145  A    
C102  H76   S    
C120  H9    S    
C61   C62   A    
C175  O11   A    
C93   H69   S    
C20   C29   T    
C137  H1    S    
C74   C75   A    
C154  C163  A    
C76   C77   A    
C137  C182  A    
C86   H63   S    
C65   C71   A    
C184  C188  S    
C188  C189  T    
C67   C69   A    
C59   C90   S    
C72   C77   A    
O20   Zn7   S    
O8    Zn11  S    
C99   C100  A    
C96   C97   A    
C100  C102  A    
O4    Zn6   S    
O31   Zn16  S    
O12   Zn9   S    
C119  C166  S    
C107  C115  A    
C152  C164  A    
C78   C107  S    
C135  C144  A    
C174  O6    A    
O21   Zn8   S    
O1    Zn3   S    
C84   H62   S    
C3    O17   A    
C127  O2    A    
C13   C101  A    
C14   O46   A    
C43   C48   T    
C114  C170  S    
C124  H14   S    
O11   Zn14  S    
O12   Zn2   S    
C18   C27   T    
O6    Zn9   S    
C80   C81   A    
C157  C166  A    
C46   C143  A    
C100  H75   S    
C155  C164  A    
C118  C126  A    
C79   C111  A    
C154  H35   S    
C68   H8    S    
O51   Zn2   S    
C51   C171  S    
C70   H50   S    
C11   O43   A    
C148  C172  A    
C4    O29   A    
O7    Zn10  S    
C180  C185  T    
C78   C84   A    
C15   C21   S    
O26   Zn9   S    
C65   C66   A    
C131  H20   S    
C175  O9    A    
