data_mof_unit_49202.cif
_audit_creation_date              2012-12-10T18:07:30-0500
_audit_creation_method            fapswitch 2.2
_symmetry_space_group_name_H-M    P1
_symmetry_Int_Tables_number       1
_space_group_crystal_system       triclinic
_cell_length_a                    11.518583
_cell_length_b                    12.673956
_cell_length_c                    13.130777
_cell_angle_alpha                 82.413614
_cell_angle_beta                  91.238417
_cell_angle_gamma                 101.910727
_cell_volume                      1859.19045894

loop_
_atom_site_label
_atom_site_type_symbol
_atom_type_description
_atom_site_fract_x
_atom_site_fract_y
_atom_site_fract_z
_atom_type_partial_charge
C1    C     C_R   0.483077 0.439246 0.690906 0.880726
C2    C     C_R   0.501353 0.596224 0.200333 -0.060324
C3    C     C_R   0.503576 0.302147 0.837862 -0.317837
C4    C     C_R   0.513670 0.272943 0.943304 0.564181
C5    C     C_R   0.505204 0.348201 0.009739 -0.292834
C6    C     C_R   0.473736 0.448772 0.972783 0.008279
C7    C     C_R   0.442156 0.467954 0.868936 0.080524
C8    C     C_R   0.471183 0.530441 0.035690 0.111436
C9    C     C_R   0.420025 0.621083 0.999358 0.164677
C10   C     C_R   0.373647 0.630277 0.900571 -0.273354
C11   C     C_R   0.384402 0.554577 0.835964 -0.171782
C12   C     C_R   0.717485 0.500304 0.501027 0.907533
C13   C     C_R   0.519131 0.524705 0.133838 -0.253647
C14   C     C_R   0.452138 0.686404 0.164783 -0.197517
C15   C     C_R   0.470982 0.400680 0.800356 -0.170734
C16   C     C_R   0.323287 0.087891 0.353859 -0.282069
C17   C     C_R   0.630324 0.796556 0.637594 0.371586
C18   C     C_R   0.636736 0.892983 0.679856 -0.300450
C19   C     C_R   0.575480 0.969668 0.633965 -0.194788
C20   C     C_R   0.514993 0.955390 0.540601 0.015862
C21   C     C_R   0.499625 0.852358 0.507011 0.125177
C22   C     C_R   0.465527 0.037767 0.482113 -0.087707
C23   C     C_R   0.511361 0.560715 0.309032 0.855642
C24   C     C_R   0.380891 0.009017 0.405020 0.049637
C25   C     C_R   0.356072 0.902522 0.379596 0.412066
C26   C     C_R   0.420750 0.827521 0.426876 -0.315166
C27   C     C_R   0.501072 0.149102 0.493747 0.307540
C28   C     C_R   0.352499 0.193886 0.377018 -0.055512
C29   C     C_R   0.282424 0.499282 0.500086 0.875524
C30   C     C_1   0.838262 0.500319 0.503483 -0.202072
C31   C     C_1   0.940377 0.498929 0.504475 -0.014784
C32   C     C_1   0.058994 0.497600 0.503558 -0.011370
C33   C     C_1   0.161337 0.497545 0.501834 -0.202610
C34   C     C_R   0.413716 0.699945 0.063468 -0.198987
H1    H     H_    0.437832 0.742737 0.216084 0.173346
H2    H     H_    0.255649 0.068087 0.296904 0.190212
H3    H     H_    0.574224 0.038052 0.674558 0.174383
H4    H     H_    0.687681 0.908846 0.748369 0.167290
H5    H     H_    0.406992 0.749982 0.400344 0.210244
H6    H     H_    0.330865 0.696992 0.872592 0.151108
H7    H     H_    0.374498 0.769079 0.036553 0.132481
H8    H     H_    0.566657 0.462034 0.162548 0.152297
H9    H     H_    0.523890 0.248877 0.785679 0.157978
H10   H     H_    0.517963 0.323198 0.090241 0.157275
H11   H     H_    0.346039 0.564032 0.760209 0.168693
H12   H     H_    0.306711 0.254676 0.339543 0.151878
N1    N     N_R   0.440320 0.222190 0.444690 -0.120826
N2    N     N_R   0.559060 0.776980 0.554780 -0.138398
O1    O     O_R   0.471500 0.366730 0.627160 -0.637431
O2    O     O_R   0.509620 0.544830 0.662520 -0.581743
O3    O     O_R   0.646490 0.410960 0.482310 -0.616470
O4    O     O_R   0.684610 0.589050 0.517670 -0.609158
O5    O     O_R   0.490380 0.455170 0.337480 -0.610424
O6    O     O_R   0.528500 0.633270 0.372840 -0.633328
O7    O     O_R   0.315390 0.410950 0.482330 -0.603728
O8    O     O_R   0.353510 0.589040 0.517690 -0.639444
Zn1   Zn    Zn3+2 0.474550 0.381080 0.476390 0.928386
Zn2   Zn    Zn3+2 0.525450 0.618920 0.523610 0.934254
O9    O     O_3   0.279285 0.876883 0.299491 -0.659856
C35   C     C_3   0.185264 0.789527 0.334178 0.075634
H13   H     H_    0.149910 0.799405 0.410110 0.143619
H14   H     H_    0.215794 0.711199 0.340363 0.144626
C36   C     C_3   0.084809 0.786204 0.255914 -0.337331
H15   H     H_    0.054336 0.864568 0.247924 0.221285
H16   H     H_    0.118052 0.775034 0.180037 0.228630
C37   C     C_3   0.979668 0.693825 0.288316 -0.940635
H17   H     H_    0.007246 0.614277 0.294614 0.269038
H18   H     H_    0.908580 0.694358 0.229880 0.264151
H19   H     H_    0.943522 0.704314 0.363218 0.269095
N3    N     N_2   0.606467 0.187061 0.547420 -0.328101
H20   H     H_    0.604197 0.247277 0.591969 0.262259
C38   C     C_3   0.715840 0.196076 0.491508 -0.733311
H21   H     H_    0.792590 0.226363 0.539912 0.234292
H22   H     H_    0.718279 0.253212 0.419398 0.255798
H23   H     H_    0.724232 0.115374 0.471920 0.239819
N4    N     N_2   0.695760 0.717731 0.680290 -0.255326
H24   H     H_    0.774415 0.723109 0.642089 0.221206
C39   C     C_3   0.705621 0.698473 0.791025 -0.782867
H25   H     H_    0.731272 0.618850 0.813222 0.246920
H26   H     H_    0.619412 0.695885 0.828412 0.261773
H27   H     H_    0.774908 0.762960 0.818681 0.216694
O10   O     O_3   0.543295 0.175078 0.982076 -0.645539
C40   C     C_3   0.444128 0.089076 0.975775 0.061650
H28   H     H_    0.476986 0.011909 0.983747 0.171007
H29   H     H_    0.399394 0.095178 0.899669 0.126591
C41   C     C_3   0.355398 0.082195 0.063226 -0.352507
H30   H     H_    0.400102 0.069131 0.138322 0.251640
H31   H     H_    0.323139 0.159421 0.058863 0.209799
C42   C     C_3   0.248451 0.989801 0.057072 -0.916417
H32   H     H_    0.204490 0.999598 0.981286 0.251231
H33   H     H_    0.183580 0.991061 0.117867 0.270746
H34   H     H_    0.276280 0.910379 0.068736 0.268662

loop_
_geom_bond_atom_site_label_1
_geom_bond_atom_site_label_2
_ccdc_geom_bond_type
C16   C28   A    
C37   H18   S    
C21   C26   A    
C36   H16   S    
C28   N1    A    
C8    C13   A    
C19   C20   A    
C17   N2    A    
C7    C11   A    
C28   H12   S    
C35   C36   S    
C35   H14   S    
N4    C39   S    
C30   C31   T    
C39   H26   S    
C26   H5    S    
C37   H19   S    
C29   C33   S    
O1    Zn1   S    
C10   H6    S    
C18   C19   A    
C2    C13   A    
C19   H3    S    
C40   H28   S    
C8    C9    A    
C17   N4    S    
N3    H20   S    
C1    C15   S    
C42   H33   S    
C1    O2    A    
C21   N2    A    
C7    C15   A    
C37   H17   S    
C36   C37   S    
O9    C35   S    
C16   C24   A    
C34   H7    S    
C38   H23   S    
C9    C10   A    
C13   H8    S    
C12   O4    A    
C23   O5    A    
O2    Zn2   S    
C24   C25   A    
C38   H22   S    
C14   H1    S    
O5    Zn1   S    
C39   H25   S    
C4    C5    A    
C6    C8    A    
C29   O7    A    
C25   C26   A    
C35   H13   S    
N1    Zn1   S    
C31   C32   S    
C3    H9    S    
C17   C18   A    
N4    H24   S    
C42   H34   S    
C27   N3    S    
O4    Zn2   S    
O3    Zn1   S    
C40   H29   S    
C5    H10   S    
C20   C22   A    
C22   C27   A    
O7    Zn1   S    
C9    C34   A    
C22   C24   A    
C11   H11   S    
C3    C4    A    
C12   O3    A    
C3    C15   A    
C23   O6    A    
O6    Zn2   S    
C27   N1    A    
C12   C30   S    
C41   H30   S    
C38   H21   S    
C41   C42   S    
C14   C34   A    
N2    Zn2   S    
C6    C7    A    
C29   O8    A    
C32   C33   T    
C18   H4    S    
C16   H2    S    
C39   H27   S    
C5    C6    A    
O8    Zn2   S    
C41   H31   S    
C2    C14   A    
C10   C11   A    
C36   H15   S    
C40   C41   S    
C4    O10   S    
C20   C21   A    
O10   C40   S    
C2    C23   S    
N3    C38   S    
C25   O9    S    
C42   H32   S    
C1    O1    A    
