data_mof_unit_43940.cif
_audit_creation_date              2012-12-11T14:29:35-0500
_audit_creation_method            fapswitch 2.2
_symmetry_space_group_name_H-M    P1
_symmetry_Int_Tables_number       1
_space_group_crystal_system       triclinic
_cell_length_a                    6.943526
_cell_length_b                    14.829274
_cell_length_c                    16.237586
_cell_angle_alpha                 90.395642
_cell_angle_beta                  89.954833
_cell_angle_gamma                 90.319507
_cell_volume                      1671.87649132

loop_
_atom_site_label
_atom_site_type_symbol
_atom_type_description
_atom_site_fract_x
_atom_site_fract_y
_atom_site_fract_z
_atom_type_partial_charge
O1    O     O_R   0.494400 0.416610 0.413880 -0.544052
O2    O     O_R   0.823920 0.406790 0.585520 -0.539597
O3    O     O_R   0.994250 0.583390 0.586120 -0.540138
C1    C     C_R   0.654709 0.388865 0.616040 0.776340
O4    O     O_R   0.824110 0.405730 0.414490 -0.531544
O5    O     O_R   0.994440 0.582310 0.413870 -0.540989
C2    C     C_R   0.655535 0.387919 0.383895 0.668857
O6    O     O_R   0.494210 0.417690 0.586130 -0.528648
O7    O     O_3   0.660810 0.557940 0.500000 -0.380525
V1    V     V_3+5 0.935650 0.489250 0.500000 1.488263
O8    O     O_R   0.324160 0.593210 0.414480 -0.551924
C3    C     C_R   0.155668 0.616330 0.387707 0.727400
O9    O     O_R   0.323970 0.594270 0.585510 -0.542262
C4    C     C_R   0.155813 0.614772 0.614970 0.681803
V2    V     V_3+5 0.435660 0.510750 0.500000 1.457714
O10   O     O_3   0.160630 0.442060 0.500000 -0.356477
C5    C     C_R   0.183389 0.566732 0.786619 -0.151826
C6    C     C_R   0.196788 0.540693 0.868637 -0.063803
C7    C     C_R   0.182157 0.604610 0.931221 -0.082851
C8    C     C_R   0.154991 0.695129 0.912241 -0.116337
C9    C     C_R   0.142805 0.724124 0.829409 0.067745
C10   C     C_R   0.157013 0.658262 0.765409 0.058353
C11   C     C_R   0.115849 0.816758 0.810388 -0.178261
C12   C     C_R   0.103557 0.843802 0.725324 -0.019957
C13   C     C_R   0.128069 0.776886 0.662227 0.062691
C14   C     C_R   0.147396 0.684387 0.681980 -0.151475
C15   C     C_R   0.067622 0.934982 0.699971 0.000645
C16   C     C_R   0.076549 0.959094 0.615322 -0.027525
C17   C     C_R   0.111005 0.892150 0.555732 -0.089352
C18   C     C_R   0.132592 0.803034 0.578992 -0.169677
H1    H     H_    0.195656 0.514415 0.740131 0.113417
H2    H     H_    0.219088 0.470542 0.883683 0.169190
H3    H     H_    0.191960 0.584000 0.994911 0.138772
H4    H     H_    0.143594 0.741849 0.963403 0.109481
H5    H     H_    0.155535 0.753965 0.530299 0.106735
C19   C     C_2   0.990550 0.714112 0.285825 -0.136128
C20   C     C_2   0.151748 0.688166 0.325009 -0.321042
H6    H     H_    0.852501 0.685491 0.303613 0.152749
H7    H     H_    0.287468 0.721631 0.311312 0.146431
C21   C     C_2   0.989140 0.787769 0.223642 -0.166411
C22   C     C_2   0.123585 0.800409 0.164055 -0.138601
H8    H     H_    0.868357 0.833895 0.227277 0.154690
C23   C     C_2   0.736161 0.243704 0.809355 -0.098715
C24   C     C_2   0.625432 0.167161 0.808605 -0.232517
C25   C     C_2   0.780284 0.293770 0.732337 -0.059913
C26   C     C_2   0.636181 0.332888 0.690596 -0.411260
H9    H     H_    0.492130 0.325584 0.715410 0.184158
C27   C     C_2   0.766949 0.221852 0.207161 -0.043224
C28   C     C_2   0.616665 0.166426 0.187157 -0.231112
C29   C     C_2   0.768647 0.269316 0.287836 -0.041573
C30   C     C_2   0.647030 0.338824 0.304628 -0.233848
O11   O     O_R   0.770210 0.079270 0.910680 -0.551121
O12   O     O_R   0.440150 0.091160 0.082270 -0.535227
O13   O     O_R   0.269970 0.914530 0.082860 -0.517598
C31   C     C_R   0.609302 0.111584 0.111223 0.665857
O14   O     O_R   0.440480 0.090100 0.911240 -0.508373
O15   O     O_R   0.270310 0.913460 0.910610 -0.518529
C32   C     C_R   0.610151 0.110413 0.882762 0.742280
O16   O     O_R   0.769870 0.080340 0.082930 -0.563897
O17   O     O_3   0.603660 0.938980 0.996790 -0.360920
V3    V     V_3+5 0.328750 0.007610 0.996740 1.586637
O18   O     O_R   0.940600 0.902510 0.911180 -0.554656
C33   C     C_R   0.108592 0.883495 0.880292 0.713202
O19   O     O_R   0.940270 0.903570 0.082200 -0.549323
C34   C     C_R   0.109605 0.879046 0.107843 0.733587
V4    V     V_3+5 0.828770 0.986010 0.996670 1.489989
O20   O     O_3   0.103730 0.054750 0.996710 -0.373870
C35   C     C_1   0.123488 0.912920 0.468886 0.287376
N1    N     N_1   0.133513 0.929440 0.399447 -0.330593
C36   C     C_2   0.275907 0.732029 0.147211 0.327560
H10   H     H_    0.264522 0.664518 0.171958 0.080242
O21   O     O_2   0.413893 0.749447 0.103340 -0.523538
C37   C     C_2   0.815275 0.281352 0.887887 0.455449
H11   H     H_    0.779851 0.251269 0.946651 0.014300
O22   O     O_2   0.918634 0.348215 0.887818 -0.540064
C38   C     C_2   0.546103 0.127839 0.730748 0.459112
H12   H     H_    0.556103 0.163012 0.672729 0.082639
O23   O     O_2   0.472003 0.052981 0.730246 -0.513186
C39   C     C_1   0.979006 0.302873 0.707524 0.509263
N2    N     N_1   0.137793 0.310423 0.687248 -0.346441
C40   C     C_2   0.926501 0.243511 0.149035 0.481732
H13   H     H_    0.917227 0.226453 0.084259 0.046992
O24   O     O_2   0.070057 0.283621 0.173130 -0.519502
C41   C     C_1   0.460133 0.151935 0.245031 0.371484
N3    N     N_1   0.335581 0.140003 0.291109 -0.306441
C42   C     C_1   0.896919 0.233750 0.349912 0.371988
N4    N     N_1   0.998681 0.205454 0.399753 -0.315884
C43   C     C_2   0.508370 0.375786 0.243010 0.454780
H14   H     H_    0.393658 0.420026 0.263532 0.058274
O25   O     O_2   0.523642 0.361042 0.169245 -0.514487
C44   C     C_2   0.985915 0.001508 0.757824 0.443677
H15   H     H_    0.837755 0.993347 0.777161 0.029923
O26   O     O_2   0.083336 0.063580 0.785148 -0.478093
C45   C     C_2   0.041445 0.053031 0.586879 0.397921
H16   H     H_    0.974245 0.064594 0.527613 0.068386
O27   O     O_2   0.093865 0.118244 0.627268 -0.494781

loop_
_geom_bond_atom_site_label_1
_geom_bond_atom_site_label_2
_ccdc_geom_bond_type
C23   C37   S    
C31   O16   A    
C37   H11   S    
C7    C8    A    
C12   C15   A    
C1    O6    A    
C40   H13   S    
O13   C34   A    
C1    C26   S    
C25   C26   D    
O18   C33   A    
C18   H5    S    
C28   C41   S    
C16   C17   A    
C38   O23   D    
O16   V4    S    
O5    C3    A    
V2    O10   S    
C27   C40   S    
C16   C45   S    
C6    C7    A    
C3    C20   S    
C24   C38   S    
O8    V2    S    
C24   C32   S    
C35   N1    T    
C11   C12   A    
C15   C44   S    
C36   H10   S    
O1    V2    S    
O7    V1    S    
C8    H4    S    
C11   C33   S    
V4    O20   S    
O17   V4    S    
O9    C4    A    
C37   O22   D    
O12   V3    S    
C40   O24   D    
C29   C30   D    
C38   H12   S    
O12   C31   A    
O18   V4    S    
C19   C21   S    
C12   C13   A    
C7    H3    S    
C44   H15   S    
O4    C2    A    
C42   N4    T    
C22   C34   S    
C13   C14   A    
C28   C31   S    
C4    C14   S    
O17   V3    S    
O19   V4    S    
O2    C1    A    
C23   C24   D    
C17   C18   A    
C44   O26   D    
C17   C35   S    
V3    O20   S    
O9    V2    S    
C8    C9    A    
C5    C6    A    
C25   C39   S    
C41   N3    T    
C45   O27   D    
C27   C29   S    
C23   C25   S    
O3    C4    A    
O11   C32   A    
C21   C22   D    
C43   O25   D    
O6    V2    S    
C9    C11   A    
C5    H1    S    
C6    H2    S    
O2    V1    S    
O11   V4    S    
C13   C18   A    
C26   H9    S    
C19   C20   D    
O1    C2    A    
O15   C33   A    
C30   C43   S    
O5    V1    S    
O8    C3    A    
O15   V3    S    
O13   V3    S    
C5    C10   A    
O19   C34   A    
C19   H6    S    
O7    V2    S    
C2    C30   S    
O4    V1    S    
C20   H7    S    
O3    V1    S    
V1    O10   S    
C27   C28   D    
C21   H8    S    
O14   C32   A    
C45   H16   S    
C29   C42   S    
C39   N2    T    
C43   H14   S    
C10   C14   A    
C15   C16   A    
O14   V3    S    
C36   O21   D    
C9    C10   A    
C22   C36   S    
