data_mof_unit_13045.cif
_audit_creation_date              2012-12-11T14:47:54-0500
_audit_creation_method            fapswitch 2.2
_symmetry_space_group_name_H-M    P1
_symmetry_Int_Tables_number       1
_space_group_crystal_system       triclinic
_cell_length_a                    11.551824
_cell_length_b                    11.468156
_cell_length_c                    19.561207
_cell_angle_alpha                 90.413749
_cell_angle_beta                  89.883746
_cell_angle_gamma                 59.920515
_cell_volume                      2242.33996337

loop_
_atom_site_label
_atom_site_type_symbol
_atom_type_description
_atom_site_fract_x
_atom_site_fract_y
_atom_site_fract_z
_atom_type_partial_charge
C1    C     C_R   0.640207 0.117782 0.599296 0.530687
C2    C     C_1   0.652203 0.150282 0.668710 0.004610
C3    C     C_R   0.605991 0.604703 0.309734 -0.210202
C4    C     C_R   0.612205 0.746103 0.598682 0.532584
C5    C     C_R   0.605911 0.593667 0.239908 -0.195748
C6    C     C_R   0.672965 0.641809 0.198745 -0.028123
C7    C     C_R   0.750911 0.690922 0.228844 0.272271
C8    C     C_R   0.759700 0.691141 0.299477 0.288461
C9    C     C_R   0.672697 0.664189 0.339502 -0.024255
C10   C     C_R   0.133481 0.298426 0.306534 0.225177
C11   C     C_R   0.117193 0.312217 0.236503 -0.104907
C12   C     C_1   0.640602 0.704193 0.668062 0.005949
C13   C     C_R   0.127252 0.206855 0.196074 -0.052730
C14   C     C_R   0.150736 0.086762 0.226333 -0.154906
C15   C     C_R   0.174953 0.066992 0.296845 0.233301
C16   C     C_R   0.298010 0.120054 0.605423 0.548662
C17   C     C_R   0.172751 0.171856 0.336169 0.077273
C18   C     C_R   0.790131 0.109704 0.309023 0.200238
C19   C     C_R   0.800450 0.121890 0.239650 -0.089631
C20   C     C_R   0.686229 0.193447 0.198657 -0.067397
C21   C     C_R   0.558447 0.260347 0.228637 0.247219
C22   C     C_R   0.547571 0.255721 0.299167 0.232088
C23   C     C_1   0.146407 0.188674 0.863038 0.000850
C24   C     C_R   0.662431 0.167949 0.338659 -0.046807
C25   C     C_R   0.084491 0.229762 0.929208 0.547189
C26   C     C_R   0.683927 0.604788 0.929475 0.543016
C27   C     C_R   0.708471 0.206557 0.930081 0.546113
C28   C     C_R   0.644675 0.116116 0.403502 0.548208
C29   C     C_R   0.080933 0.237228 0.126074 0.550831
C30   C     C_R   0.684282 0.607880 0.127023 0.528816
C31   C     C_R   0.710041 0.212135 0.127820 0.529713
C32   C     C_R   0.621452 0.733593 0.404264 0.545564
C33   C     C_R   0.239412 0.142855 0.402599 0.604891
C34   C     C_1   0.226942 0.145090 0.735504 -0.029503
C35   C     C_1   0.670538 0.646973 0.860120 0.004854
C36   C     C_1   0.654249 0.684134 0.728475 -0.030200
C37   C     C_1   0.663325 0.667216 0.799701 -0.030382
C38   C     C_3   0.259996 0.832629 0.294428 0.017524
C39   C     C_3   0.167755 0.781765 0.268828 -0.253274
C40   C     C_3   0.246647 0.647520 0.230962 -0.441203
C41   C     C_1   0.187354 0.164505 0.804942 -0.028872
C42   C     C_1   0.258315 0.132870 0.675923 0.003684
C43   C     C_1   0.678856 0.190877 0.860782 0.004306
C44   C     C_1   0.657927 0.167544 0.729102 -0.030487
C45   C     C_1   0.665593 0.180736 0.800391 -0.030127
Cr1   Cr    Cr6+3 0.404720 0.198220 0.499960 1.061507
Cr2   Cr    Cr6+3 0.698290 0.897110 0.500380 1.060057
Cr3   Cr    Cr6+3 0.396970 0.904720 0.499610 1.058334
Cr4   Cr    Cr6+3 0.926180 0.152240 0.028110 1.031266
Cr5   Cr    Cr6+3 0.921340 0.452070 0.027460 1.050115
Cr6   Cr    Cr6+3 0.626260 0.447120 0.028700 1.035231
H1    H     H_    0.546799 0.574893 0.340158 0.128097
H2    H     H_    0.094215 0.484621 0.317430 0.340430
H3    H     H_    0.329612 0.758270 0.331545 0.170994
H4    H     H_    0.323684 0.835943 0.252440 0.115135
H5    H     H_    0.115184 0.768444 0.313149 0.233408
H6    H     H_    0.091093 0.856063 0.234019 0.188087
H7    H     H_    0.294963 0.659746 0.184540 0.159885
H8    H     H_    0.178207 0.610591 0.215271 0.200740
H9    H     H_    0.324684 0.571711 0.264758 0.200490
H10   H     H_    0.888583 0.073387 0.393742 0.338454
H11   H     H_    0.900175 0.077408 0.218096 0.170002
H12   H     H_    0.552845 0.546675 0.218311 0.172424
H13   H     H_    0.089966 0.408828 0.214235 0.165527
H14   H     H_    0.146263 0.011031 0.195116 0.125795
H15   H     H_    0.458819 0.295472 0.143984 0.327093
H16   H     H_    0.431155 0.381522 0.366833 0.317925
H17   H     H_    0.775638 0.770935 0.147005 0.320069
H18   H     H_    0.885963 0.672225 0.368626 0.336193
O1    O     O_R   0.267740 0.231990 0.575440 -0.499706
O2    O     O_R   0.596140 0.579600 0.952720 -0.503461
O3    O     O_R   0.639070 0.321380 0.958660 -0.493468
O4    O     O_R   0.527280 0.186680 0.570530 -0.518897
O5    O     O_R   0.821240 0.124490 0.104360 -0.520432
O6    O     O_R   0.036900 0.167320 0.097830 -0.510801
O7    O     O_R   0.056190 0.349890 0.102870 -0.505272
O8    O     O_R   0.797670 0.565150 0.097930 -0.488082
O9    O     O_R   0.595880 0.584540 0.104260 -0.521622
O10   O     O_R   0.638830 0.325960 0.099140 -0.492676
O11   O     O_3   0.824590 0.350480 0.028090 -0.257121
O12   O     O_R   0.685970 0.784630 0.430010 -0.480565
O13   O     O_R   0.728090 0.003480 0.576380 -0.504750
O14   O     O_R   0.682970 0.789220 0.570490 -0.497947
O15   O     O_R   0.499290 0.771920 0.575530 -0.513994
O16   O     O_R   0.285330 0.030900 0.569730 -0.490488
O17   O     O_R   0.270980 0.227040 0.423900 -0.427654
O18   O     O_R   0.530280 0.182090 0.430050 -0.492976
O19   O     O_R   0.731330 0.998530 0.424830 -0.459738
O20   O     O_3   0.442389 0.331149 0.191398 -0.671706
O21   O     O_3   0.421799 0.332338 0.327286 -0.621655
O22   O     O_3   0.820796 0.737536 0.191441 -0.653953
O23   O     O_R   0.502530 0.766960 0.423990 -0.517021
O24   O     O_3   0.846522 0.727755 0.327377 -0.625766
O25   O     O_3   0.113044 0.407025 0.346815 -0.661915
O26   O     O_3   0.185043 0.955696 0.330610 -0.512288
O27   O     O_3   0.906605 0.040094 0.345834 -0.644190
O28   O     O_R   0.288330 0.026310 0.429250 -0.462335
O29   O     O_3   0.499990 0.000020 0.499980 -0.289061
O30   O     O_R   0.821500 0.119550 0.952820 -0.502557
O31   O     O_R   0.037130 0.162750 0.957360 -0.493456
O32   O     O_R   0.056440 0.344950 0.951330 -0.502613
O33   O     O_R   0.797900 0.560570 0.957460 -0.494420

loop_
_geom_bond_atom_site_label_1
_geom_bond_atom_site_label_2
_ccdc_geom_bond_type
C40   H9    S    
C18   O27   S    
C19   C20   A    
C34   C42   T    
H10   O27   S    
C7    C8    A    
C29   O7    A    
C21   O20   S    
Cr3   O28   S    
C27   O30   A    
Cr2   O29   S    
Cr6   O2    S    
C18   C24   A    
C13   C29   S    
C36   C37   S    
C35   C37   T    
C18   C19   A    
H18   O24   S    
C15   O26   S    
C38   C39   S    
C10   O25   S    
C19   H11   S    
C39   H6    S    
H17   O22   S    
C5    H12   S    
C1    C2    S    
Cr2   O13   S    
Cr6   O11   S    
C9    C32   S    
C30   O8    A    
C38   H4    S    
C2    C44   T    
C8    C9    A    
C38   H3    S    
C38   O26   S    
C28   O19   A    
Cr4   O6    S    
Cr2   O14   S    
C12   C36   T    
Cr2   O12   S    
Cr1   O29   S    
C40   H8    S    
C13   C14   A    
C26   O2    A    
C34   C41   S    
C17   C33   S    
H15   O20   S    
C40   H7    S    
C16   O1    A    
C11   H13   S    
C39   C40   S    
C31   O5    A    
C32   O12   A    
C1    O13   A    
H16   O21   S    
Cr3   O15   S    
C33   O17   A    
C3    C9    A    
Cr5   O7    S    
Cr4   O30   S    
C25   O31   A    
C39   H5    S    
C4    O15   A    
C7    O22   S    
C28   O18   A    
C14   C15   A    
C22   O21   S    
C43   C45   T    
C6    C30   S    
Cr5   O33   S    
C16   O16   A    
C22   C24   A    
C4    C12   S    
Cr6   O3    S    
Cr5   O8    S    
C16   C42   S    
C44   C45   S    
Cr1   O18   S    
C15   C17   A    
H2    O25   S    
Cr4   O5    S    
C8    O24   S    
C24   C28   S    
C3    C5    A    
Cr5   O11   S    
C3    H1    S    
C31   O10   A    
C6    C7    A    
C29   O6    A    
Cr3   O29   S    
C23   C41   T    
Cr4   O11   S    
C1    O4    A    
Cr2   O19   S    
Cr6   O9    S    
C26   O33   A    
Cr4   O31   S    
C11   C13   A    
C25   O32   A    
C5    C6    A    
C4    O14   A    
C14   H14   S    
C33   O28   A    
C23   C25   S    
Cr6   O10   S    
Cr1   O1    S    
C10   C11   A    
C32   O23   A    
C30   O9    A    
C27   C43   S    
C26   C35   S    
C20   C21   A    
Cr5   O32   S    
Cr3   O23   S    
Cr3   O16   S    
C10   C17   A    
C21   C22   A    
Cr1   O4    S    
C27   O3    A    
Cr1   O17   S    
C20   C31   S    
