data_mof_unit_12775.cif
_audit_creation_date              2012-12-10T17:53:13-0500
_audit_creation_method            fapswitch 2.2
_symmetry_space_group_name_H-M    P1
_symmetry_Int_Tables_number       1
_space_group_crystal_system       triclinic
_cell_length_a                    14.677447
_cell_length_b                    14.544415
_cell_length_c                    27.762984
_cell_angle_alpha                 77.003353
_cell_angle_beta                  102.474765
_cell_angle_gamma                 114.69823
_cell_volume                      5196.50148473

loop_
_atom_site_label
_atom_site_type_symbol
_atom_type_description
_atom_site_fract_x
_atom_site_fract_y
_atom_site_fract_z
_atom_type_partial_charge
C1    C     C_R   0.880459 0.311358 0.508601 0.837102
C2    C     C_R   0.119511 0.688261 0.490434 0.809661
C3    C     C_R   0.014634 0.527673 0.896697 -0.088402
C4    C     C_R   0.027074 0.551022 0.099287 -0.088931
C5    C     C_R   0.931025 0.532186 0.861654 -0.067757
C6    C     C_R   0.104113 0.534063 0.135281 -0.059550
C7    C     C_R   0.847624 0.533086 0.877680 -0.252794
C8    C     C_R   0.188279 0.532911 0.120147 -0.254465
C9    C     C_R   0.093493 0.514063 0.881143 -0.021610
C10   C     C_R   0.951423 0.570893 0.114277 -0.025907
C11   C     C_R   0.999740 0.503864 0.644693 -0.146638
C12   C     C_R   0.009942 0.511669 0.354913 -0.147373
C13   C     C_R   0.946879 0.562033 0.012417 0.037909
C14   C     C_R   0.099969 0.524824 0.983038 0.035978
C15   C     C_R   0.107237 0.536530 0.033547 -0.017317
C16   C     C_R   0.937474 0.546513 0.962444 -0.021031
C17   C     C_R   0.026691 0.549003 0.048336 0.003410
C18   C     C_R   0.017961 0.534330 0.947402 0.003394
C19   C     C_R   0.882886 0.597951 0.026802 -0.126151
C20   C     C_R   0.167335 0.494094 0.968011 -0.131722
C21   C     C_R   0.881779 0.600288 0.076734 0.146437
C22   C     C_R   0.168590 0.492873 0.918016 0.147083
C23   C     C_R   0.999254 0.500042 0.592268 0.840163
C24   C     C_R   0.002638 0.503012 0.407681 0.821717
C25   C     C_R   0.847582 0.536533 0.927869 0.415497
C26   C     C_R   0.194321 0.540873 0.069399 0.415350
C27   C     C_R   0.813525 0.201650 0.515302 -0.186375
C28   C     C_R   0.186656 0.797020 0.481407 -0.199469
C29   C     C_R   0.783493 0.020145 0.539217 0.065340
C30   C     C_R   0.222246 0.973048 0.440863 0.092392
C31   C     C_R   0.850657 0.122878 0.527285 0.436690
C32   C     C_R   0.154751 0.869811 0.448081 0.432601
C33   C     C_R   0.709574 0.176281 0.508842 -0.356469
C34   C     C_R   0.286925 0.825939 0.504092 -0.350452
C35   C     C_R   0.640498 0.074571 0.511458 0.055433
C36   C     C_R   0.359783 0.923945 0.491239 0.040556
C37   C     C_R   0.677493 0.995986 0.530889 0.088581
C38   C     C_R   0.326029 0.999441 0.460745 0.074411
C39   C     C_R   0.535326 0.049927 0.495671 0.101461
C40   C     C_R   0.465371 0.947961 0.506996 0.093933
C41   C     C_R   0.503994 0.872264 0.530782 -0.251206
C42   C     C_R   0.499244 0.123268 0.465784 -0.261827
C43   C     C_R   0.607455 0.895313 0.541009 -0.204744
C44   C     C_R   0.397286 0.098669 0.448946 -0.228151
C45   C     C_R   0.928980 0.528254 0.811393 0.572579
C46   C     C_R   0.098615 0.524281 0.186014 0.563533
C47   C     C_R   0.726340 0.684032 0.423789 0.357489
C48   C     C_R   0.275838 0.318556 0.579234 0.360676
C49   C     C_R   0.803043 0.646467 0.434276 -0.029969
C50   C     C_R   0.198928 0.357164 0.568103 -0.047232
C51   C     C_R   0.712159 0.506717 0.490763 0.035101
C52   C     C_R   0.285291 0.489891 0.507383 0.013581
C53   C     C_R   0.628382 0.536785 0.480670 -0.114101
C54   C     C_R   0.367915 0.458597 0.516880 -0.113571
C55   C     C_R   0.636016 0.627496 0.445848 -0.036323
C56   C     C_R   0.361895 0.370699 0.553462 -0.043336
C57   C     C_R   0.538829 0.480500 0.504460 0.042024
C58   C     C_R   0.456182 0.512633 0.491797 0.056489
C59   C     C_R   0.464417 0.598551 0.454739 -0.343936
C60   C     C_R   0.528896 0.392226 0.540161 -0.314425
C61   C     C_R   0.554390 0.660030 0.434159 0.480202
C62   C     C_R   0.441913 0.336300 0.563066 0.472977
C63   C     C_R   0.090480 0.516842 0.829490 0.544150
C64   C     C_R   0.951744 0.564313 0.166118 0.551589
C65   C     C_R   0.998256 0.596247 0.707239 -0.190103
C66   C     C_R   0.931341 0.459896 0.273658 -0.184578
C67   C     C_R   0.996661 0.591234 0.657334 0.364898
C68   C     C_R   0.926203 0.451258 0.324218 0.367105
C69   C     C_R   0.004231 0.421802 0.682497 0.079249
C70   C     C_R   0.099232 0.580226 0.334351 0.083832
C71   C     C_R   0.005664 0.428629 0.732150 -0.095380
C72   C     C_R   0.102090 0.587850 0.283516 -0.105439
C73   C     C_R   0.003909 0.515756 0.744756 0.243972
C74   C     C_R   0.018857 0.528165 0.253009 0.230764
Cu1   Cu    Cu3+1 0.081740 0.475690 0.513040 0.930085
Cu2   Cu    Cu3+1 0.918260 0.524310 0.486960 0.977382
H1    H     H_    0.306546 0.769278 0.531366 0.180975
H2    H     H_    0.683003 0.237475 0.502081 0.178717
H3    H     H_    0.456641 0.792337 0.538781 0.146222
H4    H     H_    0.548958 0.199906 0.452415 0.154668
H5    H     H_    0.281938 0.553895 0.479977 0.142728
H6    H     H_    0.714387 0.441456 0.517493 0.135084
H7    H     H_    0.132706 0.321370 0.586912 0.141927
H8    H     H_    0.870757 0.687423 0.416803 0.175689
H9    H     H_    0.401081 0.620080 0.440534 0.124646
H10   H     H_    0.587454 0.362570 0.551553 0.151358
H11   H     H_    0.008547 0.366186 0.761482 0.153308
H12   H     H_    0.169129 0.641832 0.267268 0.172065
H13   H     H_    0.779964 0.525197 0.851227 0.181509
H14   H     H_    0.252273 0.532884 0.148008 0.177536
H15   H     H_    0.866650 0.413418 0.250316 0.175169
H16   H     H_    0.995932 0.663333 0.716848 0.167963
H17   H     H_    0.835747 0.629246 0.998851 0.177684
H18   H     H_    0.217000 0.465263 0.995337 0.182709
H19   H     H_    0.631441 0.832505 0.556486 0.165783
H20   H     H_    0.375782 0.158474 0.425337 0.168637
N1    N     N_R   0.008461 0.522075 0.796248 -0.449381
N2    N     N_R   0.022703 0.538309 0.200547 -0.447106
N3    N     N_R   0.795430 0.560780 0.467350 -0.201309
N4    N     N_R   0.204570 0.439220 0.532650 -0.202374
O1    O     O_R   0.977900 0.338120 0.517190 -0.543522
O2    O     O_R   0.022100 0.661880 0.482810 -0.554094
O3    O     O_R   0.839850 0.379180 0.495160 -0.594919
O4    O     O_R   0.160150 0.620820 0.504840 -0.598067
O5    O     O_R   0.069030 0.479490 0.580750 -0.586991
O6    O     O_R   0.930970 0.520510 0.419250 -0.547098
O7    O     O_R   0.930970 0.520550 0.558720 -0.542388
O8    O     O_R   0.069030 0.479450 0.441280 -0.593268
O9    O     O_2   0.847597 0.529548 0.777897 -0.537295
O10   O     O_2   0.168040 0.499381 0.220667 -0.550472
O11   O     O_2   0.882370 0.583595 0.182426 -0.547133
O12   O     O_2   0.168935 0.515938 0.812060 -0.550468
C75   C     C_3   0.005144 0.325989 0.670644 -0.817369
H21   H     H_    0.997688 0.265747 0.703951 0.225002
H22   H     H_    0.941112 0.294360 0.641332 0.221709
H23   H     H_    0.077750 0.343826 0.657571 0.239579
C76   C     C_3   0.191869 0.648903 0.364140 -0.892696
H24   H     H_    0.255184 0.624034 0.367430 0.248901
H25   H     H_    0.214607 0.729096 0.344658 0.218201
H26   H     H_    0.179958 0.649417 0.402053 0.226084
O13   O     O_3   0.059601 0.840006 0.420163 -0.600620
C77   C     C_3   0.064887 0.811009 0.375688 0.044372
H27   H     H_    0.043685 0.727012 0.381461 0.166385
H28   H     H_    0.141387 0.849524 0.363197 0.138709
C78   C     C_3   0.990839 0.837913 0.333333 -0.772394
H29   H     H_    0.012049 0.922035 0.326026 0.238485
H30   H     H_    0.993140 0.812530 0.298925 0.220331
H31   H     H_    0.912578 0.799412 0.342793 0.263427
O14   O     O_3   0.952507 0.146750 0.527597 -0.590648
C79   C     C_3   0.965501 0.130387 0.481567 0.057076
H32   H     H_    0.914331 0.152062 0.449401 0.117558
H33   H     H_    0.950906 0.048426 0.483180 0.156038
C80   C     C_3   0.073600 0.194826 0.471147 -0.802932
H34   H     H_    0.127716 0.169408 0.499494 0.227551
H35   H     H_    0.081669 0.186502 0.433697 0.200385
H36   H     H_    0.091804 0.276797 0.471542 0.275916
C81   C     C_3   0.825177 0.937798 0.560206 -0.866899
H37   H     H_    0.909099 0.968917 0.567025 0.257944
H38   H     H_    0.798800 0.897997 0.596745 0.241553
H39   H     H_    0.799199 0.881619 0.533942 0.214225
C82   C     C_3   0.183805 0.052742 0.409858 -0.861997
H40   H     H_    0.100102 0.022366 0.400740 0.269696
H41   H     H_    0.205632 0.116766 0.431038 0.217335
H42   H     H_    0.216695 0.082235 0.374328 0.231320
O15   O     O_3   0.561903 0.748501 0.399733 -0.526730
C83   C     C_3   0.513446 0.804984 0.411906 0.070589
H43   H     H_    0.515151 0.796993 0.452826 0.141400
H44   H     H_    0.433604 0.779158 0.393483 0.151546
C84   C     C_3   0.566430 0.918281 0.393051 -0.769314
H45   H     H_    0.570558 0.930298 0.352519 0.256228
H46   H     H_    0.523677 0.961124 0.399269 0.210980
H47   H     H_    0.643890 0.948463 0.413811 0.231986
O16   O     O_3   0.439509 0.250179 0.597307 -0.518554
C85   C     C_3   0.410025 0.167026 0.571185 0.097029
H48   H     H_    0.456216 0.186565 0.540671 0.134474
H49   H     H_    0.328609 0.143090 0.555106 0.149537
C86   C     C_3   0.425465 0.077113 0.606933 -0.747177
H50   H     H_    0.385352 0.058122 0.639667 0.258331
H51   H     H_    0.395492 0.009127 0.587595 0.198318
H52   H     H_    0.507467 0.096716 0.620097 0.246583
O17   O     O_3   0.738129 0.772103 0.389443 -0.526158
C87   C     C_3   0.804906 0.858026 0.412564 0.089402
H53   H     H_    0.878631 0.851881 0.429398 0.157953
H54   H     H_    0.769880 0.866735 0.442156 0.141406
C88   C     C_3   0.826762 0.954045 0.373656 -0.770438
H55   H     H_    0.755382 0.963354 0.355543 0.261442
H56   H     H_    0.877038 0.022395 0.391557 0.173614
H57   H     H_    0.864799 0.948740 0.344545 0.249918
O18   O     O_3   0.273552 0.236066 0.616982 -0.533066
C89   C     C_3   0.174575 0.163146 0.623167 0.058452
H58   H     H_    0.125055 0.149844 0.586830 0.174261
H59   H     H_    0.140570 0.188595 0.647111 0.152632
C90   C     C_3   0.179689 0.061229 0.649110 -0.772831
H60   H     H_    0.231237 0.071090 0.684991 0.264333
H61   H     H_    0.102975 0.005320 0.656685 0.202914
H62   H     H_    0.207663 0.030602 0.624797 0.235064
O19   O     O_3   0.836660 0.387234 0.342690 -0.553055
C91   C     C_3   0.841049 0.290533 0.361992 0.053103
H63   H     H_    0.901222 0.296451 0.394708 0.128658
H64   H     H_    0.855864 0.257983 0.333168 0.139458
C92   C     C_3   0.740023 0.217204 0.379004 -0.762031
H65   H     H_    0.679469 0.203956 0.346428 0.250545
H66   H     H_    0.744546 0.142832 0.397425 0.185804
H67   H     H_    0.720507 0.250030 0.405832 0.261193
O20   O     O_3   0.986946 0.669948 0.620735 -0.556779
C93   C     C_3   0.084349 0.745443 0.614182 0.070765
H68   H     H_    0.130415 0.713673 0.601206 0.129812
H69   H     H_    0.124678 0.776543 0.649517 0.139334
C94   C     C_3   0.074132 0.833446 0.574776 -0.769445
H70   H     H_    0.033313 0.870474 0.587872 0.241241
H71   H     H_    0.150381 0.891217 0.567562 0.193979
H72   H     H_    0.031273 0.804661 0.539415 0.267136
C95   C     C_3   0.806736 0.636726 0.087583 -0.748846
H73   H     H_    0.750424 0.573502 0.109582 0.262066
H74   H     H_    0.847128 0.703435 0.107916 0.254414
H75   H     H_    0.763585 0.662166 0.053025 0.189826
C96   C     C_3   0.247482 0.462462 0.906502 -0.754532
H76   H     H_    0.301387 0.528116 0.884319 0.265444
H77   H     H_    0.293051 0.439527 0.940766 0.190953
H78   H     H_    0.210242 0.395733 0.886068 0.248464
O21   O     O_3   0.756554 0.509766 0.945784 -0.578453
C97   C     C_3   0.694418 0.558421 0.914590 0.042390
H79   H     H_    0.650618 0.515346 0.883150 0.168350
H80   H     H_    0.739416 0.639589 0.899939 0.135744
C98   C     C_3   0.618000 0.557460 0.944275 -0.771823
H81   H     H_    0.657439 0.602592 0.975310 0.231984
H82   H     H_    0.566227 0.591690 0.919557 0.207491
H83   H     H_    0.572476 0.477580 0.959874 0.259687
O22   O     O_3   0.287939 0.572562 0.053112 -0.580356
C99   C     C_3   0.349758 0.522818 0.083590 0.041766
H84   H     H_    0.305157 0.440019 0.095496 0.137217
H85   H     H_    0.389766 0.561497 0.116807 0.168962
C100  C     C_3   0.430431 0.531156 0.054492 -0.770926
H86   H     H_    0.475806 0.612866 0.041636 0.260341
H87   H     H_    0.481739 0.495830 0.078756 0.208038
H88   H     H_    0.394756 0.490794 0.021603 0.231198

loop_
_geom_bond_atom_site_label_1
_geom_bond_atom_site_label_2
_ccdc_geom_bond_type
C65   H16   S    
C66   C68   A    
C42   H4    S    
C88   H55   S    
C80   H34   S    
C1    O1    A    
C96   H78   S    
C8    C26   A    
O18   C89   S    
C14   C18   A    
C22   C96   S    
C79   H33   S    
C48   C56   A    
Cu1   O1    S    
C76   H25   S    
O15   C83   S    
C57   C58   A    
C84   H45   S    
C47   C49   A    
C92   H65   S    
C27   C33   A    
Cu2   N3    S    
C73   N1    S    
C95   H73   S    
C12   C68   A    
C69   C75   S    
C86   H50   S    
C30   C82   S    
C97   H80   S    
C44   H20   S    
C49   H8    S    
C35   C37   A    
O14   C79   S    
C25   O21   S    
C82   H41   S    
C34   H1    S    
C45   O9    S    
C9    C22   A    
C98   H83   S    
C89   H58   S    
C2    O2    A    
C70   C76   S    
C23   O5    A    
C68   O19   S    
C64   O11   S    
C65   C73   A    
C30   C38   A    
C3    C18   A    
C60   C62   A    
O21   C97   S    
C80   H35   S    
C63   O12   S    
C69   C71   A    
C61   O15   S    
C74   N2    S    
C12   C70   A    
Cu2   O6    S    
C33   C35   A    
C11   C67   A    
C95   H74   S    
C97   C98   S    
C80   H36   S    
C43   H19   S    
C24   O8    A    
C2    O4    A    
C1    O3    A    
C87   H54   S    
C19   H17   S    
C75   H23   S    
C1    C27   S    
Cu2   O3    S    
C64   N2    A    
C46   N2    A    
C28   C34   A    
Cu1   O8    S    
C88   H56   S    
C93   H69   S    
C51   N3    A    
C41   C43   A    
C52   H5    S    
C42   C44   A    
C72   H12   S    
C52   C54   A    
C50   H7    S    
O17   C87   S    
C39   C42   A    
C83   H44   S    
C53   C55   A    
C10   C21   A    
Cu2   O2    S    
C81   H39   S    
C54   C56   A    
C59   C61   A    
C97   H79   S    
C83   H43   S    
C27   C31   A    
C91   H63   S    
C28   C32   A    
C85   C86   S    
C72   C74   A    
C84   H47   S    
C39   C40   A    
C71   C73   A    
C53   C57   A    
C15   C26   A    
C6    C8    A    
C65   C67   A    
C58   C59   A    
C90   H60   S    
C5    C45   A    
C52   N4    A    
C87   H53   S    
C51   C53   A    
C37   C43   A    
C94   H72   S    
C35   C39   A    
Cu1   Cu2   S    
C59   H9    S    
C38   C44   A    
C3    C9    A    
C14   C20   A    
C49   N3    A    
C83   C84   S    
C5    C7    A    
C96   H76   S    
C100  H86   S    
C29   C31   A    
C95   H75   S    
C23   O7    A    
O22   C99   S    
C85   H48   S    
C92   H67   S    
C16   C18   A    
C96   H77   S    
C48   C50   A    
C81   H38   S    
C51   H6    S    
O13   C77   S    
C90   H61   S    
C93   H68   S    
C71   H11   S    
C4    C17   A    
C98   H81   S    
C4    C6    A    
C40   C41   A    
C20   C22   A    
C99   H84   S    
Cu2   O7    S    
C99   H85   S    
C46   O10   S    
C78   H29   S    
C56   C62   A    
C76   H26   S    
C79   C80   S    
C24   O6    A    
C77   H28   S    
C36   C38   A    
C3    C5    A    
C36   C40   A    
C47   C55   A    
C75   H21   S    
C54   C58   A    
C100  H88   S    
C16   C25   A    
C15   C17   A    
C20   H18   S    
C60   H10   S    
C6    C46   A    
C19   C21   A    
C9    C63   A    
C87   C88   S    
C85   H49   S    
C32   O13   S    
C10   C64   A    
C63   N1    A    
C57   C60   A    
C41   H3    S    
C91   H64   S    
C11   C69   A    
Cu1   O5    S    
C66   H15   S    
C82   H42   S    
C86   H52   S    
C99   C100  S    
C29   C81   S    
C81   H37   S    
C12   C24   S    
C50   N4    A    
C88   H57   S    
C7    C25   A    
C62   O16   S    
C13   C17   A    
C77   C78   S    
C84   H46   S    
C79   H32   S    
O16   C85   S    
C100  H87   S    
C31   O14   S    
C45   N1    A    
C76   H24   S    
C30   C32   A    
O20   C93   S    
Cu1   O4    S    
C89   H59   S    
C93   C94   S    
C78   H31   S    
C55   C61   A    
C11   C23   S    
Cu1   N4    S    
C90   H62   S    
C66   C74   A    
C26   O22   S    
C34   C36   A    
C94   H70   S    
C33   H2    S    
C91   C92   S    
C2    C28   S    
C48   O18   S    
C47   O17   S    
C92   H66   S    
C8    H14   S    
C86   H51   S    
O19   C91   S    
C13   C16   A    
C29   C37   A    
C78   H30   S    
C13   C19   A    
C14   C15   A    
C70   C72   A    
C21   C95   S    
C77   H27   S    
C82   H40   S    
C98   H82   S    
C4    C10   A    
C67   O20   S    
C94   H71   S    
C75   H22   S    
C89   C90   S    
C7    H13   S    
