data_mof_unit_35769.cif
_audit_creation_date              2013-03-05T16:35:53-0500
_audit_creation_method            fapswitch 2.2
_symmetry_space_group_name_H-M    P1
_symmetry_Int_Tables_number       1
_space_group_crystal_system       triclinic
_cell_length_a                    23.63221
_cell_length_b                    9.100807
_cell_length_c                    7.766797
_cell_angle_alpha                 90.11255
_cell_angle_beta                  89.829367
_cell_angle_gamma                 89.879913
_cell_volume                      1670.40765952

loop_
_atom_site_label
_atom_site_type_symbol
_atom_site_description
_atom_site_fract_x
_atom_site_fract_y
_atom_site_fract_z
_atom_type_partial_charge
O1    O     O_R   0.500000 0.288390 0.642760 -0.570385
O2    O     O_R   0.500000 0.711610 0.357240 -0.572436
O3    O     O_R   0.500000 0.711610 0.642760 -0.582459
O4    O     O_R   0.500000 0.288390 0.357240 -0.572840
H1    H     H_    0.947660 0.135585 0.499509 0.182702
H2    H     H_    0.052316 0.874552 0.544740 0.182749
H3    H     H_    0.949443 0.876977 0.537927 0.181322
H4    H     H_    0.050500 0.133634 0.488350 0.181683
C1    C     C_R   0.500148 0.219935 0.499895 0.835276
C2    C     C_R   0.500428 0.780064 0.500112 0.836430
O5    O     O_R   0.417880 0.500000 0.642820 -0.586667
O6    O     O_R   0.582120 0.500000 0.357180 -0.581456
O7    O     O_R   0.582120 0.500000 0.642820 -0.594149
O8    O     O_R   0.417880 0.500000 0.357180 -0.586696
C3    C     C_R   0.208396 0.501044 0.508167 0.278699
C4    C     C_R   0.791427 0.509359 0.510475 0.268400
C5    C     C_R   0.390585 0.499514 0.500310 0.811732
C6    C     C_R   0.609336 0.504043 0.499643 0.797983
Cu1   Cu    Cu3+1 0.500000 0.500000 0.669080 0.978745
Cu2   Cu    Cu3+1 0.500000 0.500000 0.330920 0.983066
H5    H     H_    0.213503 0.646072 0.292531 0.159803
H6    H     H_    0.787751 0.368249 0.290177 0.162093
H7    H     H_    0.215100 0.355156 0.722481 0.159982
H8    H     H_    0.782499 0.653262 0.727570 0.167530
C7    C     C_R   0.296824 0.586196 0.381634 0.071232
C8    C     C_R   0.703902 0.423836 0.379334 0.077679
C9    C     C_R   0.297672 0.411999 0.624095 0.072516
C10   C     C_R   0.701176 0.600516 0.619775 0.077773
C11   C     C_R   0.327847 0.498984 0.501610 -0.080443
C12   C     C_R   0.671938 0.509683 0.499348 -0.095444
C13   C     C_R   0.881389 0.639066 0.516684 0.537402
C14   C     C_R   0.118617 0.371996 0.498706 0.538366
C15   C     C_R   0.880764 0.376472 0.518680 0.537220
C16   C     C_R   0.119299 0.633516 0.527784 0.538391
N1    N     N_R   0.852421 0.508359 0.516415 -0.456686
N2    N     N_R   0.147493 0.502207 0.511690 -0.458211
C17   C     C_R   0.940074 0.372708 0.513927 -0.012145
C18   C     C_R   0.059970 0.637527 0.526956 -0.012713
C19   C     C_R   0.940702 0.640225 0.523004 -0.010856
C20   C     C_R   0.059309 0.370373 0.504812 -0.012357
C21   C     C_R   0.970160 0.505829 0.518185 -0.019852
C22   C     C_R   0.029872 0.504567 0.516871 -0.019766
C23   C     C_R   0.969869 0.239266 0.504475 -0.163050
C24   C     C_R   0.030146 0.770946 0.536129 -0.162931
C25   C     C_R   0.971143 0.772351 0.532255 -0.163009
C26   C     C_R   0.028852 0.238174 0.498004 -0.163104
C27   C     C_1   0.500303 0.065331 0.499856 -0.188958
C28   C     C_1   0.500406 0.934664 0.500157 -0.181339
C29   C     C_R   0.237583 0.582494 0.384751 -0.136738
C30   C     C_R   0.763081 0.429684 0.383650 -0.138557
C31   C     C_R   0.238481 0.418088 0.627822 -0.137136
C32   C     C_R   0.760255 0.591633 0.629398 -0.118411
N3    N     N_1   0.500000 0.500000 0.076820 -0.057686
N4    N     N_1   0.500000 0.500000 0.923180 -0.058475
O9    O     O_2   0.853018 0.767688 0.508019 -0.535636
O10   O     O_2   0.147173 0.244547 0.478078 -0.529303
O11   O     O_2   0.851691 0.249155 0.526728 -0.531554
O12   O     O_2   0.148567 0.759769 0.545903 -0.529107
C33   C     C_3   0.324443 0.689720 0.253236 -0.382810
C34   C     C_3   0.348800 0.824983 0.342729 -0.773210
H9    H     H_    0.314267 0.887685 0.406643 0.256778
H10   H     H_    0.380553 0.793741 0.440769 0.234471
H11   H     H_    0.369505 0.897089 0.246222 0.239503
H12   H     H_    0.357134 0.632984 0.175168 0.225313
H13   H     H_    0.292965 0.729388 0.157742 0.199779
C35   C     C_3   0.677451 0.320335 0.248631 -0.377227
C36   C     C_3   0.653767 0.183108 0.335290 -0.777908
H14   H     H_    0.688472 0.122758 0.400446 0.258553
H15   H     H_    0.620896 0.211637 0.431774 0.237054
H16   H     H_    0.634627 0.110005 0.236862 0.238201
H17   H     H_    0.644703 0.376306 0.170856 0.226466
H18   H     H_    0.709541 0.283019 0.152969 0.197560
C37   C     C_3   0.326090 0.305595 0.747485 -0.382948
C38   C     C_3   0.349219 0.171150 0.652460 -0.775540
H19   H     H_    0.313903 0.110393 0.591082 0.257956
H20   H     H_    0.380032 0.203181 0.551573 0.233152
H21   H     H_    0.370698 0.096927 0.744977 0.239711
H22   H     H_    0.359624 0.359794 0.823643 0.225921
H23   H     H_    0.295345 0.265258 0.845175 0.199503
C39   C     C_3   0.672535 0.714184 0.735039 -0.413082
C40   C     C_3   0.689244 0.870089 0.683109 -0.795816
H24   H     H_    0.735316 0.888237 0.700443 0.280138
H25   H     H_    0.677944 0.889309 0.546331 0.251475
H26   H     H_    0.666073 0.950904 0.764393 0.239751
H27   H     H_    0.625950 0.711258 0.730635 0.232257
H28   H     H_    0.684899 0.694515 0.871055 0.206783

loop_
_geom_bond_atom_site_label_1
_geom_bond_atom_site_label_2
_geom_bond_distance
_ccdc_geom_bond_type
H8    C32   1.083620 S    
C9    C11   1.428805 A    
C5    C11   1.482658 S    
C21   C22   1.411158 A    
Cu1   Cu2   2.626421 S    
H5    C29   1.083663 S    
C40   H24   1.110141 S    
C19   C21   1.406470 A    
N3    N4    1.193291 T    
C20   C26   1.404271 A    
O5    Cu1   1.951971 S    
C33   H12   1.106976 S    
C38   H20   1.107978 S    
O7    C6    1.283602 A    
C34   H11   1.110400 S    
C14   N2    1.372389 A    
C4    C30   1.395685 A    
C18   C22   1.407071 A    
C8    C30   1.400146 A    
C4    N1    1.442313 S    
C34   H10   1.107749 S    
C37   C38   1.527023 S    
C39   H28   1.111657 S    
C35   H18   1.112228 S    
C27   C28   1.189182 T    
C38   H21   1.110363 S    
C37   H22   1.106560 S    
O3    Cu1   1.937040 S    
C6    C12   1.480412 S    
C3    C31   1.394110 A    
C19   C25   1.404339 A    
C14   C20   1.402361 A    
C35   C36   1.526424 S    
H1    C23   1.081365 S    
C33   C34   1.527029 S    
H2    C24   1.081687 S    
O8    C5    1.283605 A    
C40   H25   1.110262 S    
C9    C31   1.400013 A    
C7    C29   1.400605 A    
C7    C11   1.428397 A    
O1    Cu1   1.936243 S    
C38   H19   1.110308 S    
O7    Cu1   1.950761 S    
O2    Cu2   1.936242 S    
C36   H14   1.109999 S    
C8    C35   1.520200 S    
O8    Cu2   1.950763 S    
O1    C1    1.271461 A    
C39   C40   1.528204 S    
C15   C17   1.402347 A    
C34   H9    1.110210 S    
C36   H15   1.107844 S    
C17   C23   1.404193 A    
C18   C24   1.404250 A    
C39   H27   1.101904 S    
H7    C31   1.083694 S    
C35   H17   1.107071 S    
O6    Cu2   1.951969 S    
C37   H23   1.112332 S    
Cu1   N4    1.973542 S    
C8    C12   1.428407 A    
C2    C28   1.406985 S    
C13   N1    1.373710 A    
O2    C2    1.271586 A    
H3    C25   1.081305 S    
C3    N2    1.439477 S    
C40   H26   1.110745 S    
C24   C25   1.394825 A    
O5    C5    1.282748 A    
C15   O11   1.349771 S    
C16   C18   1.402494 A    
C4    C32   1.395465 A    
Cu2   N3    1.973542 S    
C1    C27   1.407012 S    
H6    C30   1.083544 S    
C36   H16   1.110389 S    
C10   C12   1.427880 A    
O3    C2    1.272148 A    
C33   H13   1.112211 S    
C10   C32   1.400568 A    
C20   C22   1.407054 A    
C15   N1    1.373465 A    
C13   C19   1.402752 A    
C16   N2    1.372300 A    
C3    C29   1.394644 A    
C17   C21   1.406399 A    
C10   C39   1.523004 S    
C23   C26   1.394666 A    
H4    C26   1.081647 S    
O4    Cu2   1.937041 S    
O6    C6    1.281995 A    
C16   O12   1.349709 S    
C7    C33   1.520050 S    
C13   O9    1.349660 S    
O4    C1    1.272189 A    
C9    C37   1.520503 S    
C14   O10   1.349725 S    
