data_mof_unit_63133.cif
_audit_creation_date              2012-12-10T19:01:57-0500
_audit_creation_method            fapswitch 2.2
_symmetry_space_group_name_H-M    P1
_symmetry_Int_Tables_number       1
_space_group_crystal_system       triclinic
_cell_length_a                    44.065638
_cell_length_b                    30.300859
_cell_length_c                    31.796629
_cell_angle_alpha                 89.950579
_cell_angle_beta                  136.651483
_cell_angle_gamma                 90.03448
_cell_volume                      29143.0460256

loop_
_atom_site_label
_atom_site_type_symbol
_atom_type_description
_atom_site_fract_x
_atom_site_fract_y
_atom_site_fract_z
_atom_type_partial_charge
C1    C     C_R   0.586255 0.999993 0.088099 0.963508
C2    C     C_R   0.413745 0.999997 0.911901 0.963442
C3    C     C_R   0.086203 0.499862 0.087582 0.950248
C4    C     C_R   0.913797 0.499865 0.912416 0.950160
C5    C     C_3   0.499336 0.998649 0.290487 0.112576
C6    C     C_3   0.500665 0.999239 0.709523 0.105437
C7    C     C_3   0.999437 0.498178 0.290591 0.113461
C8    C     C_3   0.000533 0.498816 0.709388 0.106393
C9    C     C_3   0.464144 0.022324 0.200204 -0.202023
C10   C     C_3   0.536270 0.022141 0.800238 -0.209641
C11   C     C_3   0.986767 0.538788 0.223113 -0.208789
C12   C     C_3   0.011877 0.539679 0.775554 -0.209286
C13   C     C_3   0.501818 0.040774 0.266178 -0.183668
C14   C     C_3   0.498939 0.041339 0.734613 -0.163727
C15   C     C_3   0.027787 0.529436 0.292317 -0.187729
C16   C     C_3   0.971170 0.529044 0.706679 -0.165859
C17   C     C_1   0.498898 0.999656 0.162229 0.019455
C18   C     C_1   0.501102 0.999899 0.837777 0.019613
C19   C     C_1   0.999268 0.499607 0.162604 0.025577
C20   C     C_1   0.000735 0.499874 0.837406 0.026025
C21   C     C_1   0.499385 0.998316 0.336014 -0.020067
C22   C     C_1   0.500612 0.998886 0.663992 0.003377
C23   C     C_1   0.999391 0.497947 0.336024 -0.018773
C24   C     C_1   0.000574 0.498572 0.663951 0.002150
C25   C     C_R   0.701715 0.965885 0.180953 -0.159621
C26   C     C_R   0.298286 0.965853 0.819044 -0.159915
C27   C     C_R   0.201664 0.527907 0.174711 -0.166015
C28   C     C_R   0.798334 0.527877 0.825274 -0.165949
C29   C     C_R   0.656118 0.967174 0.136527 -0.235937
C30   C     C_R   0.343883 0.967143 0.863471 -0.236013
C31   C     C_R   0.156111 0.528557 0.131634 -0.236552
C32   C     C_R   0.843887 0.528528 0.868352 -0.236456
C33   C     C_R   0.634445 0.999681 0.138272 -0.206591
C34   C     C_R   0.365556 0.999691 0.861726 -0.206519
C35   C     C_R   0.134263 0.499304 0.136576 -0.209322
C36   C     C_R   0.865737 0.499312 0.863422 -0.209411
C37   C     C_R   0.659054 0.030771 0.187000 0.335793
C38   C     C_R   0.340947 0.030822 0.812994 0.335581
C39   C     C_R   0.158440 0.468951 0.186111 0.354833
C40   C     C_R   0.841560 0.468995 0.813899 0.354498
C41   C     C_R   0.705424 0.030917 0.229633 0.346727
C42   C     C_R   0.294577 0.030960 0.770355 0.346748
C43   C     C_R   0.204572 0.466544 0.227193 0.359830
C44   C     C_R   0.795428 0.466580 0.772821 0.359727
C45   C     C_R   0.499335 0.999928 0.080590 0.928633
C46   C     C_R   0.500663 0.999964 0.919409 0.928581
C47   C     C_R   0.999560 0.499954 0.080821 0.928598
C48   C     C_R   0.000444 0.499991 0.919184 0.928524
C49   C     C_R   0.726139 0.997910 0.226529 0.007458
C50   C     C_R   0.273862 0.997914 0.773463 0.007550
C51   C     C_R   0.225715 0.497134 0.222092 -0.006780
C52   C     C_R   0.774284 0.497137 0.777907 -0.006797
C53   C     C_R   0.797865 0.973937 0.325261 -0.153384
C54   C     C_R   0.202137 0.973955 0.674762 -0.153679
C55   C     C_R   0.297650 0.479967 0.263542 -0.161580
C56   C     C_R   0.702351 0.479957 0.736483 -0.161708
C57   C     C_R   0.843435 0.976256 0.371355 -0.213372
C58   C     C_R   0.156567 0.976273 0.628669 -0.213464
C59   C     C_R   0.343276 0.481195 0.310578 -0.216779
C60   C     C_R   0.656725 0.481186 0.689446 -0.216934
C61   C     C_R   0.865490 0.002824 0.364337 -0.210765
C62   C     C_R   0.134511 0.002823 0.635658 -0.210740
C63   C     C_R   0.365317 0.504500 0.364554 -0.200309
C64   C     C_R   0.634682 0.504501 0.635438 -0.200128
C65   C     C_R   0.841437 0.028253 0.310235 0.370018
C66   C     C_R   0.158564 0.028235 0.689731 0.369929
C67   C     C_R   0.341026 0.528779 0.370588 0.352533
C68   C     C_R   0.658969 0.528794 0.629368 0.352516
C69   C     C_R   0.795167 0.023299 0.262026 0.356161
C70   C     C_R   0.204834 0.023279 0.737943 0.356119
C71   C     C_R   0.294611 0.524935 0.323943 0.349299
C72   C     C_R   0.705385 0.524955 0.676020 0.349347
C73   C     C_R   0.773926 0.997181 0.270995 -0.012161
C74   C     C_R   0.226075 0.997182 0.729000 -0.012156
C75   C     C_R   0.273539 0.500937 0.270631 0.002651
C76   C     C_R   0.726460 0.500941 0.729364 0.002763
C77   C     C_R   0.500001 0.913542 0.499997 0.831225
C78   C     C_R   0.000000 0.413545 0.499996 0.835055
C79   C     C_R   0.499804 0.998907 0.418530 0.958461
C80   C     C_R   0.500197 0.998916 0.581474 0.955326
C81   C     C_R   0.999795 0.498864 0.418523 0.954296
C82   C     C_R   0.000203 0.498902 0.581479 0.950829
C83   C     C_R   0.499998 0.086180 0.499976 1.115366
C84   C     C_R   0.000001 0.586209 0.499974 1.107835
C85   C     C_3   0.534226 0.975636 0.298268 -0.188576
C86   C     C_3   0.465364 0.976790 0.701316 -0.191225
C87   C     C_3   0.011965 0.458439 0.275736 -0.192724
C88   C     C_3   0.989359 0.458612 0.725591 -0.200735
C89   C     C_R   0.999997 0.086231 0.499980 1.056206
C90   C     C_R   0.500004 0.586227 0.499987 1.059766
C91   C     C_R   0.913563 0.001643 0.413277 0.970657
C92   C     C_R   0.086437 0.001643 0.586720 0.970534
C93   C     C_R   0.413514 0.502103 0.413373 0.983413
C94   C     C_R   0.586486 0.502103 0.586623 0.983172
C95   C     C_R   0.000012 0.913548 0.500037 0.857458
C96   C     C_R   0.500024 0.413549 0.500046 0.861961
C97   C     C_R   0.540004 0.796742 0.536786 -0.152035
C98   C     C_R   0.460025 0.796722 0.463081 -0.151940
C99   C     C_R   0.959982 0.296759 0.456334 -0.142360
C100  C     C_R   0.039998 0.296736 0.543479 -0.142430
C101  C     C_R   0.540021 0.842475 0.536875 -0.180516
C102  C     C_R   0.459995 0.842456 0.463040 -0.180692
C103  C     C_R   0.959964 0.342490 0.456398 -0.174103
C104  C     C_R   0.040027 0.342468 0.543489 -0.174339
C105  C     C_R   0.500005 0.865552 0.499974 -0.031709
C106  C     C_R   0.999998 0.365562 0.499965 -0.035928
C107  C     C_R   0.500019 0.773757 0.499925 0.153361
C108  C     C_R   0.999986 0.273772 0.499891 0.147912
C109  C     C_R   0.029929 0.202857 0.504680 -0.181476
C110  C     C_R   0.970021 0.202832 0.495094 -0.181539
C111  C     C_R   0.470008 0.702847 0.444362 -0.194269
C112  C     C_R   0.530051 0.702816 0.555520 -0.194430
C113  C     C_R   0.030168 0.157095 0.504789 0.374804
C114  C     C_R   0.969787 0.157072 0.495029 0.374826
C115  C     C_R   0.469779 0.657085 0.443994 0.364571
C116  C     C_R   0.530272 0.657056 0.555920 0.364750
C117  C     C_R   0.999983 0.133992 0.499928 -0.210597
C118  C     C_R   0.500020 0.633988 0.499965 -0.251207
C119  C     C_3   0.536162 0.017491 0.272717 0.448380
C120  C     C_3   0.464177 0.018608 0.727642 0.446534
C121  C     C_3   0.039727 0.489832 0.276180 0.453125
C122  C     C_3   0.960581 0.488991 0.724158 0.447674
C123  C     C_R   0.999976 0.225755 0.499881 -0.043107
C124  C     C_R   0.500029 0.725741 0.499934 -0.039206
C125  C     C_R   0.530791 0.203246 0.505876 0.312631
C126  C     C_R   0.469619 0.203220 0.495146 0.334447
C127  C     C_R   0.032618 0.703404 0.510045 0.319702
C128  C     C_R   0.967721 0.703288 0.491184 0.342185
C129  C     C_R   0.525289 0.157564 0.495320 0.309395
C130  C     C_R   0.474825 0.157446 0.505066 0.227415
C131  C     C_R   0.027554 0.657731 0.499489 0.313454
C132  C     C_R   0.972616 0.657529 0.501154 0.230324
C133  C     C_R   0.500004 0.134386 0.500068 -0.430153
C134  C     C_R   0.000019 0.634456 0.500134 -0.438140
C135  C     C_R   0.500252 0.226123 0.500593 -0.339589
C136  C     C_R   0.000166 0.726199 0.500632 -0.345372
C137  C     C_R   0.010270 0.796986 0.547639 -0.017115
C138  C     C_R   0.989915 0.796838 0.453163 -0.014043
C139  C     C_R   0.512705 0.296959 0.549356 -0.015658
C140  C     C_R   0.487758 0.296853 0.451541 -0.011986
C141  C     C_R   0.010025 0.842705 0.547350 -0.172657
C142  C     C_R   0.990112 0.842561 0.453153 -0.174646
C143  C     C_R   0.512363 0.342694 0.549036 -0.162014
C144  C     C_R   0.487961 0.342589 0.451550 -0.163989
C145  C     C_R   0.000055 0.865656 0.500175 -0.048077
C146  C     C_R   0.500115 0.365659 0.500206 -0.044256
C147  C     C_R   0.000106 0.774157 0.500477 0.260744
C148  C     C_R   0.500256 0.274122 0.500518 0.249988
C149  C     C_1   0.499021 0.999827 0.124801 -0.126722
C150  C     C_1   0.500978 0.999960 0.875202 -0.126942
C151  C     C_1   0.999372 0.499865 0.125156 -0.098160
C152  C     C_1   0.000632 0.500006 0.874854 -0.098264
C153  C     C_1   0.499494 0.998359 0.373681 -0.137673
C154  C     C_1   0.500504 0.998738 0.626325 -0.091778
C155  C     C_1   0.999467 0.498144 0.373658 -0.141110
C156  C     C_1   0.000509 0.498576 0.626328 -0.095621
C157  C     C_3   0.496486 0.957314 0.232235 -0.211126
C158  C     C_3   0.502762 0.957724 0.766995 -0.207905
C159  C     C_3   0.970972 0.467939 0.206552 -0.211898
C160  C     C_3   0.030031 0.469392 0.794430 -0.209115
C161  C     C_3   0.498939 0.999338 0.207762 0.090654
C162  C     C_3   0.501064 0.999718 0.792249 0.090475
C163  C     C_3   0.999244 0.499138 0.208072 0.088022
C164  C     C_3   0.000751 0.499562 0.791932 0.086981
C165  C     C_3   0.461636 0.980266 0.225346 -0.132610
C166  C     C_3   0.538022 0.980110 0.774314 -0.141158
C167  C     C_3   0.958436 0.507602 0.222258 -0.130456
C168  C     C_3   0.041216 0.509521 0.777385 -0.135138
H1    H     H_    0.781097 0.954198 0.331906 0.182935
H2    H     H_    0.218905 0.954231 0.668137 0.182830
H3    H     H_    0.281058 0.461527 0.222266 0.178397
H4    H     H_    0.718945 0.461506 0.777783 0.178272
H5    H     H_    0.861610 0.957037 0.412658 0.190589
H6    H     H_    0.138392 0.957066 0.587390 0.190579
H7    H     H_    0.361499 0.463128 0.305193 0.187451
H8    H     H_    0.638504 0.463108 0.694856 0.187266
H9    H     H_    0.571093 0.779303 0.564948 0.155975
H10   H     H_    0.428942 0.779267 0.434907 0.155951
H11   H     H_    0.928875 0.279326 0.421961 0.162708
H12   H     H_    0.071100 0.279283 0.577830 0.162664
H13   H     H_    0.571269 0.859676 0.565545 0.172043
H14   H     H_    0.428743 0.859642 0.434388 0.171968
H15   H     H_    0.928702 0.359695 0.422222 0.175131
H16   H     H_    0.071292 0.359656 0.577690 0.175049
H17   H     H_    0.052993 0.220594 0.508050 0.187882
H18   H     H_    0.946957 0.220550 0.491714 0.187860
H19   H     H_    0.446887 0.720587 0.401249 0.183214
H20   H     H_    0.553173 0.720532 0.598624 0.183115
H21   H     H_    0.563101 0.956761 0.339255 0.178557
H22   H     H_    0.436153 0.958470 0.659980 0.178965
H23   H     H_    0.022582 0.425617 0.298236 0.178666
H24   H     H_    0.979834 0.425485 0.704175 0.178738
H25   H     H_    0.018453 0.779325 0.584487 0.157845
H26   H     H_    0.981771 0.779056 0.416442 0.161193
H27   H     H_    0.522685 0.279293 0.587489 0.160010
H28   H     H_    0.477817 0.279102 0.413513 0.163486
H29   H     H_    0.018015 0.860031 0.584196 0.171660
H30   H     H_    0.982109 0.859774 0.416207 0.172125
H31   H     H_    0.522106 0.360041 0.587147 0.170112
H32   H     H_    0.478164 0.359850 0.413326 0.170662
H33   H     H_    0.504325 0.074925 0.281102 0.184137
H34   H     H_    0.497051 0.075562 0.720342 0.194713
H35   H     H_    0.051282 0.554409 0.328351 0.186518
H36   H     H_    0.946841 0.553255 0.669847 0.196053
H37   H     H_    0.435412 0.041355 0.159278 0.179064
H38   H     H_    0.565340 0.040619 0.841520 0.179264
H39   H     H_    0.976357 0.571647 0.200749 0.174355
H40   H     H_    0.021194 0.572832 0.796840 0.174669
H41   H     H_    0.430909 0.964897 0.206641 0.162042
H42   H     H_    0.568469 0.964221 0.792733 0.161589
H43   H     H_    0.924906 0.514908 0.200834 0.162299
H44   H     H_    0.074474 0.517972 0.798521 0.160385
H45   H     H_    0.494193 0.923168 0.217488 0.172125
H46   H     H_    0.504437 0.923512 0.781099 0.171919
H47   H     H_    0.947633 0.442857 0.170617 0.172271
H48   H     H_    0.054202 0.445064 0.831170 0.171784
H49   H     H_    0.718046 0.940666 0.178917 0.179171
H50   H     H_    0.281956 0.940603 0.821083 0.178992
H51   H     H_    0.218329 0.551636 0.171509 0.179317
H52   H     H_    0.781668 0.551579 0.828465 0.179429
H53   H     H_    0.637616 0.942981 0.099999 0.185555
H54   H     H_    0.362385 0.942919 0.900003 0.185472
H55   H     H_    0.137782 0.551915 0.094104 0.181406
H56   H     H_    0.862216 0.551859 0.905872 0.181514
O1    O     O_R   0.565460 0.963010 0.065460 -0.634767
O2    O     O_R   0.434540 0.963010 0.934540 -0.634891
O3    O     O_R   0.065460 0.463010 0.065460 -0.572025
O4    O     O_R   0.934540 0.463010 0.934540 -0.572029
O5    O     O_R   0.934500 0.999950 0.469270 -0.610760
O6    O     O_R   0.065500 0.999950 0.530730 -0.610760
O7    O     O_R   0.434500 0.499950 0.469270 -0.561635
O8    O     O_R   0.565500 0.499950 0.530730 -0.561711
O9    O     O_R   0.934490 0.999950 0.399700 -0.577195
O10   O     O_R   0.065510 0.999950 0.600300 -0.577306
O11   O     O_R   0.434490 0.499950 0.399700 -0.625066
O12   O     O_R   0.565510 0.499950 0.600300 -0.625134
O13   O     O_R   0.000010 0.934490 0.534800 -0.631700
O14   O     O_R   0.999990 0.934490 0.465200 -0.631272
O15   O     O_R   0.500010 0.434490 0.534800 -0.628023
O16   O     O_R   0.499990 0.434490 0.465200 -0.627715
O17   O     O_R   0.565400 0.036920 0.065400 -0.558667
O18   O     O_R   0.434600 0.036920 0.934600 -0.558625
O19   O     O_R   0.065400 0.536920 0.065400 -0.622317
O20   O     O_R   0.934600 0.536920 0.934600 -0.622360
O21   O     O_R   0.499990 0.963010 0.061610 -0.622097
O22   O     O_R   0.500010 0.963010 0.938390 -0.622135
O23   O     O_R   0.999990 0.463010 0.061610 -0.591324
O24   O     O_R   0.000010 0.463010 0.938390 -0.590947
O25   O     O_R   0.499940 0.036920 0.061550 -0.589360
O26   O     O_R   0.500060 0.036920 0.938450 -0.589393
O27   O     O_R   0.999940 0.536920 0.061550 -0.622345
O28   O     O_R   0.000060 0.536920 0.938450 -0.622705
O29   O     O_R   0.536910 0.934410 0.536900 -0.635572
O30   O     O_R   0.463090 0.934410 0.463100 -0.637140
O31   O     O_R   0.036910 0.434410 0.536900 -0.633086
O32   O     O_R   0.963090 0.434410 0.463100 -0.635009
O33   O     O_R   0.536920 0.999880 0.475310 -0.585428
O34   O     O_R   0.463080 0.999880 0.524690 -0.581051
O35   O     O_R   0.036920 0.499880 0.475310 -0.582794
O36   O     O_R   0.963080 0.499880 0.524690 -0.574030
O37   O     O_R   0.463000 0.999950 0.401380 -0.616383
O38   O     O_R   0.537000 0.999950 0.598620 -0.629814
O39   O     O_R   0.963000 0.499950 0.401380 -0.618963
O40   O     O_R   0.037000 0.499950 0.598620 -0.633943
O41   O     O_R   0.536940 0.065340 0.536940 -0.583320
O42   O     O_R   0.463060 0.065340 0.463060 -0.562750
O43   O     O_R   0.036940 0.565340 0.536940 -0.580614
O44   O     O_R   0.963060 0.565340 0.463060 -0.561916
O45   O     O_R   0.999920 0.065420 0.534690 -0.572475
O46   O     O_R   0.000080 0.065420 0.465310 -0.572523
O47   O     O_R   0.499920 0.565420 0.534690 -0.574753
O48   O     O_R   0.500080 0.565420 0.465310 -0.574874
Zn1   Zn    Zn3+2 0.500000 0.950610 0.000000 1.011586
Zn2   Zn    Zn3+2 0.000000 0.450610 0.000000 1.101943
Zn3   Zn    Zn3+2 0.500000 0.049320 0.000000 1.147209
Zn4   Zn    Zn3+2 0.000000 0.549320 0.000000 1.028136
Zn5   Zn    Zn3+2 0.549320 0.999860 0.549320 1.063919
Zn6   Zn    Zn3+2 0.450680 0.999860 0.450680 1.079325
Zn7   Zn    Zn3+2 0.049320 0.499860 0.549320 1.068943
Zn8   Zn    Zn3+2 0.950680 0.499860 0.450680 1.085518
Zn9   Zn    Zn3+2 0.999970 0.999950 0.546410 1.095676
Zn10  Zn    Zn3+2 0.000030 0.999950 0.453590 1.095963
Zn11  Zn    Zn3+2 0.499970 0.499950 0.546410 1.110956
Zn12  Zn    Zn3+2 0.500030 0.499950 0.453590 1.111106
Cl1   Cl    Cl    0.585611 0.042229 0.303350 -0.504570
Cl2   Cl    Cl    0.415177 0.044178 0.697476 -0.500061
Cl3   Cl    Cl    0.093689 0.478042 0.311196 -0.466547
Cl4   Cl    Cl    0.907058 0.475363 0.689608 -0.464780
Cl5   Cl    Cl    0.738529 0.072873 0.285702 -0.411507
Cl6   Cl    Cl    0.261470 0.072951 0.714271 -0.411386
Cl7   Cl    Cl    0.236918 0.425538 0.284902 -0.429651
Cl8   Cl    Cl    0.763086 0.425604 0.715137 -0.430040
S1    S     S_3+6 0.868493 0.067675 0.304556 0.105833
O49   O     O_2   0.837844 0.104139 0.260394 -0.179002
O50   O     O_2   0.906630 0.088108 0.366086 -0.312574
O51   O     O_3   0.887403 0.041637 0.280547 -0.520670
H57   H     H_    0.906355 0.063589 0.285212 0.386601
S2    S     S_3+6 0.131509 0.067641 0.695366 0.105920
O52   O     O_2   0.162160 0.104091 0.739495 -0.178808
O53   O     O_2   0.093378 0.088096 0.633814 -0.312556
O54   O     O_3   0.112589 0.041580 0.719391 -0.520675
H58   H     H_    0.093631 0.063524 0.714688 0.386653
S3    S     S_3+6 0.368065 0.565348 0.433570 0.104653
O55   O     O_2   0.337511 0.600593 0.418888 -0.201213
O56   O     O_2   0.385542 0.539192 0.487760 -0.234332
O57   O     O_3   0.410195 0.590588 0.451525 -0.566838
H59   H     H_    0.422561 0.611183 0.485116 0.384209
S4    S     S_3+6 0.631923 0.565369 0.566327 0.104753
O58   O     O_2   0.662469 0.600623 0.580951 -0.200980
O59   O     O_2   0.614454 0.539218 0.512182 -0.234338
O60   O     O_3   0.589786 0.590596 0.548327 -0.566829
H60   H     H_    0.577367 0.611136 0.514627 0.384258
Cl9   Cl    Cl    0.762725 0.048572 0.189684 -0.459064
Cl10  Cl    Cl    0.237276 0.048523 0.810259 -0.458624
Cl11  Cl    Cl    0.261844 0.548028 0.331561 -0.422479
Cl12  Cl    Cl    0.738150 0.548075 0.668377 -0.422519
Cl13  Cl    Cl    0.070021 0.130133 0.513654 -0.489415
Cl14  Cl    Cl    0.929935 0.130083 0.486186 -0.489440
Cl15  Cl    Cl    0.429854 0.630093 0.372577 -0.535878
Cl16  Cl    Cl    0.570196 0.630028 0.627355 -0.535766
S5    S     S_3+6 0.577091 0.231250 0.530015 0.097299
O61   O     O_2   0.563650 0.251642 0.475298 -0.245154
O62   O     O_2   0.592944 0.267043 0.575016 -0.290274
O63   O     O_3   0.619145 0.195926 0.564373 -0.453434
H61   H     H_    0.641754 0.213285 0.571844 0.403292
S6    S     S_3+6 0.423680 0.231344 0.471875 0.099962
O64   O     O_2   0.437498 0.250905 0.527190 -0.251273
O65   O     O_2   0.408065 0.267777 0.427665 -0.287446
O66   O     O_3   0.381278 0.196350 0.436849 -0.448464
H62   H     H_    0.358959 0.213667 0.430067 0.403205
S7    S     S_3+6 0.080379 0.731598 0.538805 0.083144
O67   O     O_2   0.069853 0.752135 0.486329 -0.258956
O68   O     O_2   0.094013 0.767313 0.582654 -0.306217
O69   O     O_3   0.123044 0.696463 0.576386 -0.458938
H63   H     H_    0.146605 0.713951 0.586323 0.394181
S8    S     S_3+6 0.920261 0.731470 0.463363 0.085790
O70   O     O_2   0.931200 0.751219 0.516469 -0.264794
O71   O     O_2   0.906641 0.767778 0.420112 -0.303453
O72   O     O_3   0.877398 0.696532 0.425362 -0.454360
H64   H     H_    0.854076 0.713916 0.416117 0.394177
S9    S     S_3+6 0.543818 0.130371 0.467477 0.098607
O73   O     O_2   0.553404 0.162700 0.442443 -0.207713
O74   O     O_2   0.584792 0.104062 0.518037 -0.213871
O75   O     O_3   0.503658 0.096276 0.410421 -0.603021
H65   H     H_    0.508180 0.093515 0.384239 0.376203
S10   S     S_3+6 0.455829 0.129860 0.532125 0.107978
O76   O     O_2   0.446450 0.161416 0.557977 -0.188857
O77   O     O_2   0.414514 0.104358 0.480635 -0.185141
O78   O     O_3   0.495068 0.094709 0.588141 -0.592255
H66   H     H_    0.521489 0.113309 0.619703 0.347555
S11   S     S_3+6 0.049863 0.630804 0.476814 0.096726
O79   O     O_2   0.060973 0.663304 0.453881 -0.216141
O80   O     O_2   0.090789 0.605606 0.529966 -0.215775
O81   O     O_3   0.011915 0.595650 0.419539 -0.602835
H67   H     H_    0.020426 0.590872 0.398386 0.375258
S12   S     S_3+6 0.950217 0.630139 0.523511 0.106929
O82   O     O_2   0.939266 0.661845 0.547246 -0.199616
O83   O     O_2   0.909063 0.605549 0.469762 -0.184420
O84   O     O_3   0.987534 0.594121 0.579769 -0.589172
H68   H     H_    0.014005 0.612122 0.612914 0.343073
S13   S     S_3+6 0.632449 0.066728 0.196743 0.111872
O85   O     O_2   0.663524 0.082486 0.261722 -0.171944
O86   O     O_2   0.614298 0.105950 0.155208 -0.234837
O87   O     O_3   0.590901 0.039753 0.178625 -0.573336
H69   H     H_    0.579074 0.060878 0.187640 0.402362
S14   S     S_3+6 0.367555 0.066849 0.803260 0.111919
O88   O     O_2   0.336486 0.082660 0.738277 -0.171695
O89   O     O_2   0.385685 0.106035 0.844778 -0.234649
O90   O     O_3   0.409121 0.039928 0.821408 -0.573676
H70   H     H_    0.420972 0.061109 0.812448 0.402554
S15   S     S_3+6 0.131720 0.436893 0.198903 0.116613
O91   O     O_2   0.162907 0.424595 0.265208 -0.150438
O92   O     O_2   0.094274 0.462759 0.179966 -0.309333
O93   O     O_3   0.111783 0.390593 0.156729 -0.516293
H71   H     H_    0.093138 0.376872 0.159972 0.387438
S16   S     S_3+6 0.868278 0.436996 0.801112 0.116911
O94   O     O_2   0.837089 0.424745 0.734813 -0.149845
O95   O     O_2   0.905717 0.462894 0.820028 -0.309157
O96   O     O_3   0.888228 0.390666 0.843311 -0.516414
H72   H     H_    0.906884 0.376987 0.840086 0.387649

loop_
_geom_bond_atom_site_label_1
_geom_bond_atom_site_label_2
_ccdc_geom_bond_type
C99   C103  A    
C42   Cl6   S    
C37   S13   S    
C23   C155  T    
C26   H50   S    
C119  C161  S    
C4    C36   S    
S3    O56   D    
O54   H58   S    
O42   Zn6   S    
C103  H15   S    
C112  C124  A    
C55   C59   A    
C26   C50   A    
C85   H21   S    
C29   C33   A    
C100  C104  A    
C9    C13   S    
C46   O26   A    
C131  S11   S    
C8    C168  S    
C54   C74   A    
C11   C15   S    
O37   Zn6   S    
C12   C16   S    
C27   C51   A    
O63   H61   S    
C70   C74   A    
O25   Zn3   S    
S6    O64   D    
C5    C13   S    
S16   O96   S    
C141  C145  A    
C125  C135  A    
C7    C15   S    
C8    C16   S    
C11   C167  S    
O45   Zn9   S    
C58   H6    S    
O12   Zn11  S    
C141  H29   S    
C107  C124  S    
C41   C49   A    
C32   H56   S    
C139  H27   S    
C63   C67   A    
C83   O42   A    
C25   C29   A    
S13   O87   S    
C81   O35   A    
C86   H22   S    
C82   O36   A    
C102  H14   S    
C28   C32   A    
C127  C136  A    
C30   H54   S    
C62   C66   A    
C109  H17   S    
C98   C102  A    
S12   O84   S    
C84   O43   A    
C67   S3    S    
C48   O28   A    
O14   Zn10  S    
C110  C123  A    
S3    O55   D    
C144  H32   S    
O5    Zn9   S    
C68   C72   A    
C115  C118  A    
S6    O66   S    
O57   H59   S    
C80   O38   A    
C57   H5    S    
O51   H57   S    
C129  C133  A    
C60   H8    S    
C96   O15   A    
C49   C73   S    
S2    O52   D    
C90   C118  S    
C2    O2    A    
C10   C162  S    
C63   C93   S    
C111  C124  A    
O1    Zn1   S    
S8    O70   D    
C15   H35   S    
C140  H28   S    
C57   C61   A    
C38   S14   S    
O6    Zn10  S    
C59   C63   A    
C60   C64   A    
C78   C106  S    
C64   C94   S    
C48   O24   A    
C166  H42   S    
C66   C70   A    
C77   C105  S    
C87   C159  S    
C88   C160  S    
C127  C131  A    
C97   C107  A    
C61   C65   A    
C5    C21   S    
C132  C134  A    
S5    O61   D    
O84   H68   S    
C21   C153  T    
C47   O23   A    
C16   H36   S    
C24   C156  T    
C6    C22   S    
O48   Zn12  S    
O33   Zn5   S    
O78   H66   S    
O30   Zn6   S    
O35   Zn7   S    
S11   O79   D    
O41   Zn5   S    
C160  H48   S    
S11   O81   S    
C94   O8    A    
C120  Cl2   S    
C99   C108  A    
C78   O31   A    
C64   C68   A    
O7    Zn11  S    
C40   S16   S    
O18   Zn3   S    
C50   C74   S    
C6    C14   S    
O39   Zn8   S    
C121  C163  S    
C122  C164  S    
O87   H69   S    
C95   O13   A    
C85   C119  S    
O93   H71   S    
C16   C122  S    
C45   O25   A    
O47   Zn11  S    
C116  C118  A    
C43   Cl7   S    
C19   C151  T    
O2    Zn1   S    
C98   H10   S    
C110  C114  A    
C47   O27   A    
C120  C162  S    
O29   Zn5   S    
C5    C85   S    
S5    O63   S    
C4    O4    A    
C11   H39   S    
S8    O72   S    
S12   O83   D    
S4    O59   D    
S9    O74   D    
C139  C148  A    
C100  C108  A    
C159  H47   S    
C30   C34   A    
C89   O46   A    
C79   O33   A    
C69   Cl9   S    
C77   O29   A    
O27   Zn4   S    
C46   O22   A    
C10   C14   S    
C157  C165  S    
O69   H63   S    
C109  C123  A    
O38   Zn5   S    
C66   S2    S    
C8    C88   S    
S1    O49   D    
C125  C129  A    
C79   C153  S    
C2    O18   A    
S10   O77   D    
C3    C35   S    
C10   C166  S    
S15   O93   S    
C11   C163  S    
C19   C163  S    
O46   Zn10  S    
C9    C161  S    
O28   Zn4   S    
S14   O90   S    
C17   C161  S    
C42   C50   A    
C113  C117  A    
C89   C117  S    
C26   C30   A    
C82   O40   A    
C100  H12   S    
C112  C116  A    
C101  H13   S    
S10   O78   S    
C112  H20   S    
C7    C167  S    
C110  H18   S    
C128  S8    S    
C17   C149  T    
C68   S4    S    
C52   C76   S    
C32   C36   A    
C81   O39   A    
C158  H46   S    
C96   C146  S    
C91   O9    A    
C6    C86   S    
C10   H38   S    
C18   C150  T    
C93   O7    A    
C7    C23   S    
C14   H34   S    
C8    C24   S    
C37   C41   A    
S7    O69   S    
C114  C117  A    
C40   C44   A    
O75   H65   S    
C28   H52   S    
O81   H67   S    
O16   Zn12  S    
O4    Zn2   S    
O20   Zn4   S    
S6    O65   D    
C4    O20   A    
C58   C62   A    
C143  C146  A    
C6    C166  S    
C27   H51   S    
C113  Cl13  S    
C54   H2    S    
C25   H49   S    
C90   O47   A    
C95   C145  S    
C131  C134  A    
C115  Cl15  S    
C104  C106  A    
C116  Cl16  S    
O96   H72   S    
S4    O58   D    
C160  C168  S    
C29   H53   S    
S13   O86   D    
C84   C134  S    
S2    O53   D    
C91   O5    A    
C160  C164  S    
S1    O51   S    
C128  C136  A    
C54   C58   A    
C126  C130  A    
S15   O91   D    
C20   C164  S    
O40   Zn7   S    
C84   O44   A    
C102  C105  A    
S14   O88   D    
C7    C87   S    
O34   Zn6   S    
C69   C73   A    
C15   C121  S    
C53   H1    S    
C119  Cl1   S    
C56   H4    S    
C96   O16   A    
C142  C145  A    
C85   C157  S    
C55   H3    S    
S3    O57   S    
C138  H26   S    
C53   C73   A    
C144  C146  A    
C138  C142  A    
C3    O3    A    
C45   O21   A    
C87   C121  S    
C53   C57   A    
C72   Cl12  S    
C27   C31   A    
C33   C37   A    
C98   C107  A    
C20   C152  T    
S2    O54   S    
C35   C39   A    
S7    O67   D    
C99   H11   S    
C12   C164  S    
C97   H9    S    
O72   H64   S    
C83   O41   A    
O26   Zn3   S    
C88   C122  S    
C104  H16   S    
C47   C151  S    
C126  C135  A    
C14   C120  S    
C48   C152  S    
C79   O37   A    
C31   C35   A    
C130  C133  A    
C80   O34   A    
C70   Cl10  S    
C108  C123  S    
C157  C161  S    
C158  C166  S    
C87   H23   S    
C1    O1    A    
C88   H24   S    
C137  C141  A    
C2    C34   S    
C137  C147  A    
O22   Zn1   S    
C140  C144  A    
C81   C155  S    
S11   O80   D    
C80   C154  S    
S8    O71   D    
O44   Zn8   S    
C111  H19   S    
O11   Zn12  S    
C125  S5    S    
C78   O32   A    
O17   Zn3   S    
C9    C165  S    
C18   C162  S    
C165  H41   S    
C43   C51   A    
C65   C69   A    
O43   Zn7   S    
C67   C71   A    
C132  S12   S    
C25   C49   A    
C167  H43   S    
C56   C60   A    
S4    O60   S    
O60   H60   S    
C56   C76   A    
O66   H62   S    
C168  H44   S    
C59   H7    S    
C72   C76   A    
C94   O12   A    
C140  C148  A    
C1    C33   S    
S9    O73   D    
C93   O11   A    
O24   Zn2   S    
C89   O45   A    
C12   H40   S    
O3    Zn2   S    
C51   C75   S    
C38   C42   A    
C39   S15   S    
O36   Zn8   S    
O21   Zn1   S    
C121  Cl3   S    
C122  Cl4   S    
S15   O92   D    
C62   C92   S    
C114  Cl14  S    
C5    C165  S    
O13   Zn9   S    
C109  C113  A    
C82   C156  S    
O10   Zn9   S    
O9    Zn10  S    
C142  H30   S    
C139  C143  A    
C159  C167  S    
C128  C132  A    
C13   C119  S    
C101  C105  A    
C137  H25   S    
C36   C40   A    
C130  S10   S    
C39   C43   A    
S5    O62   D    
O15   Zn11  S    
S16   O95   D    
C95   O14   A    
C92   O6    A    
C138  C147  A    
C126  S6    S    
C3    O19   A    
O8    Zn12  S    
O23   Zn2   S    
S7    O68   D    
C1    O17   A    
C31   H55   S    
C46   C150  S    
C129  S9    S    
C159  C163  S    
S16   O94   D    
O90   H70   S    
C22   C154  T    
S9    O75   S    
C44   Cl8   S    
O31   Zn7   S    
C34   C38   A    
C127  S7    S    
O32   Zn8   S    
C90   O48   A    
C77   O30   A    
C12   C168  S    
C86   C120  S    
C86   C158  S    
C41   Cl5   S    
C143  H31   S    
S13   O85   D    
C157  H45   S    
C55   C75   A    
S1    O50   D    
C9    H37   S    
C71   C75   A    
C28   C52   A    
C44   C52   A    
S10   O76   D    
C92   O10   A    
S12   O82   D    
C13   H33   S    
C103  C106  A    
C45   C149  S    
S14   O89   D    
C83   C133  S    
C136  C147  S    
C158  C162  S    
C65   S1    S    
C135  C148  S    
C111  C115  A    
O19   Zn4   S    
C97   C101  A    
C61   C91   S    
C71   Cl11  S    
