data_mof_unit_7164.cif
_audit_creation_date              2013-03-05T16:43:41-0500
_audit_creation_method            fapswitch 2.2
_symmetry_space_group_name_H-M    P1
_symmetry_Int_Tables_number       1
_space_group_crystal_system       triclinic
_cell_length_a                    15.739637
_cell_length_b                    10.693144
_cell_length_c                    9.889784
_cell_angle_alpha                 89.921571
_cell_angle_beta                  89.882114
_cell_angle_gamma                 90.313684
_cell_volume                      1664.48195876

loop_
_atom_site_label
_atom_site_type_symbol
_atom_site_description
_atom_site_fract_x
_atom_site_fract_y
_atom_site_fract_z
_atom_type_partial_charge
O1    O     O_R   0.500010 0.316790 0.614690 -0.625455
O2    O     O_R   0.500000 0.316760 0.385350 -0.612098
C1    C     C_R   0.498165 0.260303 0.500246 0.900216
O3    O     O_R   0.376780 0.500010 0.614650 -0.588054
O4    O     O_R   0.376770 0.499970 0.385310 -0.623180
C2    C     C_R   0.338062 0.499973 0.500034 0.879812
Zn1   Zn    Zn3+2 0.500010 0.500020 0.653130 1.063129
Zn2   Zn    Zn3+2 0.499990 0.499980 0.346870 1.032672
O5    O     O_R   0.500000 0.683240 0.614650 -0.575062
O6    O     O_R   0.499990 0.683210 0.385310 -0.618326
O7    O     O_R   0.623230 0.500030 0.614690 -0.576613
O8    O     O_R   0.623220 0.499990 0.385350 -0.558385
C3    C     C_R   0.498748 0.739692 0.499955 0.920998
C4    C     C_R   0.661889 0.500042 0.499899 0.952905
C5    C     C_3   0.972503 0.444790 0.612602 0.219483
C6    C     C_3   0.029045 0.377201 0.508031 -0.299546
H1    H     H_    0.053041 0.279939 0.514418 0.210825
C7    C     C_1   0.249334 0.499536 0.499878 -0.079366
C8    C     C_1   0.750512 0.498919 0.499606 -0.061920
C9    C     C_3   0.027594 0.562386 0.603549 0.282888
C10   C     C_3   0.083489 0.497656 0.498815 -0.027080
C11   C     C_3   0.971527 0.616139 0.490046 -0.287202
C12   C     C_3   0.916310 0.496283 0.499465 -0.082979
C13   C     C_3   0.028702 0.550203 0.382900 -0.196855
C14   C     C_3   0.972904 0.431906 0.394983 0.332300
C15   C     C_1   0.174161 0.498925 0.499453 0.109467
C16   C     C_1   0.825620 0.497628 0.499430 0.142467
H2    H     H_    0.053098 0.591529 0.287298 0.211324
H3    H     H_    0.947333 0.713336 0.484697 0.223091
C17   C     C_R   0.501108 0.063522 0.621933 -0.058903
C18   C     C_R   0.488666 0.128795 0.501965 -0.011250
C19   C     C_R   0.464000 0.064591 0.384757 -0.178540
H4    H     H_    0.448780 0.113682 0.292311 0.165290
C20   C     C_R   0.464043 0.935102 0.384778 -0.223472
H5    H     H_    0.447052 0.885958 0.293038 0.159646
C21   C     C_R   0.490869 0.871263 0.500959 -0.009599
C22   C     C_R   0.504682 0.936782 0.620252 0.001958
C23   C     C_3   0.569172 0.930714 0.732336 0.079674
C24   C     C_3   0.564709 0.074181 0.734495 0.041050
H6    H     H_    0.543160 0.885445 0.824952 0.095842
H7    H     H_    0.536451 0.111645 0.829296 0.091526
C25   C     C_R   0.445218 0.424389 0.071915 -0.042656
N1    N     N_R   0.499430 0.499140 0.142800 -0.164190
C26   C     C_R   0.558042 0.568657 0.072555 0.448493
C27   C     C_R   0.561196 0.562790 0.927167 0.433779
N2    N     N_R   0.499430 0.499180 0.857150 -0.117446
C28   C     C_R   0.443086 0.428495 0.929454 -0.088900
C29   C     C_3   0.347831 0.436454 0.926237 0.038571
C30   C     C_3   0.350155 0.427735 0.080713 0.343700
H8    H     H_    0.317593 0.357520 0.871558 0.125825
H9    H     H_    0.327881 0.514441 0.131319 0.153838
N3    N     N_R   0.653069 0.882502 0.694208 0.285594
O9    O     O_R   0.713756 0.883536 0.783249 -0.324279
O10   O     O_R   0.668718 0.839752 0.573614 -0.371636
N4    N     N_R   0.643323 0.138999 0.694465 0.268327
O11   O     O_R   0.677615 0.121475 0.576073 -0.314538
O12   O     O_R   0.677049 0.220559 0.775968 -0.340509
O13   O     O_3   0.613854 0.642994 0.144876 -0.582062
C31   C     C_3   0.596301 0.770308 0.119800 -0.185536
H10   H     H_    0.620206 0.826123 0.206383 0.211831
H11   H     H_    0.527056 0.789845 0.110004 0.121950
H12   H     H_    0.630593 0.803212 0.028229 0.208289
O14   O     O_3   0.622026 0.628626 0.855105 -0.608063
C32   C     C_3   0.702383 0.573991 0.876610 -0.062986
H13   H     H_    0.747072 0.610762 0.799111 0.210780
H14   H     H_    0.700588 0.470336 0.865505 0.191434
H15   H     H_    0.728538 0.599987 0.976858 0.195292
N5    N     N_R   0.316635 0.558386 0.880874 0.234942
O15   O     O_R   0.244443 0.564380 0.817644 -0.309385
O16   O     O_R   0.354422 0.661754 0.916826 -0.420045
O17   O     O_3   0.311738 0.320521 0.142303 -0.574403
C33   C     C_3   0.332467 0.204619 0.081843 -0.225705
H16   H     H_    0.400840 0.195745 0.055958 0.128957
H17   H     H_    0.292096 0.187031 0.992010 0.183411
H18   H     H_    0.317462 0.129170 0.155288 0.194888
N6    N     N_R   0.943321 0.387098 0.738165 0.258165
O18   O     O_R   0.998241 0.339922 0.821714 -0.264347
O19   O     O_R   0.862636 0.377651 0.764925 -0.340349
N7    N     N_R   0.943869 0.360164 0.278566 0.243318
O20   O     O_R   0.999157 0.311229 0.196649 -0.287859
O21   O     O_R   0.863188 0.345187 0.255148 -0.330018
N8    N     N_R   0.059622 0.636481 0.716207 0.250622
O22   O     O_R   0.038243 0.609016 0.839850 -0.282944
O23   O     O_R   0.106403 0.734726 0.692602 -0.316826

loop_
_geom_bond_atom_site_label_1
_geom_bond_atom_site_label_2
_geom_bond_distance
_ccdc_geom_bond_type
N4    O11   1.302492 A    
C6    C10   1.545620 S    
C11   H3    1.110103 S    
C9    N8    1.457261 S    
C7    C15   1.183194 T    
Zn2   N1    2.018278 S    
C10   C15   1.427157 S    
C24   H7    1.112928 S    
C27   N2    1.372628 A    
C26   C27   1.440074 A    
Zn1   O7    1.975576 S    
C21   C22   1.389844 A    
N6    O19   1.300055 A    
C33   H18   1.109003 S    
O4    C2    1.286720 A    
O7    C4    1.286933 A    
C23   N3    1.468892 S    
C5    C6    1.545708 S    
C20   H5    1.082415 S    
O5    C3    1.284437 A    
C24   N4    1.468335 S    
C18   C19   1.402435 A    
C26   O13   1.382618 S    
C6    H1    1.110197 S    
C30   H9    1.112263 S    
C12   C16   1.427586 S    
C8    C16   1.182320 T    
C5    C12   1.531375 S    
C5    N6    1.458102 S    
C31   H10   1.109637 S    
O1    Zn1   1.996356 S    
O3    Zn1   1.977344 S    
N3    O10   1.301369 A    
N6    O18   1.300392 A    
C5    C9    1.525964 S    
C2    C7    1.396525 S    
C31   H11   1.115238 S    
Zn1   N2    2.017723 S    
C23   C24   1.536279 S    
C13   C14   1.540351 S    
C3    C21   1.413088 S    
O3    C2    1.288068 A    
N7    O21   1.300386 A    
N5    O15   1.299954 A    
O13   C31   1.412336 S    
C27   O14   1.381538 S    
N7    O20   1.300252 A    
C17   C22   1.356846 A    
O1    C1    1.283956 A    
C19   C20   1.384656 A    
N1    C26   1.369196 A    
C32   H15   1.109434 S    
C22   C23   1.506125 S    
C28   C29   1.502556 S    
Zn2   O8    1.977346 S    
C29   N5    1.465829 S    
C1    C18   1.413421 S    
C33   H17   1.109012 S    
C29   C30   1.530969 S    
O8    C4    1.287111 A    
N8    O23   1.300170 A    
N4    O12   1.300274 A    
C11   C13   1.560407 S    
C25   N1    1.361976 A    
N3    O9    1.300517 A    
C6    C14   1.543018 S    
Zn1   O5    1.995306 S    
N2    C28   1.362966 A    
C31   H12   1.109196 S    
C14   N7    1.457295 S    
C4    C8    1.395021 S    
O2    Zn2   1.995304 S    
C13   H2    1.110034 S    
C9    C11   1.541767 S    
C33   H16   1.110277 S    
O6    C3    1.285540 A    
O4    Zn2   1.975578 S    
C32   H13   1.109382 S    
O2    C1    1.286177 A    
O17   C33   1.416210 S    
C19   H4    1.081572 S    
C23   H6    1.111762 S    
C17   C18   1.390463 A    
C29   H8    1.108732 S    
C17   C24   1.502679 S    
C20   C21   1.402669 A    
C25   C28   1.410014 A    
C12   C14   1.529685 S    
C25   C30   1.499231 S    
O14   C32   1.412477 S    
C9    C10   1.526706 S    
Zn2   O6    1.996356 S    
N8    O22   1.300373 A    
C30   O17   1.428279 S    
C10   C13   1.543089 S    
N5    O16   1.302557 A    
C11   C12   1.547168 S    
C32   H14   1.114191 S    
