data_mof_unit_57832.cif
_audit_creation_date              2013-03-05T15:42:19-0500
_audit_creation_method            fapswitch 2.2
_symmetry_space_group_name_H-M    P1
_symmetry_Int_Tables_number       1
_space_group_crystal_system       triclinic
_cell_length_a                    7.826316
_cell_length_b                    8.563761
_cell_length_c                    19.110982
_cell_angle_alpha                 91.812904
_cell_angle_beta                  84.992749
_cell_angle_gamma                 93.359646
_cell_volume                      1273.33537123

loop_
_atom_site_label
_atom_site_type_symbol
_atom_site_description
_atom_site_fract_x
_atom_site_fract_y
_atom_site_fract_z
_atom_type_partial_charge
O1    O     O_R   0.389250 0.738570 0.504600 -0.624515
O2    O     O_R   0.610750 0.261430 0.495400 -0.624506
O3    O     O_R   0.678400 0.711620 0.492580 -0.587976
O4    O     O_R   0.321600 0.288380 0.507420 -0.588040
C1    C     C_R   0.545355 0.794442 0.498260 0.951855
C2    C     C_R   0.454645 0.205558 0.501740 0.951845
O5    O     O_R   0.355380 0.513500 0.607880 -0.592017
O6    O     O_R   0.644620 0.486500 0.392120 -0.592043
O7    O     O_R   0.644530 0.486550 0.595850 -0.596439
O8    O     O_R   0.355470 0.513450 0.404150 -0.596412
C3    C     C_R   0.500254 0.498667 0.634391 0.905290
C4    C     C_R   0.499749 0.501343 0.365609 0.905283
Zn1   Zn    Zn3+2 0.306930 0.517990 0.508030 1.101633
Zn2   Zn    Zn3+2 0.693070 0.482010 0.491970 1.101640
C5    C     C_R   0.359235 0.545885 0.752763 -0.167562
C6    C     C_R   0.640799 0.454213 0.247237 -0.167577
H1    H     H_    0.255688 0.597811 0.729347 0.237205
H2    H     H_    0.744333 0.402256 0.270649 0.237183
C7    C     C_R   0.352027 0.535561 0.825421 0.294903
C8    C     C_R   0.648039 0.464612 0.174581 0.294901
C9    C     C_R   0.489122 0.469530 0.855345 -0.175101
C10   C     C_R   0.510963 0.530685 0.144662 -0.175066
C11   C     C_R   0.629365 0.411036 0.812724 0.291725
C12   C     C_R   0.370716 0.589159 0.187285 0.291706
C13   C     C_R   0.631283 0.421940 0.740081 -0.177890
C14   C     C_R   0.368767 0.578184 0.259926 -0.177893
H3    H     H_    0.735428 0.374235 0.706674 0.228392
H4    H     H_    0.264624 0.625880 0.293336 0.228410
C15   C     C_R   0.498291 0.490402 0.710240 -0.156944
C16   C     C_R   0.501730 0.509665 0.289762 -0.156924
N1    N     N_R   0.565549 0.617375 0.958744 -0.083614
N2    N     N_R   0.434532 0.382853 0.041262 -0.083626
N3    N     N_R   0.568829 0.633489 0.027869 -0.044640
N4    N     N_R   0.431252 0.366739 0.972137 -0.044660
C17   C     C_R   0.502735 0.516513 0.069794 0.407665
C18   C     C_R   0.497345 0.483714 0.930212 0.407681
C19   C     C_2   0.569321 0.957836 0.497241 -0.329460
C20   C     C_2   0.430679 0.042164 0.502759 -0.329489
H5    H     H_    0.700544 0.008205 0.491952 0.210569
H6    H     H_    0.299455 0.991795 0.508047 0.210563
N5    N     N_2   0.950330 0.457950 0.481240 0.032523
N6    N     N_2   0.049670 0.542050 0.518760 0.032530
N7    N     N_R   0.207714 0.596223 0.867771 0.242705
O9    O     O_R   0.147613 0.529681 0.925792 -0.263159
O10   O     O_R   0.123582 0.707715 0.844514 -0.302716
N8    N     N_R   0.792362 0.403982 0.132227 0.242699
O11   O     O_R   0.852489 0.470583 0.074225 -0.263149
O12   O     O_R   0.876482 0.292462 0.155467 -0.302703
N9    N     N_R   0.771864 0.344318 0.841888 0.243368
O13   O     O_R   0.921399 0.344354 0.806239 -0.312794
O14   O     O_R   0.750169 0.269894 0.900579 -0.294551
N10   N     N_R   0.228240 0.655925 0.158126 0.243367
O15   O     O_R   0.078695 0.655881 0.193768 -0.312768
O16   O     O_R   0.249969 0.730400 0.099449 -0.294551
N11   N     N_R   0.025952 0.407640 0.416947 0.303657
O17   O     O_R   0.001120 0.482375 0.360887 -0.374653
O18   O     O_R   0.076707 0.265688 0.409954 -0.367418
N12   N     N_R   0.974036 0.592401 0.583045 0.303628
O19   O     O_R   0.998987 0.517788 0.639128 -0.374648
O20   O     O_R   0.923161 0.734320 0.590000 -0.367423

loop_
_geom_bond_atom_site_label_1
_geom_bond_atom_site_label_2
_geom_bond_distance
_ccdc_geom_bond_type
C12   N10   1.443668 S    
C5    C7    1.390188 A    
O7    Zn2   1.988021 S    
N1    N3    1.326205 A    
C5    C15   1.397266 A    
C19   C20   1.333055 D    
C1    C19   1.401370 S    
C13   H3    1.081905 S    
N7    O10   1.301672 A    
N5    N6    1.279190 D    
C14   H4    1.081895 S    
O6    C4    1.295998 A    
C6    C8    1.390184 A    
C4    C16   1.452205 S    
N6    N12   1.383871 S    
N11   O17   1.299801 A    
N11   O18   1.300190 A    
N12   O19   1.299866 A    
C19   H5    1.087986 S    
C9    C18   1.438819 S    
O5    C3    1.296007 A    
C10   C17   1.438822 S    
O7    C3    1.300761 A    
N2    N4    1.326197 A    
O2    C2    1.282791 A    
O3    Zn2   1.975988 S    
O8    C4    1.300766 A    
Zn2   N5    2.027845 S    
O1    C1    1.282790 A    
C6    H2    1.082993 S    
Zn1   N6    2.027845 S    
C20   H6    1.087986 S    
N10   O16   1.300932 A    
C14   C16   1.395926 A    
N4    C18   1.353048 A    
C9    C11   1.414786 A    
N7    O9    1.301161 A    
C13   C15   1.395928 A    
O2    Zn2   1.960992 S    
C10   C12   1.414779 A    
C11   N9    1.443671 S    
O1    Zn1   1.960992 S    
N12   O20   1.300216 A    
N8    O12   1.301669 A    
O3    C1    1.288800 A    
O5    Zn1   1.979712 S    
C11   C13   1.393084 A    
N10   O15   1.301763 A    
C3    C15   1.452207 S    
O4    C2    1.288800 A    
N9    O13   1.301761 A    
N8    O11   1.301140 A    
O4    Zn1   1.975988 S    
C5    H1    1.082990 S    
N1    C18   1.353577 A    
N5    N11   1.383860 S    
O6    Zn2   1.979714 S    
N3    C17   1.353051 A    
C2    C20   1.401369 S    
C7    C9    1.413055 A    
C6    C16   1.397263 A    
C8    N8    1.443305 S    
N2    C17   1.353572 A    
C12   C14   1.393081 A    
C8    C10   1.413050 A    
N9    O14   1.300925 A    
O8    Zn1   1.988025 S    
C7    N7    1.443315 S    
