data_mof_unit_53816.cif
_audit_creation_date              2012-12-10T16:57:06-0500
_audit_creation_method            fapswitch 2.2
_symmetry_space_group_name_H-M    P1
_symmetry_Int_Tables_number       1
_space_group_crystal_system       triclinic
_cell_length_a                    7.717865
_cell_length_b                    8.54909
_cell_length_c                    16.890797
_cell_angle_alpha                 91.111213
_cell_angle_beta                  83.662278
_cell_angle_gamma                 93.487272
_cell_volume                      1105.5146165

loop_
_atom_site_label
_atom_site_type_symbol
_atom_type_description
_atom_site_fract_x
_atom_site_fract_y
_atom_site_fract_z
_atom_type_partial_charge
C1    C     C_R   0.546094 0.794786 0.497597 0.962769
C2    C     C_R   0.453917 0.205227 0.502663 0.962889
C3    C     C_2   0.570512 0.958055 0.495064 -0.377950
C4    C     C_2   0.429565 0.041983 0.505694 -0.378841
C5    C     C_R   0.482577 0.497924 0.653313 0.891455
C6    C     C_R   0.517497 0.502429 0.346713 0.886265
C7    C     C_R   0.493220 0.506980 0.738137 -0.137578
C8    C     C_R   0.507873 0.496333 0.261804 -0.108422
C9    C     C_R   0.615510 0.419112 0.772354 -0.155715
C10   C     C_R   0.388966 0.588095 0.227613 -0.144112
C11   C     C_R   0.653177 0.454897 0.850406 0.429607
C12   C     C_R   0.355332 0.557709 0.148519 0.348308
C13   C     C_R   0.555076 0.568029 0.894283 -0.023508
C14   C     C_R   0.453169 0.445110 0.104092 0.010482
C15   C     C_R   0.436991 0.654743 0.859364 -0.120634
C16   C     C_R   0.567540 0.354370 0.139024 -0.113376
C17   C     C_R   0.406368 0.624622 0.781466 -0.200810
C18   C     C_R   0.594697 0.379684 0.217679 -0.251887
C19   C     C_2   0.539567 0.570876 0.980049 -0.029660
C20   C     C_2   0.469165 0.443282 0.018320 -0.066808
H1    H     H_    0.682104 0.306958 0.244424 0.160793
H2    H     H_    0.316522 0.694611 0.754621 0.170157
H3    H     H_    0.438967 0.334794 0.986609 0.169879
H4    H     H_    0.570091 0.679411 0.011626 0.184922
H5    H     H_    0.362253 0.740984 0.893784 0.210415
H6    H     H_    0.641942 0.268457 0.104179 0.205130
H7    H     H_    0.703646 0.008645 0.484228 0.172634
H8    H     H_    0.296450 0.991384 0.516600 0.172381
H9    H     H_    0.022401 0.382377 0.440508 0.183965
H10   H     H_    0.977602 0.617639 0.559485 0.185522
N1    N     N_2   0.953500 0.457650 0.478520 -0.190062
N2    N     N_2   0.046500 0.542350 0.521480 -0.189732
O1    O     O_R   0.388470 0.738640 0.505270 -0.605783
O2    O     O_R   0.611530 0.261360 0.494730 -0.605005
O3    O     O_R   0.679650 0.711510 0.491500 -0.648277
O4    O     O_R   0.320350 0.288490 0.508500 -0.648867
O5    O     O_R   0.337210 0.515200 0.623500 -0.614318
O6    O     O_R   0.662790 0.484800 0.376500 -0.619024
O7    O     O_R   0.628380 0.488060 0.609730 -0.632429
O8    O     O_R   0.371620 0.511940 0.390270 -0.634072
Zn1   Zn    Zn3+2 0.305580 0.518120 0.509190 0.920222
Zn2   Zn    Zn3+2 0.694420 0.481880 0.490810 0.919040
C21   C     C_R   0.691078 0.281762 0.729020 0.172884
C22   C     C_R   0.857695 0.294728 0.685948 0.029859
C23   C     C_R   0.927024 0.164210 0.645760 -0.155500
C24   C     C_R   0.830389 0.020420 0.647916 -0.127059
C25   C     C_R   0.663672 0.007171 0.689820 -0.099707
C26   C     C_R   0.593804 0.137429 0.730090 -0.132762
H11   H     H_    0.933190 0.405864 0.683382 0.150516
H12   H     H_    0.055586 0.174486 0.612958 0.148231
H13   H     H_    0.884119 0.919561 0.616640 0.126383
H14   H     H_    0.588430 0.896087 0.690803 0.128434
H15   H     H_    0.464491 0.125856 0.762389 0.134025
C27   C     C_R   0.313146 0.724076 0.272068 0.165935
C28   C     C_R   0.408618 0.869313 0.270810 -0.116662
C29   C     C_R   0.337688 0.998644 0.311526 -0.107724
C30   C     C_R   0.171719 0.983549 0.354058 -0.132383
C31   C     C_R   0.076926 0.838838 0.356422 -0.125277
C32   C     C_R   0.147243 0.709285 0.315722 0.021585
H16   H     H_    0.537213 0.882371 0.237922 0.149021
H17   H     H_    0.411483 0.110469 0.310364 0.130437
H18   H     H_    0.117137 0.083710 0.385646 0.124933
H19   H     H_    0.948891 0.827176 0.389650 0.144256
H20   H     H_    0.072718 0.597646 0.317994 0.122829
S1    S     S_3+6 0.194527 0.661651 0.105716 0.030051
O9    O     O_2   0.258586 0.830500 0.096413 -0.271935
O10   O     O_2   0.158214 0.595918 0.025675 -0.254455
O11   O     O_3   0.005354 0.652938 0.165630 -0.530498
H21   H     H_    0.969714 0.539794 0.169359 0.353302
S2    S     S_3+6 0.819822 0.357326 0.892415 0.017449
O12   O     O_2   0.850980 0.421738 0.973346 -0.258239
O13   O     O_2   0.766794 0.185568 0.899019 -0.309964
O14   O     O_3   0.008527 0.380101 0.832629 -0.567934
H22   H     H_    0.092169 0.318545 0.857588 0.390007

loop_
_geom_bond_atom_site_label_1
_geom_bond_atom_site_label_2
_ccdc_geom_bond_type
C22   H11   S    
C2    C4    S    
N2    Zn1   S    
C6    O6    A    
C25   H14   S    
N1    Zn2   S    
C5    O5    A    
C18   H1    S    
C9    C11   A    
C12   S1    S    
C27   C28   A    
C19   C20   D    
O2    Zn2   S    
C20   H3    S    
C21   C22   A    
S1    O11   S    
O1    Zn1   S    
C7    C9    A    
C2    O2    A    
C28   C29   A    
C3    H7    S    
C19   H4    S    
C30   C31   A    
C11   S2    S    
C1    O1    A    
C30   H18   S    
H9    N1    S    
C16   C18   A    
C24   C25   A    
C23   C24   A    
C29   C30   A    
H10   N2    S    
C11   C13   A    
C32   H20   S    
S2    O12   D    
C10   C12   A    
C23   H12   S    
S2    O14   S    
C8    C10   A    
O8    Zn1   S    
C4    H8    S    
C12   C14   A    
O6    Zn2   S    
O7    Zn2   S    
C6    O8    A    
C27   C32   A    
C13   C15   A    
O14   H22   S    
O5    Zn1   S    
C26   H15   S    
C10   C27   S    
C14   C16   A    
C15   H5    S    
C9    C21   S    
C13   C19   S    
C3    C4    D    
C5    O7    A    
C14   C20   S    
C17   H2    S    
C22   C23   A    
C1    O3    A    
C5    C7    S    
S1    O9    D    
C21   C26   A    
C2    O4    A    
C31   H19   S    
C15   C17   A    
O3    Zn2   S    
C29   H17   S    
C6    C8    S    
C7    C17   A    
C31   C32   A    
C28   H16   S    
S1    O10   D    
C24   H13   S    
S2    O13   D    
N1    N2    D    
C8    C18   A    
C25   C26   A    
O4    Zn1   S    
O11   H21   S    
C1    C3    S    
C16   H6    S    
