data_mof_unit_47512.cif
_audit_creation_date              2012-12-10T18:02:10-0500
_audit_creation_method            fapswitch 2.2
_symmetry_space_group_name_H-M    P1
_symmetry_Int_Tables_number       1
_space_group_crystal_system       triclinic
_cell_length_a                    10.816978
_cell_length_b                    9.506542
_cell_length_c                    23.479605
_cell_angle_alpha                 90.7469
_cell_angle_beta                  90.181892
_cell_angle_gamma                 89.953891
_cell_volume                      2414.23803341

loop_
_atom_site_label
_atom_site_type_symbol
_atom_type_description
_atom_site_fract_x
_atom_site_fract_y
_atom_site_fract_z
_atom_type_partial_charge
C1    C     C_R   0.262034 0.500012 0.499894 0.782739
C2    C     C_R   0.737959 0.499966 0.499917 0.793733
C3    C     C_R   0.607926 0.511308 0.238949 -0.136217
C4    C     C_R   0.395288 0.472511 0.761123 -0.139232
C5    C     C_R   0.610706 0.515570 0.298564 0.084933
C6    C     C_R   0.392636 0.469203 0.701509 0.082818
C7    C     C_R   0.499177 0.496843 0.329000 -0.079509
C8    C     C_R   0.501306 0.503492 0.671129 -0.069885
C9    C     C_R   0.386458 0.474409 0.299343 0.078796
C10   C     C_R   0.610773 0.541455 0.700925 0.082614
C11   C     C_R   0.387159 0.469775 0.239738 -0.123840
C12   C     C_R   0.610032 0.543955 0.760561 -0.134414
C13   C     C_R   0.496966 0.488645 0.209640 0.294853
C14   C     C_R   0.503188 0.509377 0.790465 0.303270
C15   C     C_R   0.063968 0.372250 0.496541 -0.189438
C16   C     C_R   0.936015 0.627662 0.502836 -0.189020
C17   C     C_R   0.936165 0.372216 0.496652 -0.204909
C18   C     C_R   0.063806 0.627695 0.502756 -0.198522
C19   C     C_R   0.871762 0.499933 0.499780 -0.013843
C20   C     C_R   0.128219 0.499993 0.499658 -0.016866
C21   C     C_R   0.418020 0.073458 0.467087 -0.021503
C22   C     C_R   0.581732 0.926511 0.533080 -0.019378
C23   C     C_R   0.581801 0.075443 0.533044 -0.018653
C24   C     C_R   0.418117 0.924564 0.467018 -0.017924
C25   C     C_R   0.500708 0.499137 0.391240 0.812557
C26   C     C_R   0.500299 0.500904 0.608806 0.824348
C27   C     C_R   0.560272 0.396602 0.878209 0.528561
C28   C     C_R   0.441226 0.602207 0.121769 0.525986
C29   C     C_R   0.450126 0.614089 0.881164 0.540461
C30   C     C_R   0.548912 0.383130 0.118800 0.541599
C31   C     C_R   0.447612 0.612540 0.940743 -0.038809
C32   C     C_R   0.551727 0.384863 0.059213 -0.039005
C33   C     C_R   0.501695 0.499279 0.969813 -0.048123
C34   C     C_R   0.498059 0.498353 0.030144 -0.048016
C35   C     C_R   0.559329 0.387648 0.938576 -0.042227
C36   C     C_R   0.440857 0.610247 0.061379 -0.041454
C37   C     C_R   0.391219 0.722313 0.971231 -0.212684
C38   C     C_R   0.607715 0.274816 0.028705 -0.213394
C39   C     C_R   0.386415 0.723970 0.030802 0.140753
C40   C     C_R   0.612892 0.273367 0.969128 0.140785
Cu1   Cu    Cu3+1 0.500000 0.640660 0.500000 0.931490
Cu2   Cu    Cu3+1 0.500000 0.359340 0.500000 0.933658
H1    H     H_    0.350239 0.808968 0.948278 0.182989
H2    H     H_    0.648047 0.187777 0.051659 0.183103
H3    H     H_    0.692154 0.526413 0.214933 0.143421
H4    H     H_    0.313285 0.446279 0.785144 0.140154
H5    H     H_    0.352171 0.128822 0.440888 0.115350
H6    H     H_    0.647070 0.871075 0.559607 0.112482
H7    H     H_    0.647231 0.132439 0.559532 0.118377
H8    H     H_    0.352570 0.867598 0.440585 0.120513
N1    N     N_R   0.505151 0.507200 0.851506 -0.453960
N2    N     N_R   0.495084 0.490795 0.148526 -0.453029
N3    N     N_R   0.500000 0.852070 0.500000 -0.157526
N4    N     N_R   0.500000 0.147930 0.500000 -0.158340
O1    O     O_R   0.319640 0.618740 0.500000 -0.594155
O2    O     O_R   0.680360 0.381260 0.500000 -0.595156
O3    O     O_R   0.680360 0.618740 0.500000 -0.592888
O4    O     O_R   0.319640 0.381260 0.500000 -0.587224
O5    O     O_R   0.499960 0.618810 0.417880 -0.585642
O6    O     O_R   0.500040 0.381190 0.582120 -0.583567
O7    O     O_R   0.500040 0.618810 0.582120 -0.582811
O8    O     O_R   0.499960 0.381190 0.417880 -0.570276
O9    O     O_2   0.614680 0.296696 0.845754 -0.554435
O10   O     O_2   0.389838 0.704238 0.154196 -0.558051
O11   O     O_2   0.398215 0.721932 0.852833 -0.550380
O12   O     O_2   0.599294 0.274251 0.147060 -0.550153
C41   C     C_3   0.320476 0.848808 0.058306 -0.365591
C42   C     C_3   0.411696 0.959132 0.080990 -0.700026
H9    H     H_    0.361262 0.039755 0.106484 0.242818
H10   H     H_    0.484436 0.911744 0.108055 0.281022
H11   H     H_    0.457231 0.012385 0.044992 0.221780
H12   H     H_    0.259924 0.902046 0.026834 0.173690
H13   H     H_    0.255198 0.814470 0.091628 0.239952
C43   C     C_3   0.677383 0.147589 0.941570 -0.365180
C44   C     C_3   0.584893 0.040139 0.917706 -0.702885
H14   H     H_    0.536319 0.987868 0.953094 0.222598
H15   H     H_    0.514656 0.089831 0.889953 0.279566
H16   H     H_    0.634805 0.958335 0.892610 0.242535
H17   H     H_    0.744497 0.181174 0.908901 0.240897
H18   H     H_    0.735680 0.091894 0.973230 0.173919
C45   C     C_3   0.733470 0.540284 0.328345 -0.414249
C46   C     C_3   0.792702 0.401747 0.346053 -0.808304
H19   H     H_    0.733020 0.345880 0.376723 0.262168
H20   H     H_    0.808122 0.333070 0.308094 0.261794
H21   H     H_    0.883342 0.423122 0.366750 0.241294
H22   H     H_    0.798438 0.595388 0.299600 0.203800
H23   H     H_    0.721743 0.610067 0.366243 0.209896
C47   C     C_3   0.272451 0.431382 0.671705 -0.414632
C48   C     C_3   0.203539 0.562994 0.652779 -0.810451
H24   H     H_    0.259900 0.624059 0.622428 0.258022
H25   H     H_    0.115894 0.532106 0.631335 0.240219
H26   H     H_    0.181253 0.630711 0.690275 0.261101
H27   H     H_    0.289623 0.361042 0.634459 0.216465
H28   H     H_    0.211259 0.371895 0.700753 0.205054
C49   C     C_3   0.263722 0.458693 0.329594 -0.397961
C50   C     C_3   0.223214 0.305127 0.330456 -0.811931
H29   H     H_    0.294991 0.239927 0.351325 0.254412
H30   H     H_    0.135630 0.295870 0.354683 0.236248
H31   H     H_    0.207556 0.264896 0.286399 0.252267
H32   H     H_    0.267709 0.499621 0.374008 0.190753
H33   H     H_    0.192017 0.522011 0.307568 0.205147
C51   C     C_3   0.730150 0.575876 0.670486 -0.417350
C52   C     C_3   0.797902 0.442159 0.651875 -0.814965
H34   H     H_    0.821004 0.377689 0.689571 0.261807
H35   H     H_    0.740388 0.378691 0.621979 0.250630
H36   H     H_    0.885041 0.470567 0.630009 0.240646
H37   H     H_    0.712087 0.642953 0.633020 0.206063
H38   H     H_    0.792545 0.637611 0.699029 0.204219
H39   H     H_    0.301643 0.453472 0.216406 0.146039
H40   H     H_    0.693145 0.570984 0.784139 0.139837
H41   H     H_    0.112165 0.272454 0.493957 0.149807
H42   H     H_    0.887832 0.727462 0.505447 0.147600
H43   H     H_    0.888073 0.272415 0.494155 0.152359
H44   H     H_    0.111877 0.727501 0.505338 0.151216

loop_
_geom_bond_atom_site_label_1
_geom_bond_atom_site_label_2
_ccdc_geom_bond_type
C22   H6    S    
C11   H39   S    
C8    C26   S    
Cu1   Cu2   S    
C49   C50   S    
Cu1   O7    S    
Cu2   O4    S    
C12   H40   S    
C45   C46   S    
C2    O3    A    
C17   H43   S    
C4    H4    S    
C38   C40   A    
C26   O7    A    
C6    C47   S    
C42   H11   S    
C21   N4    A    
C33   C35   A    
C23   H7    S    
C50   H31   S    
C11   C13   A    
C5    C45   S    
C15   C17   A    
C41   H12   S    
Cu1   O1    S    
C30   N2    A    
Cu2   O2    S    
C42   H9    S    
C50   H30   S    
C31   C33   A    
C51   H38   S    
C41   H13   S    
C32   C38   A    
C48   H25   S    
C9    C49   S    
C18   C20   A    
C45   H22   S    
C3    C13   A    
C43   H18   S    
C18   H44   S    
C27   N1    A    
C22   N3    A    
C24   H8    S    
C15   C20   A    
C47   H28   S    
C43   C44   S    
C41   C42   S    
C15   H41   S    
C10   C51   S    
Cu1   O5    S    
C4    C6    A    
Cu2   O6    S    
C5    C7    A    
C49   H32   S    
C6    C8    A    
C27   C35   A    
C24   N3    A    
C3    H3    S    
C31   C37   A    
C32   C34   A    
C37   H1    S    
C44   H14   S    
C38   H2    S    
C13   N2    S    
C9    C11   A    
C14   N1    S    
C29   C31   A    
C50   H29   S    
C33   C34   A    
C51   H37   S    
C52   H35   S    
C30   O12   S    
C48   H26   S    
C44   H15   S    
Cu1   N3    S    
C45   H23   S    
C10   C12   A    
C29   O11   S    
C28   O10   S    
C8    C10   A    
C12   C14   A    
C46   H20   S    
C43   H17   S    
C16   H42   S    
C23   N4    A    
C29   N1    A    
C7    C9    A    
Cu2   O8    S    
C47   H27   S    
C1    C20   S    
C2    C19   S    
C39   C41   S    
C36   C39   A    
C3    C5    A    
C46   H21   S    
C7    C25   S    
C35   C40   A    
C1    O1    A    
Cu1   O3    S    
C37   C39   A    
C2    O2    A    
C1    O4    A    
Cu2   N4    S    
C30   C32   A    
C28   N2    A    
C16   C19   A    
C17   C19   A    
C40   C43   S    
C52   H36   S    
C34   C36   A    
C25   O8    A    
C4    C14   A    
C51   C52   S    
C44   H16   S    
C47   C48   S    
C28   C36   A    
C16   C18   A    
C46   H19   S    
C21   C24   A    
C52   H34   S    
C42   H10   S    
C22   C23   A    
C27   O9    S    
C25   O5    A    
C48   H24   S    
C26   O6    A    
C49   H33   S    
C21   H5    S    
