data_mof_unit_18184.cif
_audit_creation_date              2012-12-10T17:17:23-0500
_audit_creation_method            fapswitch 2.2
_symmetry_space_group_name_H-M    P1
_symmetry_Int_Tables_number       1
_space_group_crystal_system       triclinic
_cell_length_a                    10.19875
_cell_length_b                    10.650916
_cell_length_c                    12.262736
_cell_angle_alpha                 90.88895
_cell_angle_beta                  109.201919
_cell_angle_gamma                 95.635532
_cell_volume                      1250.24291051

loop_
_atom_site_label
_atom_site_type_symbol
_atom_type_description
_atom_site_fract_x
_atom_site_fract_y
_atom_site_fract_z
_atom_type_partial_charge
C1    C     C_R   0.047131 0.732675 0.485802 0.941015
C2    C     C_R   0.202740 0.510800 0.840411 -0.178002
C3    C     C_2   0.063283 0.865132 0.462126 -0.428135
C4    C     C_R   0.132980 0.508263 0.714779 0.859425
C5    C     C_2   0.950600 0.928368 0.419294 0.033901
C6    C     C_2   0.904049 0.131343 0.481101 -0.365160
C7    C     C_2   0.972573 0.064347 0.428214 -0.204167
C8    C     C_2   0.432733 0.511671 0.509977 -0.121500
C9    C     C_2   0.567268 0.488281 0.490035 -0.134122
C10   C     C_R   0.945594 0.266077 0.501845 0.926816
C11   C     C_R   0.865835 0.487195 0.285852 0.863592
C12   C     C_R   0.419250 0.489459 0.994911 0.085895
C13   C     C_R   0.725298 0.324742 0.992185 -0.190424
C14   C     C_R   0.787988 0.461759 0.164292 -0.057814
C15   C     C_R   0.158787 0.584894 0.916588 -0.003627
C16   C     C_R   0.242093 0.604548 0.031988 -0.180564
C17   C     C_R   0.372395 0.560761 0.070389 -0.213035
C18   C     C_1   0.808241 0.867907 0.370204 0.240253
C19   C     C_1   0.031330 0.644975 0.879583 0.197900
C20   C     C_R   0.325508 0.450538 0.884375 0.071237
C21   C     C_R   0.556085 0.454483 0.026186 0.083516
C22   C     C_R   0.590527 0.363455 0.957331 0.171853
C23   C     C_R   0.489027 0.310758 0.856514 -0.249080
C24   C     C_R   0.357953 0.353668 0.820274 -0.186402
C25   C     C_R   0.660344 0.509595 0.123794 -0.255398
C26   C     C_R   0.823338 0.371864 0.097264 -0.191837
H1    H     H_    0.922891 0.333694 0.128633 0.154936
H2    H     H_    0.642681 0.586740 0.173550 0.161251
H3    H     H_    0.432599 0.580772 0.160531 0.151194
H4    H     H_    0.208837 0.658818 0.091790 0.151869
H5    H     H_    0.281651 0.308721 0.742423 0.171068
H6    H     H_    0.058362 0.108290 0.402917 0.181307
H7    H     H_    0.819650 0.087224 0.507901 0.158034
H8    H     H_    0.168262 0.914452 0.489187 0.147572
H9    H     H_    0.564528 0.414243 0.427278 0.164167
H10   H     H_    0.435480 0.585729 0.572711 0.170658
H11   H     H_    0.684608 0.622855 0.603989 0.177405
H12   H     H_    0.315376 0.377112 0.396020 0.158539
H13   H     H_    0.511544 0.237899 0.804674 0.149357
H14   H     H_    0.752444 0.254251 0.941027 0.139483
N1    N     N_2   0.313640 0.446500 0.454900 -0.193096
N2    N     N_2   0.686360 0.553430 0.545150 -0.180890
N3    N     N_1   0.694861 0.819943 0.331034 -0.231198
N4    N     N_1   0.929303 0.693144 0.850264 -0.211695
O1    O     O_R   0.936910 0.692950 0.509080 -0.588158
O2    O     O_R   0.138320 0.658600 0.480130 -0.602420
O3    O     O_R   0.002900 0.525670 0.675280 -0.592953
O4    O     O_R   0.204310 0.491320 0.646330 -0.603425
O5    O     O_R   0.861680 0.341400 0.519870 -0.605087
O6    O     O_R   0.063090 0.307050 0.490920 -0.613246
O7    O     O_R   0.795690 0.508680 0.353670 -0.606969
O8    O     O_R   0.997100 0.474330 0.324720 -0.614240
Zn1   Zn    Zn3+2 0.865520 0.522940 0.519330 0.959488
Zn2   Zn    Zn3+2 0.134480 0.477060 0.480670 0.930915

loop_
_geom_bond_atom_site_label_1
_geom_bond_atom_site_label_2
_ccdc_geom_bond_type
C12   C17   A    
C6    C10   S    
C2    C4    S    
C23   C24   A    
C6    C7    D    
C11   O8    A    
C17   H3    S    
C6    H7    S    
O3    Zn1   S    
C1    O1    A    
C12   C20   A    
C9    N2    D    
C24   H5    S    
O1    Zn1   S    
C8    N1    D    
N2    Zn1   S    
C21   C22   A    
C14   C26   A    
C25   H2    S    
O4    Zn2   S    
C2    C15   A    
N1    Zn2   S    
O2    Zn2   S    
C26   H1    S    
O6    Zn2   S    
C5    C18   S    
C23   H13   S    
O8    Zn2   S    
C13   C22   A    
C15   C19   S    
C14   C25   A    
C4    O4    A    
C1    O2    A    
C11   C14   S    
O5    Zn1   S    
C13   C26   A    
C11   O7    A    
C2    C20   A    
C15   C16   A    
C10   O6    A    
C3    C5    D    
C19   N4    T    
H12   N1    S    
C5    C7    S    
C8    H10   S    
H11   N2    S    
C9    H9    S    
C21   C25   A    
C22   C23   A    
C16   C17   A    
C13   H14   S    
C7    H6    S    
C3    H8    S    
O7    Zn1   S    
C18   N3    T    
C10   O5    A    
C16   H4    S    
C12   C21   A    
C20   C24   A    
C8    C9    S    
C1    C3    S    
C4    O3    A    
