data_mof_unit_19544.cif
_audit_creation_date              2012-10-26T19:57:53-0400
_audit_creation_method            fapswitch 2.2
_symmetry_space_group_name_H-M    P1
_symmetry_Int_Tables_number       1
_space_group_crystal_system       triclinic
_cell_length_a                    7.456128
_cell_length_b                    8.678826
_cell_length_c                    12.957581
_cell_angle_alpha                 88.087669
_cell_angle_beta                  78.756126
_cell_angle_gamma                 102.706758
_cell_volume                      799.702901019

loop_
_atom_site_label
_atom_site_type_symbol
_atom_type_description
_atom_site_fract_x
_atom_site_fract_y
_atom_site_fract_z
_atom_type_partial_charge
C1    C     C_R   0.452823 0.199679 0.503217 0.555137
C2    C     C_R   0.730118 0.598762 0.115542 0.085601
C3    C     C_R   0.598007 0.544611 0.857807 -0.125596
C4    C     C_R   0.401993 0.455389 0.142193 -0.125596
C5    C     C_R   0.585584 0.537305 0.966016 0.027475
C6    C     C_R   0.414416 0.462695 0.033983 0.027475
C7    C     C_2   0.426135 0.031898 0.504783 -0.138232
C8    C     C_2   0.573865 0.968101 0.495217 -0.138232
C9    C     C_R   0.547177 0.800321 0.496783 0.555137
C10   C     C_R   0.464349 0.489784 0.701743 0.561975
C11   C     C_R   0.535651 0.510216 0.298257 0.561975
C12   C     C_R   0.558207 0.522132 0.183920 0.015058
C13   C     C_R   0.441793 0.477868 0.816079 0.015058
C14   C     C_R   0.258038 0.395425 0.992976 -0.081566
C15   C     C_R   0.741962 0.604575 0.007024 -0.081566
C16   C     C_R   0.269882 0.401238 0.884458 0.085602
Cu1   Cu    Cu3+1 0.686350 0.517570 0.488220 1.006495
Cu2   Cu    Cu3+1 0.313650 0.482430 0.511780 1.006495
H1    H     H_    0.126794 0.336875 0.045341 0.151697
H2    H     H_    0.873206 0.663125 0.954659 0.151697
H3    H     H_    0.933522 0.375804 0.583058 0.255372
H4    H     H_    0.066478 0.624196 0.416942 0.255372
H5    H     H_    0.283641 0.960506 0.513806 0.141301
H6    H     H_    0.716359 0.039494 0.486194 0.141301
H7    H     H_    0.270224 0.396274 0.194032 0.145793
H8    H     H_    0.729776 0.603726 0.805968 0.145794
I1    I     I_    0.977548 0.718674 0.164495 -0.367512
I2    I     I_    0.022452 0.281326 0.835505 -0.367512
N1    N     N_2   0.033570 0.455950 0.529530 -0.251686
N2    N     N_2   0.966430 0.544050 0.470470 -0.251686
O1    O     O_R   0.621060 0.286250 0.492350 -0.508087
O2    O     O_R   0.378940 0.713750 0.507650 -0.508087
O3    O     O_R   0.306310 0.256580 0.512240 -0.489946
O4    O     O_R   0.693690 0.743420 0.487760 -0.489946
O5    O     O_R   0.631800 0.512400 0.642670 -0.514211
O6    O     O_R   0.368200 0.487600 0.357330 -0.514212
O7    O     O_R   0.317060 0.482730 0.662570 -0.469069
O8    O     O_R   0.682940 0.517270 0.337430 -0.469069

loop_
_geom_bond_atom_site_label_1
_geom_bond_atom_site_label_2
_ccdc_geom_bond_type
C16   I2    S    
C11   O8    A    
C11   C12   S    
C10   O5    A    
Cu1   N2    S    
C4    C12   A    
Cu1   O5    S    
C3    C13   A    
C2    I1    S    
C2    C12   A    
C4    H7    S    
C1    O3    A    
C7    C8    D    
Cu2   N1    S    
C2    C15   A    
N1    N2    D    
H3    N1    S    
C10   O7    A    
C7    H5    S    
C5    C6    A    
C11   O6    A    
C8    H6    S    
Cu2   O7    S    
C9    O4    A    
Cu1   Cu2   S    
Cu1   O8    S    
C15   H2    S    
Cu1   O1    S    
Cu2   O3    S    
C14   C16   A    
C5    C15   A    
C6    C14   A    
Cu1   O4    S    
C1    O1    A    
Cu2   O2    S    
C4    C6    A    
C13   C16   A    
H4    N2    S    
C9    O2    A    
C1    C7    S    
Cu2   O6    S    
C14   H1    S    
C3    H8    S    
C8    C9    S    
C3    C5    A    
C10   C13   S    
