data_mof_unit_24380.cif
_audit_creation_date              2012-12-11T15:13:51-0500
_audit_creation_method            fapswitch 2.2
_symmetry_space_group_name_H-M    P1
_symmetry_Int_Tables_number       1
_space_group_crystal_system       triclinic
_cell_length_a                    6.943861
_cell_length_b                    13.489179
_cell_length_c                    20.111745
_cell_angle_alpha                 104.095287
_cell_angle_beta                  90.437756
_cell_angle_gamma                 90.180018
_cell_volume                      1827.01131581

loop_
_atom_site_label
_atom_site_type_symbol
_atom_type_description
_atom_site_fract_x
_atom_site_fract_y
_atom_site_fract_z
_atom_type_partial_charge
O1    O     O_R   0.506780 0.600060 0.449950 -0.540496
O2    O     O_R   0.179840 0.597110 0.589410 -0.535242
O3    O     O_R   0.004570 0.399940 0.550050 -0.527652
C1    C     C_R   0.348947 0.618966 0.616903 0.720198
O4    O     O_R   0.177380 0.612160 0.452890 -0.543343
O5    O     O_R   0.002100 0.415100 0.412560 -0.542748
C2    C     C_R   0.345862 0.639154 0.436453 0.687830
O6    O     O_R   0.509250 0.584900 0.587440 -0.539979
O7    O     O_3   0.337570 0.435330 0.486930 -0.370870
V1    V     V_3+5 0.064650 0.512000 0.502430 1.441875
O8    O     O_R   0.672090 0.402890 0.410590 -0.545917
C3    C     C_R   0.840352 0.380880 0.383116 0.671388
O9    O     O_R   0.674540 0.387840 0.547110 -0.541532
C4    C     C_R   0.843854 0.360768 0.563512 0.716842
V2    V     V_3+5 0.564040 0.488000 0.497570 1.428680
O10   O     O_3   0.840990 0.564670 0.513070 -0.370559
C5    C     C_R   0.947291 0.113295 0.610108 -0.158931
H1    H     H_    0.949584 0.163756 0.516881 0.102622
H2    H     H_    0.997794 0.991657 0.694055 0.116135
H3    H     H_    0.996106 0.037354 0.584711 0.111044
C6    C     C_R   0.856032 0.282813 0.602688 -0.037156
C7    C     C_R   0.795808 0.316787 0.931805 0.131927
C8    C     C_R   0.759142 0.389647 0.895014 -0.104939
C9    C     C_R   0.776242 0.365605 0.824028 -0.149853
C10   C     C_R   0.834477 0.267141 0.787271 0.086775
C11   C     C_R   0.874028 0.192540 0.825048 0.035546
C12   C     C_R   0.855238 0.240363 0.714379 0.089841
C13   C     C_R   0.917430 0.140313 0.681205 0.140111
C14   C     C_R   0.952105 0.068240 0.719166 -0.206875
C15   C     C_R   0.930553 0.093597 0.789800 -0.190696
C16   C     C_R   0.820240 0.309881 0.673119 -0.170053
C17   C     C_R   0.919894 0.184718 0.571317 -0.177793
C18   C     C_R   0.853245 0.217895 0.897390 -0.118912
H4    H     H_    0.771504 0.386780 0.694153 0.124575
H5    H     H_    0.742601 0.426258 0.799684 0.144483
H6    H     H_    0.714312 0.465697 0.921617 0.147496
H7    H     H_    0.960478 0.034711 0.816577 0.118803
C19   C     C_3   0.676862 0.224305 0.226955 -0.106310
C20   C     C_3   0.766797 0.201112 0.292242 -0.147092
H8    H     H_    0.692567 0.161577 0.327251 0.102952
H9    H     H_    0.528321 0.203362 0.207633 0.113280
C21   C     C_3   0.849053 0.310533 0.312526 -0.015609
C22   C     C_3   0.759243 0.334502 0.248037 -0.119545
C23   C     C_3   0.946343 0.297832 0.208125 -0.113459
C24   C     C_3   0.036201 0.274610 0.273381 -0.134318
C25   C     C_3   0.953833 0.164418 0.252255 -0.154230
C26   C     C_3   0.864000 0.188475 0.187787 -0.003709
H10   H     H_    0.678690 0.404951 0.246640 0.114569
H11   H     H_    0.021394 0.337362 0.173311 0.138311
H12   H     H_    0.184796 0.295417 0.292685 0.112935
H13   H     H_    0.034331 0.093914 0.253516 0.112674
C27   C     C_3   0.539504 0.735207 0.727566 -0.144742
C28   C     C_3   0.437931 0.840336 0.748225 -0.140466
H14   H     H_    0.503885 0.915075 0.747289 0.117549
H15   H     H_    0.689700 0.722517 0.708962 0.127882
C29   C     C_3   0.357150 0.811770 0.812309 -0.037243
C30   C     C_3   0.459268 0.707641 0.792553 -0.142560
C31   C     C_3   0.277479 0.661303 0.751778 0.178551
C32   C     C_3   0.174863 0.765710 0.772379 -0.135758
C33   C     C_3   0.255589 0.793354 0.707416 -0.172545
C34   C     C_3   0.357247 0.689013 0.687542 -0.040116
H16   H     H_    0.542418 0.672276 0.828078 0.127185
H17   H     H_    0.024597 0.778145 0.790948 0.122952
H18   H     H_    0.172567 0.827923 0.671502 0.104086
C35   C     C_R   0.360675 0.893642 0.392262 -0.161960
H19   H     H_    0.354659 0.844129 0.485848 0.100439
H20   H     H_    0.368417 0.019690 0.309758 0.116210
H21   H     H_    0.362985 0.973756 0.419094 0.111722
C36   C     C_R   0.353708 0.716665 0.397004 -0.028840
C37   C     C_R   0.355507 0.680293 0.067001 -0.162490
C38   C     C_R   0.351004 0.603484 0.102068 -0.073572
C39   C     C_R   0.351535 0.627797 0.173495 -0.150352
C40   C     C_R   0.356386 0.730927 0.212048 0.071078
C41   C     C_R   0.360102 0.809380 0.175647 0.070791
C42   C     C_R   0.357556 0.758834 0.285336 0.075190
C43   C     C_R   0.361284 0.864131 0.320308 0.146789
C44   C     C_R   0.365194 0.939348 0.283410 -0.217393
C45   C     C_R   0.364828 0.912629 0.212297 -0.201406
C46   C     C_R   0.354737 0.686021 0.325412 -0.213951
C47   C     C_R   0.356208 0.820244 0.430367 -0.177703
C48   C     C_R   0.359717 0.782852 0.103021 -0.081014
H22   H     H_    0.352222 0.604909 0.302909 0.091670
H23   H     H_    0.355851 0.659726 0.011436 0.115985
H24   H     H_    0.347999 0.563859 0.196713 0.112179
H25   H     H_    0.347380 0.524214 0.073650 0.156549
H26   H     H_    0.368006 0.974048 0.186259 0.115260
O11   O     O_R   0.203580 0.914920 0.912610 -0.544575
O12   O     O_R   0.535710 0.887810 0.047120 -0.541912
O13   O     O_R   0.710730 0.084950 0.087430 -0.536775
C49   C     C_R   0.367338 0.860874 0.063645 0.686593
O14   O     O_R   0.533010 0.902850 0.910600 -0.545352
O15   O     O_R   0.708010 0.100090 0.949930 -0.531099
C50   C     C_R   0.364197 0.881460 0.882978 0.688693
O16   O     O_R   0.206300 0.899780 0.050100 -0.540468
O17   O     O_3   0.375170 0.064580 0.013100 -0.361464
V3    V     V_3+5 0.648200 0.988020 0.997570 1.449111
O18   O     O_R   0.038030 0.112330 0.952840 -0.536723
C51   C     C_R   0.868312 0.139056 0.936248 0.742098
O19   O     O_R   0.040730 0.097300 0.089360 -0.543100
C52   C     C_R   0.872560 0.118692 0.117026 0.713073
V4    V     V_3+5 0.148780 0.012220 0.002360 1.450691
O20   O     O_3   0.871930 0.935430 0.986900 -0.374833
I1    I     I_    0.158154 0.517637 0.756738 -0.504670
I2    I     I_    0.757019 0.360687 0.039652 -0.492320

loop_
_geom_bond_atom_site_label_1
_geom_bond_atom_site_label_2
_ccdc_geom_bond_type
C23   H11   S    
O12   V3    S    
V4    O20   S    
V3    O20   S    
C40   C41   A    
O17   V3    S    
H20   C44   S    
C1    O6    A    
O18   C51   A    
O15   C51   A    
C30   H16   S    
C28   H14   S    
C27   C28   S    
C6    C16   A    
C35   C43   A    
C4    C6    S    
C13   C14   A    
C27   C34   S    
O5    C3    A    
C19   C20   S    
V2    O10   S    
O11   C50   A    
O15   V3    S    
C5    H3    S    
C7    I2    S    
C29   C30   S    
C18   C51   S    
C37   C48   A    
C3    C21   S    
O14   V3    S    
C38   H25   S    
O8    V2    S    
O16   V4    S    
C8    C9    A    
C37   C38   A    
O1    V2    S    
C22   H10   S    
C27   H15   S    
C45   H26   S    
C31   C34   S    
C32   C33   S    
C35   C47   A    
O11   V4    S    
O9    C4    A    
C40   C42   A    
C28   C33   S    
C49   O16   A    
C20   C21   S    
C29   C50   S    
C6    C17   A    
C9    H5    S    
O13   C52   A    
C12   C16   A    
C43   C44   A    
C19   H9    S    
C20   H8    S    
O4    C2    A    
C10   C11   A    
C44   C45   A    
C25   H13   S    
C26   C52   S    
C15   H7    S    
C33   C34   S    
C21   C24   S    
O2    C1    A    
C42   C43   A    
C2    C36   S    
C14   C15   A    
O14   C50   A    
C11   C18   A    
O19   C52   A    
C35   H21   S    
C16   H4    S    
C9    C10   A    
C37   H23   S    
C19   C26   S    
C39   H24   S    
O3    C4    A    
C20   C25   S    
C48   C49   S    
O19   V4    S    
O12   C49   A    
C11   C15   A    
O6    V2    S    
O9    V2    S    
C22   C23   S    
C36   C46   A    
H1    C17   S    
C21   C22   S    
C41   C48   A    
O2    V1    S    
C23   C24   S    
O7    V1    S    
C28   C29   S    
C7    C18   A    
C25   C26   S    
O1    C2    A    
C5    C13   A    
C39   C40   A    
O5    V1    S    
C46   H22   S    
O8    C3    A    
C23   C26   S    
C10   C12   A    
H19   C47   S    
C32   H17   S    
C29   C32   S    
C33   H18   S    
O13   V3    S    
O7    V2    S    
C19   C22   S    
O3    V1    S    
V1    O10   S    
C30   C31   S    
C24   H12   S    
C1    C34   S    
C31   C32   S    
C27   C30   S    
C24   C25   S    
O4    V1    S    
C38   C39   A    
C8    H6    S    
C41   C45   A    
C12   C13   A    
C5    C17   A    
C7    C8    A    
C36   C47   A    
C31   I1    S    
C42   C46   A    
O18   V4    S    
O17   V4    S    
H2    C14   S    
