data_mof_unit_7112.cif
_audit_creation_date              2012-12-10T19:00:16-0500
_audit_creation_method            fapswitch 2.2
_symmetry_space_group_name_H-M    P1
_symmetry_Int_Tables_number       1
_space_group_crystal_system       triclinic
_cell_length_a                    9.550408
_cell_length_b                    10.878058
_cell_length_c                    13.495521
_cell_angle_alpha                 91.050805
_cell_angle_beta                  73.539358
_cell_angle_gamma                 91.531345
_cell_volume                      1344.01974234

loop_
_atom_site_label
_atom_site_type_symbol
_atom_type_description
_atom_site_fract_x
_atom_site_fract_y
_atom_site_fract_z
_atom_type_partial_charge
C1    C     C_R   0.501981 0.737309 0.499714 0.794182
C2    C     C_R   0.387184 0.534076 0.809269 -0.095453
C3    C     C_R   0.408656 0.930408 0.455852 0.137028
C4    C     C_R   0.423224 0.502114 0.699364 0.783971
C5    C     C_R   0.509503 0.869721 0.492660 -0.095543
C6    C     C_R   0.618775 0.938880 0.520460 -0.210758
C7    C     C_R   0.613732 0.067076 0.523163 -0.217855
C8    C     C_R   0.501391 0.127798 0.495929 -0.098188
C9    C     C_R   0.405378 0.057100 0.455389 0.132163
C10   C     C_3   0.242124 0.052174 0.482200 -0.506849
C11   C     C_3   0.247454 0.913706 0.483997 -0.453865
C12   C     C_R   0.484729 0.567310 0.957251 0.026090
C13   C     C_R   0.954755 0.440171 0.423590 0.256722
C14   C     C_R   0.899994 0.569194 0.569204 -0.073852
C15   C     C_R   0.048964 0.569396 0.569063 -0.077963
C16   C     C_R   0.498759 0.261924 0.499918 0.796120
C17   C     C_R   0.101855 0.439118 0.424643 0.255077
C18   C     C_3   0.108612 0.304706 0.406222 -0.530457
C19   C     C_3   0.953364 0.306114 0.400134 -0.494620
C20   C     C_R   0.577314 0.503448 0.300370 0.801737
C21   C     C_R   0.770063 0.396732 0.034463 -0.198187
C22   C     C_R   0.621267 0.499140 0.186891 -0.110254
C23   C     C_R   0.480100 0.498031 0.868175 0.059405
C24   C     C_R   0.292232 0.631654 0.843630 -0.212223
C25   C     C_R   0.308098 0.707394 0.923908 -0.207568
C26   C     C_R   0.411718 0.681629 0.975293 0.031255
C27   C     C_3   0.265885 0.531570 0.190217 -0.635114
C28   C     C_1   0.456703 0.781750 0.032234 0.253286
C29   C     C_R   0.566427 0.520691 0.021440 0.045644
C30   C     C_R   0.674847 0.432573 0.979199 0.116944
C31   C     C_R   0.678865 0.373300 0.886142 -0.216751
C32   C     C_R   0.574541 0.398225 0.836309 -0.189403
C33   C     C_R   0.531355 0.545730 0.129164 0.190043
C34   C     C_R   0.745843 0.432932 0.136833 -0.230070
Cu1   Cu    Cu3+1 0.359330 0.500020 0.500010 0.937388
Cu2   Cu    Cu3+1 0.640670 0.499980 0.499990 0.941025
H1    H     H_    0.816277 0.397861 0.179667 0.161093
H2    H     H_    0.116394 0.259624 0.477115 0.219867
H3    H     H_    0.943474 0.286914 0.321181 0.191060
H4    H     H_    0.755601 0.300758 0.856010 0.142889
H5    H     H_    0.877973 0.252009 0.462550 0.219653
H6    H     H_    0.857790 0.334238 0.000577 0.143431
H7    H     H_    0.221277 0.660682 0.798848 0.151032
H8    H     H_    0.248001 0.792058 0.939985 0.148035
H9    H     H_    0.571245 0.340344 0.770881 0.152225
H10   H     H_    0.702352 0.894411 0.546065 0.160535
H11   H     H_    0.398266 0.659604 0.243489 0.267350
H12   H     H_    0.693640 0.117893 0.551509 0.152596
H13   H     H_    0.170324 0.581771 0.238520 0.210397
H14   H     H_    0.273930 0.442103 0.225566 0.227854
H15   H     H_    0.247799 0.513377 0.113693 0.228666
H16   H     H_    0.188397 0.093841 0.559019 0.200467
H17   H     H_    0.203077 0.080727 0.416453 0.209887
H18   H     H_    0.200546 0.875072 0.562518 0.197929
H19   H     H_    0.210490 0.867256 0.421430 0.203462
H20   H     H_    0.822921 0.623329 0.626476 0.142703
H21   H     H_    0.083595 0.623816 0.626128 0.132723
H22   H     H_    0.189400 0.277544 0.332823 0.194190
N1    N     N_R   0.852320 0.499070 0.499340 -0.187101
N2    N     N_R   0.148230 0.499110 0.499340 -0.183869
N3    N     N_2   0.397970 0.604640 0.180507 -0.428196
N4    N     N_1   0.492781 0.862147 0.077475 -0.303413
O1    O     O_R   0.381190 0.680360 0.500000 -0.589609
O2    O     O_R   0.618780 0.680320 0.499990 -0.584257
O3    O     O_R   0.323230 0.500000 0.650990 -0.583930
O4    O     O_R   0.560820 0.499960 0.650980 -0.581048
O5    O     O_R   0.381220 0.319680 0.500010 -0.575247
O6    O     O_R   0.618810 0.319640 0.500000 -0.590426
O7    O     O_R   0.439180 0.500040 0.349020 -0.573359
O8    O     O_R   0.676770 0.500000 0.349010 -0.580699

loop_
_geom_bond_atom_site_label_1
_geom_bond_atom_site_label_2
_ccdc_geom_bond_type
H11   N3    S    
C14   H20   S    
Cu2   O6    S    
C6    C7    A    
C3    C9    A    
C13   C17   A    
C12   C29   A    
Cu2   O8    S    
C34   H1    S    
C27   N3    S    
C21   C30   A    
C2    C4    S    
C31   C32   A    
C27   H14   S    
Cu1   O5    S    
C30   C31   A    
Cu2   N1    S    
C10   H16   S    
C23   C32   A    
C17   C18   S    
C18   H2    S    
C7    C8    A    
C8    C16   S    
C16   O5    A    
Cu2   O2    S    
C7    H12   S    
C4    O4    A    
C14   N1    A    
C15   H21   S    
C12   C23   A    
C20   O8    A    
C29   C30   A    
C11   H18   S    
C19   H3    S    
C13   N1    A    
C1    O1    A    
C25   H8    S    
C25   C26   A    
C27   H15   S    
C9    C10   S    
Cu2   O4    S    
C16   O6    A    
C2    C24   A    
C5    C6    A    
C22   C34   A    
C1    C5    S    
C20   O7    A    
C3    C11   S    
C10   C11   S    
C13   C19   S    
C17   N2    A    
C27   H13   S    
C21   H6    S    
C1    O2    A    
C29   C33   A    
C11   H19   S    
C24   C25   A    
Cu1   O7    S    
C8    C9    A    
C33   N3    S    
C18   C19   S    
C32   H9    S    
C12   C26   A    
C2    C23   A    
C22   C33   A    
C24   H7    S    
Cu1   O3    S    
C4    O3    A    
C10   H17   S    
Cu1   O1    S    
C21   C34   A    
C6    H10   S    
C31   H4    S    
C14   C15   A    
C26   C28   S    
C18   H22   S    
C15   N2    A    
C19   H5    S    
C20   C22   S    
Cu1   N2    S    
C3    C5    A    
Cu1   Cu2   S    
C28   N4    T    
