data_mof_unit_8428.cif
_audit_creation_date              2012-12-11T15:17:36-0500
_audit_creation_method            fapswitch 2.2
_symmetry_space_group_name_H-M    P1
_symmetry_Int_Tables_number       1
_space_group_crystal_system       triclinic
_cell_length_a                    7.101215
_cell_length_b                    20.004697
_cell_length_c                    22.246017
_cell_angle_alpha                 90.0
_cell_angle_beta                  89.999981
_cell_angle_gamma                 89.999913
_cell_volume                      3160.21699491

loop_
_atom_site_label
_atom_site_type_symbol
_atom_type_description
_atom_site_fract_x
_atom_site_fract_y
_atom_site_fract_z
_atom_type_partial_charge
O1    O     O_R   0.620180 0.810610 0.187990 -0.542720
O2    O     O_R   0.379820 0.189390 0.812010 -0.542713
O3    O     O_R   0.379820 0.189390 0.687990 -0.542720
O4    O     O_R   0.620180 0.810610 0.312010 -0.542714
O5    O     O_R   0.120180 0.689390 0.312010 -0.542719
O6    O     O_R   0.879820 0.310610 0.687990 -0.542713
O7    O     O_R   0.879820 0.310610 0.812010 -0.542719
O8    O     O_R   0.120180 0.689390 0.187990 -0.542713
O9    O     O_R   0.290420 0.818570 0.311590 -0.543906
O10   O     O_R   0.709580 0.181430 0.688410 -0.543905
O11   O     O_R   0.709580 0.181430 0.811590 -0.543906
O12   O     O_R   0.290420 0.818570 0.188410 -0.543905
O13   O     O_R   0.790420 0.681430 0.188410 -0.543906
O14   O     O_R   0.209580 0.318570 0.811590 -0.543904
O15   O     O_R   0.209580 0.318570 0.688410 -0.543906
O16   O     O_R   0.790420 0.681430 0.311590 -0.543904
H1    H     H_    0.039285 0.575421 0.645659 0.117964
H2    H     H_    0.960767 0.424579 0.354341 0.117964
H3    H     H_    0.960712 0.424579 0.145659 0.117964
H4    H     H_    0.039236 0.575421 0.854341 0.117964
H5    H     H_    0.539273 0.924579 0.854341 0.117964
H6    H     H_    0.460774 0.075420 0.145659 0.117964
H7    H     H_    0.460730 0.075421 0.354341 0.117965
H8    H     H_    0.539223 0.924580 0.645659 0.117964
C1    C     C_R   0.458203 0.830099 0.334639 0.699221
C2    C     C_R   0.541796 0.169903 0.665360 0.699213
C3    C     C_R   0.541797 0.169901 0.834639 0.699221
C4    C     C_R   0.458204 0.830097 0.165360 0.699212
C5    C     C_R   0.958203 0.669901 0.165361 0.699222
C6    C     C_R   0.041796 0.330097 0.834639 0.699214
C7    C     C_R   0.041797 0.330098 0.665361 0.699221
C8    C     C_R   0.958204 0.669902 0.334639 0.699215
H9    H     H_    0.047485 0.459383 0.674496 0.110250
H10   H     H_    0.952537 0.540617 0.325504 0.110256
H11   H     H_    0.952513 0.540617 0.174495 0.110250
H12   H     H_    0.047465 0.459383 0.825504 0.110256
H13   H     H_    0.547479 0.040617 0.825504 0.110250
H14   H     H_    0.452542 0.959382 0.174496 0.110256
H15   H     H_    0.452523 0.959383 0.325504 0.110250
H16   H     H_    0.547456 0.040618 0.674496 0.110256
H17   H     H_    0.017018 0.660977 0.571405 0.119021
H18   H     H_    0.983033 0.339023 0.428595 0.119026
H19   H     H_    0.982979 0.339023 0.071405 0.119022
H20   H     H_    0.016970 0.660977 0.928595 0.119026
H21   H     H_    0.517007 0.839023 0.928595 0.119023
H22   H     H_    0.483037 0.160976 0.071405 0.119026
H23   H     H_    0.482995 0.160977 0.428595 0.119023
H24   H     H_    0.516960 0.839024 0.571405 0.119026
O17   O     O_3   0.453640 0.707610 0.250000 -0.372442
O18   O     O_3   0.546360 0.292390 0.750000 -0.372442
O19   O     O_3   0.953640 0.792390 0.250000 -0.372443
O20   O     O_3   0.046360 0.207610 0.750000 -0.372442
V1    V     V_3+5 0.178800 0.757860 0.250000 1.367273
V2    V     V_3+5 0.821200 0.242140 0.750000 1.367274
V3    V     V_3+5 0.678800 0.742140 0.250000 1.367274
V4    V     V_3+5 0.321200 0.257860 0.750000 1.367274
C9    C     C_R   0.018915 0.355122 0.552273 0.026710
C10   C     C_R   0.981121 0.644878 0.447727 0.026645
C11   C     C_R   0.981086 0.644878 0.052273 0.026712
C12   C     C_R   0.018878 0.355122 0.947727 0.026645
C13   C     C_R   0.518915 0.144878 0.947727 0.026709
C14   C     C_R   0.481119 0.855122 0.052273 0.026643
C15   C     C_R   0.481084 0.855122 0.447727 0.026709
C16   C     C_R   0.518882 0.144878 0.552273 0.026643
C17   C     C_R   0.033099 0.376089 0.613695 -0.055119
C18   C     C_R   0.966915 0.623911 0.386305 -0.055163
C19   C     C_R   0.966901 0.623911 0.113695 -0.055119
C20   C     C_R   0.033085 0.376088 0.886305 -0.055162
C21   C     C_R   0.533099 0.123911 0.886305 -0.055119
C22   C     C_R   0.466915 0.876088 0.113695 -0.055156
C23   C     C_R   0.466901 0.876089 0.386304 -0.055118
C24   C     C_R   0.533085 0.123912 0.613695 -0.055158
C25   C     C_R   0.036249 0.444232 0.627761 -0.244860
C26   C     C_R   0.963782 0.555768 0.372239 -0.244859
C27   C     C_R   0.963750 0.555768 0.127761 -0.244860
C28   C     C_R   0.036218 0.444232 0.872239 -0.244859
C29   C     C_R   0.536244 0.055768 0.872239 -0.244860
C30   C     C_R   0.463786 0.944232 0.127761 -0.244862
C31   C     C_R   0.463757 0.944232 0.372239 -0.244860
C32   C     C_R   0.536213 0.055768 0.627761 -0.244861
C33   C     C_R   0.023523 0.493105 0.583178 0.098760
C34   C     C_R   0.976530 0.506895 0.416821 0.098749
C35   C     C_R   0.976476 0.506895 0.083178 0.098760
C36   C     C_R   0.023471 0.493105 0.916821 0.098749
C37   C     C_R   0.523518 0.006895 0.916822 0.098761
C38   C     C_R   0.476533 0.993104 0.083178 0.098750
C39   C     C_R   0.476483 0.993105 0.416822 0.098761
C40   C     C_R   0.523466 0.006896 0.583178 0.098749
C41   C     C_R   0.007066 0.474659 0.522477 0.047026
C42   C     C_R   0.992997 0.525341 0.477522 0.047010
C43   C     C_R   0.992934 0.525341 0.022477 0.047025
C44   C     C_R   0.007003 0.474659 0.977522 0.047011
C45   C     C_R   0.507064 0.025341 0.977522 0.047025
C46   C     C_R   0.492996 0.974658 0.022478 0.047016
C47   C     C_R   0.492936 0.974659 0.477522 0.047025
C48   C     C_R   0.507004 0.025342 0.522478 0.047015
C49   C     C_R   0.004706 0.405874 0.506591 0.053932
C50   C     C_R   0.995352 0.594126 0.493408 0.053948
C51   C     C_R   0.995295 0.594126 0.006591 0.053932
C52   C     C_R   0.004646 0.405874 0.993408 0.053947
C53   C     C_R   0.504706 0.094126 0.993409 0.053932
C54   C     C_R   0.495349 0.905874 0.006591 0.053940
C55   C     C_R   0.495293 0.905874 0.493409 0.053932
C56   C     C_R   0.504652 0.094126 0.506591 0.053942
C57   C     C_R   0.026332 0.560615 0.598961 -0.169184
C58   C     C_R   0.973726 0.439385 0.401038 -0.169173
C59   C     C_R   0.973666 0.439385 0.098961 -0.169184
C60   C     C_R   0.026276 0.560615 0.901038 -0.169174
C61   C     C_R   0.526323 0.939384 0.901038 -0.169181
C62   C     C_R   0.473730 0.060615 0.098962 -0.169176
C63   C     C_R   0.473679 0.060615 0.401038 -0.169182
C64   C     C_R   0.526268 0.939385 0.598962 -0.169176
C65   C     C_R   0.012641 0.610147 0.555226 -0.215519
C66   C     C_R   0.987418 0.389853 0.444774 -0.215520
C67   C     C_R   0.987357 0.389852 0.055225 -0.215521
C68   C     C_R   0.012583 0.610147 0.944774 -0.215520
C69   C     C_R   0.512633 0.889852 0.944774 -0.215531
C70   C     C_R   0.487421 0.110147 0.055226 -0.215519
C71   C     C_R   0.487369 0.110148 0.444774 -0.215529
C72   C     C_R   0.512577 0.889853 0.555226 -0.215519
C73   C     C_3   0.020093 0.281874 0.530885 -0.416029
C74   C     C_3   0.040942 0.222564 0.574660 -0.300999
C75   C     C_3   0.031390 0.155631 0.541522 -0.745101
H25   H     H_    0.890338 0.148060 0.521584 0.231919
H26   H     H_    0.135893 0.153434 0.504653 0.228458
H27   H     H_    0.059797 0.114147 0.573455 0.228611
H28   H     H_    0.175711 0.224812 0.598408 0.206479
H29   H     H_    0.929796 0.221849 0.608810 0.207713
H30   H     H_    0.889800 0.273875 0.505494 0.186951
H31   H     H_    0.133258 0.277469 0.497220 0.173108
C76   C     C_3   0.979901 0.718125 0.469117 -0.416000
C77   C     C_3   0.959063 0.777433 0.425341 -0.300901
C78   C     C_3   0.968644 0.844368 0.458480 -0.745528
H32   H     H_    0.864052 0.846602 0.495298 0.228522
H33   H     H_    0.109574 0.851908 0.478459 0.231982
H34   H     H_    0.940455 0.885847 0.426554 0.228665
H35   H     H_    0.070213 0.778141 0.391188 0.207718
H36   H     H_    0.824282 0.775190 0.401594 0.206481
H37   H     H_    0.866716 0.722521 0.502777 0.173119
H38   H     H_    0.110180 0.726130 0.494515 0.186958
C79   C     C_3   0.979908 0.718126 0.030885 -0.416029
C80   C     C_3   0.959060 0.777436 0.074660 -0.301003
C81   C     C_3   0.968613 0.844369 0.041522 -0.745081
H39   H     H_    0.109664 0.851937 0.021580 0.231915
H40   H     H_    0.864100 0.846567 0.004655 0.228456
H41   H     H_    0.940218 0.885854 0.073456 0.228608
H42   H     H_    0.824291 0.775189 0.098408 0.206479
H43   H     H_    0.070207 0.778151 0.108810 0.207713
H44   H     H_    0.110202 0.726125 0.005494 0.186950
H45   H     H_    0.866743 0.722531 0.997220 0.173108
C82   C     C_3   0.020098 0.281875 0.969117 -0.416001
C83   C     C_3   0.040936 0.222566 0.925341 -0.300900
C84   C     C_3   0.031354 0.155632 0.958480 -0.745527
H46   H     H_    0.135947 0.153397 0.995298 0.228522
H47   H     H_    0.890425 0.148092 0.978460 0.231982
H48   H     H_    0.059543 0.114153 0.926554 0.228665
H49   H     H_    0.929785 0.221859 0.891189 0.207718
H50   H     H_    0.175716 0.224810 0.901594 0.206480
H51   H     H_    0.133282 0.277479 0.002777 0.173118
H52   H     H_    0.889819 0.273870 0.994515 0.186957
C85   C     C_3   0.520092 0.218126 0.969115 -0.416027
C86   C     C_3   0.540943 0.277436 0.925339 -0.300994
C87   C     C_3   0.531392 0.344369 0.958477 -0.745153
H53   H     H_    0.390338 0.351946 0.978405 0.231930
H54   H     H_    0.635868 0.346562 0.995352 0.228464
H55   H     H_    0.559830 0.385850 0.926549 0.228619
H56   H     H_    0.675712 0.275187 0.901593 0.206482
H57   H     H_    0.429798 0.278151 0.891189 0.207714
H58   H     H_    0.389798 0.226125 0.994506 0.186955
H59   H     H_    0.633257 0.222530 0.002780 0.173107
C88   C     C_3   0.479901 0.781875 0.030882 -0.416005
C89   C     C_3   0.459067 0.722566 0.074659 -0.300897
C90   C     C_3   0.468649 0.655632 0.041520 -0.745523
H60   H     H_    0.364054 0.653397 0.004703 0.228522
H61   H     H_    0.609578 0.648092 0.021539 0.231981
H62   H     H_    0.440465 0.614152 0.073446 0.228664
H63   H     H_    0.570219 0.721859 0.108811 0.207718
H64   H     H_    0.324287 0.724809 0.098406 0.206479
H65   H     H_    0.366716 0.777478 0.997223 0.173115
H66   H     H_    0.610179 0.773870 0.005484 0.186953
C91   C     C_3   0.479907 0.781874 0.469115 -0.416026
C92   C     C_3   0.459055 0.722564 0.425339 -0.300992
C93   C     C_3   0.468605 0.655631 0.458477 -0.745169
H67   H     H_    0.609660 0.648052 0.478402 0.231932
H68   H     H_    0.364138 0.653438 0.495353 0.228465
H69   H     H_    0.440158 0.614151 0.426550 0.228622
H70   H     H_    0.324286 0.724814 0.401593 0.206482
H71   H     H_    0.570200 0.721849 0.391189 0.207715
H72   H     H_    0.610200 0.773875 0.494506 0.186956
H73   H     H_    0.366741 0.777470 0.502780 0.173107
C94   C     C_3   0.520100 0.218125 0.530882 -0.416004
C95   C     C_3   0.540935 0.277434 0.574659 -0.300898
C96   C     C_3   0.531353 0.344368 0.541520 -0.745524
H74   H     H_    0.635947 0.346603 0.504702 0.228522
H75   H     H_    0.390423 0.351908 0.521540 0.231981
H76   H     H_    0.559538 0.385848 0.573446 0.228665
H77   H     H_    0.429783 0.278141 0.608811 0.207718
H78   H     H_    0.675715 0.275190 0.598406 0.206480
H79   H     H_    0.633285 0.222522 0.497223 0.173115
H80   H     H_    0.389822 0.226130 0.505484 0.186954

loop_
_geom_bond_atom_site_label_1
_geom_bond_atom_site_label_2
_ccdc_geom_bond_type
C89   H63   S    
C81   H41   S    
O14   V4    S    
C88   C89   S    
C40   C48   A    
C45   C46   A    
C15   C91   S    
C14   C54   A    
C22   C30   A    
C11   C51   A    
C21   C29   A    
C47   C48   A    
C10   C50   A    
C73   H31   S    
O13   C5    A    
C27   C35   A    
C62   C70   A    
C23   C31   A    
O4    C1    A    
O9    C1    A    
C75   H25   S    
H24   C72   S    
C60   C68   A    
C90   H60   S    
C14   C88   S    
H11   C27   S    
O18   V2    S    
C58   C66   A    
C13   C85   S    
O8    C5    A    
H20   C68   S    
C57   C65   A    
C38   C62   A    
C94   H79   S    
C37   C61   A    
C93   H68   S    
C82   H52   S    
C75   H26   S    
C39   C63   A    
C89   H64   S    
C81   H39   S    
C18   C26   A    
C17   C25   A    
C14   C22   A    
C81   H40   S    
C91   H73   S    
C25   C33   A    
C74   H28   S    
C92   C93   S    
C76   H38   S    
H12   C28   S    
C11   C19   A    
C5    C19   S    
C37   C45   A    
H18   C66   S    
C55   C72   A    
C34   C58   A    
C47   C55   A    
C77   C78   S    
C96   H75   S    
H8    C64   S    
O1    C4    A    
C82   C83   S    
H16   C32   S    
O2    C3    A    
C1    C23   S    
C95   H78   S    
C84   H47   S    
C38   C46   A    
C4    C22   S    
O12   V1    S    
C3    C21   S    
C56   C71   A    
C85   H58   S    
C30   C38   A    
H23   C71   S    
O6    C7    A    
C29   C37   A    
C33   C41   A    
O7    C6    A    
C74   H29   S    
C88   H65   S    
C52   C67   A    
C91   H72   S    
C26   C34   A    
H4    C60   S    
C31   C39   A    
O20   V2    S    
C79   H45   S    
C85   C86   S    
C83   H50   S    
C74   C75   S    
C90   H61   S    
C12   C52   A    
C33   C57   A    
C28   C36   A    
C79   H44   S    
C94   C95   S    
C80   H43   S    
C87   H55   S    
C94   H80   S    
C15   C55   A    
C93   H69   S    
C45   C53   A    
C43   C44   A    
C64   C72   A    
C50   C65   A    
O5    V1    S    
H14   C30   S    
H6    C62   S    
C77   H35   S    
C91   C92   S    
H13   C29   S    
O18   V4    S    
H19   C67   S    
O19   V1    S    
C12   C82   S    
C82   H51   S    
C61   C69   A    
C13   C53   A    
C93   H67   S    
H2    C58   S    
H1    C57   S    
C78   H34   S    
O3    V4    S    
C8    C18   S    
O11   C3    A    
C10   C76   S    
C96   H76   S    
C9    C49   A    
C92   H71   S    
C95   H77   S    
C84   H48   S    
O11   V2    S    
C59   C67   A    
C73   C74   S    
C15   C23   A    
C54   C69   A    
H10   C26   S    
C86   H57   S    
C85   H59   S    
C63   C71   A    
H9    C25   S    
O12   C4    A    
O6    V2    S    
C48   C56   A    
O4    V3    S    
C78   H32   S    
C88   H66   S    
H22   C70   S    
C19   C27   A    
C53   C70   A    
C76   C77   S    
C41   C42   A    
C51   C68   A    
C16   C94   S    
H7    C63   S    
C89   C90   S    
C44   C52   A    
C10   C18   A    
C86   C87   S    
C90   H62   S    
H21   C69   S    
C2    C24   S    
C7    C17   S    
C83   H49   S    
C73   H30   S    
C87   H54   S    
C80   H42   S    
O3    C2    A    
C16   C56   A    
C9    C17   A    
C75   H27   S    
O8    V1    S    
C39   C47   A    
H5    C61   S    
O15   C7    A    
O16   C8    A    
C35   C43   A    
C34   C42   A    
C13   C21   A    
O15   V4    S    
O5    C8    A    
C49   C66   A    
O16   V3    S    
O14   C6    A    
C32   C40   A    
O17   V3    S    
C79   C80   S    
C95   C96   S    
C20   C28   A    
O10   C2    A    
O17   V1    S    
H17   C65   S    
C36   C60   A    
C35   C59   A    
O19   V3    S    
C92   H70   S    
C16   C24   A    
O1    V3    S    
O10   V2    S    
C11   C79   S    
C87   H53   S    
C76   H37   S    
C9    C73   S    
C86   H56   S    
C40   C64   A    
O9    V1    S    
C83   C84   S    
C12   C20   A    
C24   C32   A    
C96   H74   S    
C41   C49   A    
C78   H33   S    
C80   C81   S    
O2    V4    S    
C36   C44   A    
O7    V2    S    
C43   C51   A    
C84   H46   S    
C77   H36   S    
C42   C50   A    
C6    C20   S    
O20   V4    S    
C46   C54   A    
H15   C31   S    
O13   V3    S    
H3    C59   S    
