data_mof_unit_16269.cif
_audit_creation_date              2012-12-10T20:52:58-0500
_audit_creation_method            fapswitch 2.2
_symmetry_space_group_name_H-M    P1
_symmetry_Int_Tables_number       1
_space_group_crystal_system       triclinic
_cell_length_a                    18.307767
_cell_length_b                    18.557698
_cell_length_c                    18.364885
_cell_angle_alpha                 60.115928
_cell_angle_beta                  60.501491
_cell_angle_gamma                 59.321589
_cell_volume                      4408.96816259

loop_
_atom_site_label
_atom_site_type_symbol
_atom_type_description
_atom_site_fract_x
_atom_site_fract_y
_atom_site_fract_z
_atom_type_partial_charge
C1    C     C_R   0.391339 0.102564 0.117065 0.848602
C2    C     C_R   0.328319 0.801121 0.812971 -0.154661
C3    C     C_R   0.037747 0.517024 0.907174 0.018295
C4    C     C_R   0.412110 0.998389 0.054413 0.010469
C5    C     C_R   0.586478 0.998891 0.949918 0.016582
C6    C     C_R   0.950727 0.941172 0.555522 -0.112899
C7    C     C_R   0.058514 0.047962 0.450072 -0.106409
C8    C     C_R   0.944413 0.555054 0.947280 -0.081143
C9    C     C_R   0.055773 0.446020 0.052594 -0.081186
C10   C     C_R   0.547524 0.963216 0.932036 -0.085833
C11   C     C_R   0.451440 0.033694 0.072192 -0.087100
C12   C     C_3   0.094597 0.746172 0.512722 -0.237298
C13   C     C_R   0.287305 0.327973 0.465151 -0.147894
C14   C     C_3   0.113663 0.119123 0.591495 -0.105440
C15   C     C_3   0.704091 0.584353 0.050678 -0.196115
C16   C     C_3   0.297944 0.409721 0.954205 -0.213026
C17   C     C_3   0.405072 0.960301 0.821530 -0.016740
C18   C     C_3   0.609781 0.025186 0.183014 -0.040941
C19   C     C_3   0.916068 0.662540 0.220788 -0.334208
C20   C     C_3   0.057358 0.395500 0.757904 -0.333732
C21   C     C_3   0.592489 0.263906 0.973605 -0.235765
C22   C     C_3   0.401283 0.751584 0.062852 -0.314991
C23   C     C_3   0.293656 0.024715 0.665681 -0.336888
C24   C     C_R   0.671954 0.670254 0.514793 -0.125396
C25   C     C_3   0.820939 0.892255 0.360987 -0.234141
C26   C     C_R   0.169273 0.591637 0.290134 0.421776
C27   C     C_R   0.812280 0.427883 0.713518 0.391194
C28   C     C_R   0.571344 0.311034 0.195996 0.462292
C29   C     C_R   0.396900 0.719114 0.830217 0.382729
C30   C     C_R   0.360975 0.252542 0.450007 0.429113
C31   C     C_R   0.606766 0.749797 0.529221 0.433246
C32   C     C_R   0.087874 0.580956 0.314317 -0.071870
C33   C     C_R   0.608279 0.896561 0.884300 0.854089
C34   C     C_R   0.902738 0.421900 0.681821 0.034950
C35   C     C_R   0.578129 0.322324 0.110636 -0.089509
C36   C     C_R   0.414122 0.681973 0.911313 -0.036851
C37   C     C_R   0.368024 0.169173 0.519111 -0.126408
C38   C     C_R   0.628822 0.827897 0.482849 -0.038300
C39   C     C_R   0.048575 0.613035 0.249100 0.559139
C40   C     C_R   0.951461 0.377025 0.741632 0.581550
C41   C     C_R   0.642411 0.254678 0.072182 0.526239
C42   C     C_R   0.369049 0.731272 0.969207 0.551215
C43   C     C_R   0.300535 0.164933 0.603058 0.520443
C44   C     C_R   0.110972 0.108394 0.390980 0.819993
C45   C     C_R   0.716017 0.824736 0.422943 0.561120
C46   C     C_R   0.095136 0.650000 0.159298 -0.241618
C47   C     C_R   0.910942 0.335891 0.831639 -0.284998
C48   C     C_R   0.700503 0.179956 0.117427 -0.250888
C49   C     C_R   0.298116 0.811898 0.951766 -0.305586
C50   C     C_R   0.229447 0.242248 0.616973 -0.153149
C51   C     C_R   0.779713 0.743338 0.409293 -0.227835
C52   C     C_R   0.175564 0.658821 0.136198 -0.216022
C53   C     C_R   0.822112 0.343079 0.862414 -0.178592
C54   C     C_R   0.692060 0.168358 0.201761 -0.319971
C55   C     C_R   0.890905 0.888993 0.610277 0.835820
C56   C     C_R   0.277860 0.846200 0.874308 -0.297610
C57   C     C_R   0.222086 0.323179 0.548056 -0.272469
C58   C     C_R   0.757748 0.666941 0.455484 -0.308266
C59   C     C_R   0.989362 0.591233 0.464164 0.368315
C60   C     C_R   0.993844 0.415762 0.530653 0.392218
C61   C     C_R   0.589005 0.468286 0.000417 0.428614
C62   C     C_R   0.414219 0.529019 0.996335 0.409829
C63   C     C_R   0.500056 0.032789 0.554443 0.430127
C64   C     C_R   0.503292 0.965795 0.443656 0.389159
C65   C     C_R   0.944234 0.553751 0.553858 -0.194700
C66   C     C_R   0.111321 0.389580 0.109404 0.877666
C67   C     C_R   0.046093 0.449662 0.443027 -0.197624
C68   C     C_R   0.552709 0.554555 0.945991 -0.137363
C69   C     C_R   0.449046 0.443820 0.052693 -0.188762
C70   C     C_R   0.555477 0.946463 0.552508 -0.185979
C71   C     C_R   0.445885 0.052434 0.446256 -0.245603
C72   C     C_R   0.947322 0.465390 0.587180 -0.085406
C73   C     C_R   0.040222 0.539480 0.408399 -0.117178
C74   C     C_R   0.463883 0.586153 0.946625 -0.145998
C75   C     C_R   0.537861 0.412116 0.052990 -0.149593
C76   C     C_R   0.561178 0.914737 0.493774 -0.065451
C77   C     C_R   0.888611 0.610549 0.890673 0.882559
C78   C     C_R   0.441338 0.085277 0.503900 -0.133154
C79   C     C_R   0.108027 0.390670 0.389380 0.837110
C80   C     C_R   0.889929 0.609847 0.610206 0.884127
C81   C     C_R   0.391018 0.389433 0.110463 0.874976
C82   C     C_R   0.609245 0.610351 0.889801 0.869333
C83   C     C_R   0.389926 0.108637 0.389694 0.854283
C84   C     C_R   0.610232 0.890231 0.610095 0.895596
C85   C     C_R   0.046983 0.042788 0.320388 -0.186052
C86   C     C_R   0.901054 0.996402 0.676056 -0.187539
C87   C     C_R   0.926646 0.474998 0.184022 -0.211840
C88   C     C_R   0.211884 0.630327 0.201132 -0.100051
C89   C     C_R   0.075185 0.535588 0.814234 -0.253664
C90   C     C_R   0.329626 0.987244 0.111851 -0.156246
C91   C     C_R   0.664929 0.017235 0.889361 -0.169108
C92   C     C_R   0.047197 0.991226 0.285209 -0.403068
C93   C     C_R   0.935334 0.992459 0.730450 -0.332226
C94   C     C_R   0.836735 0.517526 0.222847 -0.347770
C95   C     C_R   0.165703 0.495993 0.774512 -0.360218
C96   C     C_R   0.278685 0.979436 0.082161 -0.336028
C97   C     C_R   0.707418 0.043260 0.912067 -0.322457
C98   C     C_R   0.040321 0.907453 0.339074 0.430579
C99   C     C_R   0.772862 0.389235 0.804024 -0.067154
C100  C     C_R   0.019715 0.997546 0.696002 0.407240
C101  C     C_R   0.778879 0.571776 0.172274 0.427407
C102  C     C_R   0.222772 0.437247 0.825655 0.450730
C103  C     C_R   0.307405 0.986815 0.993414 0.371120
C104  C     C_R   0.680001 0.039911 0.999299 0.366447
C105  C     C_R   0.020912 0.881686 0.430449 0.536983
C106  C     C_R   0.061354 0.024504 0.602774 0.498326
C107  C     C_R   0.811615 0.581141 0.081996 0.476574
C108  C     C_R   0.189058 0.422133 0.917412 0.478929
C109  C     C_R   0.397814 0.981768 0.939578 0.490298
C110  C     C_R   0.628291 0.233653 0.240465 -0.144415
C111  C     C_R   0.597223 0.026081 0.060236 0.497531
C112  C     C_R   0.003741 0.942969 0.467336 -0.152103
C113  C     C_R   0.028924 0.021228 0.546441 -0.100250
C114  C     C_R   0.905700 0.541864 0.039680 -0.123209
C115  C     C_R   0.094781 0.460573 0.959921 -0.117898
C116  C     C_R   0.454025 0.977038 0.975951 -0.082227
C117  C     C_R   0.544122 0.021248 0.027678 -0.068733
C118  C     C_R   0.036802 0.013069 0.411523 0.019918
C119  C     C_R   0.957780 0.988371 0.591781 0.011836
C120  C     C_R   0.963054 0.487415 0.092115 -0.002364
H1    H     H_    0.049466 0.107418 0.275299 0.210398
H2    H     H_    0.191104 0.510358 0.703429 0.160108
H3    H     H_    0.212782 0.976846 0.125874 0.161653
H4    H     H_    0.764765 0.061772 0.862762 0.158817
H5    H     H_    0.209928 0.687692 0.067387 0.207149
H6    H     H_    0.791943 0.312230 0.931981 0.220858
H7    H     H_    0.736920 0.109726 0.236161 0.200131
H8    H     H_    0.222388 0.907672 0.862306 0.206974
H9    H     H_    0.166333 0.382721 0.558689 0.214850
H10   H     H_    0.807243 0.605060 0.444288 0.197781
H11   H     H_    0.273993 0.637868 0.182695 0.224560
H12   H     H_    0.833603 0.996389 0.703924 0.180818
H13   H     H_    0.703625 0.394536 0.829032 0.192819
H14   H     H_    0.624618 0.225187 0.304800 0.179260
H15   H     H_    0.311774 0.828291 0.753178 0.187700
H16   H     H_    0.281322 0.390970 0.412071 0.197114
H17   H     H_    0.655513 0.610567 0.549366 0.206848
H18   H     H_    0.070580 0.671388 0.106372 0.155944
H19   H     H_    0.948005 0.298029 0.878144 0.161518
H20   H     H_    0.753819 0.131004 0.086327 0.214352
H21   H     H_    0.256558 0.846451 0.999557 0.191852
H22   H     H_    0.179667 0.238707 0.681825 0.222494
H23   H     H_    0.967461 0.433437 0.227275 0.161376
H24   H     H_    0.846051 0.738687 0.361969 0.169624
H25   H     H_    0.024420 0.960805 0.813834 0.331415
H26   H     H_    0.064095 0.878275 0.239678 0.314146
H27   H     H_    0.325061 0.410523 0.723502 0.336519
H28   H     H_    0.677412 0.603986 0.272471 0.336954
H29   H     H_    0.787509 0.058524 0.973275 0.343236
H30   H     H_    0.186956 0.008216 0.003970 0.328757
H31   H     H_    0.996838 0.704488 0.369727 0.343768
H32   H     H_    0.978885 0.329347 0.515249 0.324317
H33   H     H_    0.687896 0.387767 0.052454 0.329171
H34   H     H_    0.034767 0.580265 0.770673 0.145293
H35   H     H_    0.323022 0.602155 0.936599 0.339053
H36   H     H_    0.477160 0.129385 0.587683 0.352719
H37   H     H_    0.448037 0.961781 0.377995 0.332440
H38   H     H_    0.088219 0.770545 0.560698 0.130153
H39   H     H_    0.158677 0.746046 0.457020 0.172586
H40   H     H_    0.097042 0.676419 0.548157 0.185105
H41   H     H_    0.165648 0.149507 0.547748 0.217328
H42   H     H_    0.109624 0.102259 0.659934 0.174994
H43   H     H_    0.049529 0.170939 0.579995 0.159998
H44   H     H_    0.660058 0.567454 0.120627 0.197762
H45   H     H_    0.302375 0.988615 0.178742 0.177621
H46   H     H_    0.750384 0.522789 0.032992 0.172688
H47   H     H_    0.660314 0.625343 0.008293 0.172253
H48   H     H_    0.345194 0.424990 0.885734 0.198281
H49   H     H_    0.338582 0.365825 0.999642 0.157430
H50   H     H_    0.253395 0.471788 0.971291 0.175325
H51   H     H_    0.334773 0.989741 0.823441 0.235114
H52   H     H_    0.425586 0.887926 0.858129 0.127645
H53   H     H_    0.442230 0.970179 0.751026 0.240638
H54   H     H_    0.601786 0.096200 0.149496 0.163261
H55   H     H_    0.680058 0.979894 0.179134 0.195542
H56   H     H_    0.691598 0.014968 0.822980 0.162255
H57   H     H_    0.573487 0.017096 0.253677 0.207122
H58   H     H_    0.173130 0.540674 0.411168 0.335888
H59   H     H_    0.796849 0.489830 0.596862 0.329495
H60   H     H_    0.471828 0.422762 0.203528 0.348649
H61   H     H_    0.491818 0.622099 0.786037 0.341709
H62   H     H_    0.477466 0.209049 0.368013 0.335692
H63   H     H_    0.483788 0.806571 0.595862 0.342646
H64   H     H_    0.941515 0.645047 0.160765 0.194060
H65   H     H_    0.911186 0.731351 0.202839 0.153034
H66   H     H_    0.847123 0.660785 0.257074 0.212960
H67   H     H_    0.055476 0.015612 0.215390 0.158809
H68   H     H_    0.002678 0.455769 0.774268 0.197641
H69   H     H_    0.069700 0.339722 0.818906 0.187263
H70   H     H_    0.119464 0.411575 0.716841 0.199018
H71   H     H_    0.541308 0.330939 0.958202 0.156698
H72   H     H_    0.560797 0.215842 0.031180 0.177635
H73   H     H_    0.621681 0.242288 0.915540 0.186510
H74   H     H_    0.336235 0.799023 0.090418 0.168952
H75   H     H_    0.444770 0.786914 0.002079 0.168031
H76   H     H_    0.436206 0.712710 0.113172 0.212247
H77   H     H_    0.350943 0.961465 0.675161 0.176868
H78   H     H_    0.898856 0.980070 0.800278 0.160925
H79   H     H_    0.288181 0.042874 0.600582 0.191427
H80   H     H_    0.231746 0.013098 0.718086 0.206275
H81   H     H_    0.869165 0.869344 0.303100 0.153700
H82   H     H_    0.842046 0.846346 0.421069 0.235477
H83   H     H_    0.822629 0.957456 0.345325 0.177726
H84   H     H_    0.812265 0.508312 0.292813 0.170964
O1    O     O_3   0.250000 0.250000 0.250000 -0.497856
O2    O     O_R   0.865800 0.694910 0.573470 -0.575462
O3    O     O_R   0.305090 0.426530 0.134200 -0.573372
O4    O     O_R   0.694910 0.573470 0.865800 -0.584840
O5    O     O_R   0.426530 0.134200 0.305090 -0.641058
O6    O     O_R   0.573470 0.865800 0.694910 -0.666128
O7    O     O_R   0.134190 0.426530 0.134200 -0.647018
O8    O     O_R   0.865810 0.573470 0.865800 -0.664809
O9    O     O_R   0.426530 0.134200 0.134190 -0.640631
O10   O     O_R   0.573470 0.865800 0.865810 -0.647588
O11   O     O_R   0.134200 0.134190 0.426530 -0.610971
O12   O     O_3   0.750000 0.750000 0.750000 -0.504299
O13   O     O_R   0.865800 0.865810 0.573470 -0.602010
O14   O     O_R   0.426530 0.305080 0.134210 -0.678770
O15   O     O_R   0.573470 0.694920 0.865790 -0.674841
O16   O     O_R   0.305080 0.134210 0.426530 -0.656136
O17   O     O_R   0.694920 0.865790 0.573470 -0.650356
O18   O     O_R   0.134210 0.426530 0.305080 -0.629847
O19   O     O_R   0.865790 0.573470 0.694920 -0.685589
O20   O     O_3   0.062433 0.978715 0.751223 -0.784115
O21   O     O_3   0.050412 0.850261 0.304873 -0.746452
O22   O     O_3   0.312129 0.393124 0.787993 -0.739253
O23   O     O_R   0.305080 0.134200 0.134200 -0.620888
O24   O     O_3   0.689670 0.617074 0.209002 -0.737251
O25   O     O_3   0.733155 0.050182 0.024113 -0.822799
O26   O     O_3   0.246385 0.005270 0.957677 -0.797185
O27   O     O_3   0.987204 0.677034 0.434173 -0.686785
O28   O     O_3   0.985212 0.334744 0.562754 -0.773686
O29   O     O_3   0.673203 0.443330 0.003697 -0.775097
O30   O     O_3   0.329492 0.555771 0.993714 -0.775241
O31   O     O_3   0.507138 0.064146 0.604268 -0.759835
O32   O     O_3   0.502166 0.926886 0.396680 -0.750161
O33   O     O_3   0.020344 0.796256 0.481500 -0.534153
O34   O     O_R   0.694920 0.865800 0.865800 -0.624853
O35   O     O_3   0.137806 0.042932 0.572150 -0.589933
O36   O     O_3   0.751383 0.634201 0.034938 -0.606121
O37   O     O_3   0.248362 0.364471 0.965354 -0.600848
O38   O     O_3   0.424727 0.006192 0.847862 -0.595603
O39   O     O_3   0.571304 0.000863 0.152603 -0.620421
O40   O     O_3   0.209423 0.566106 0.350330 -0.755007
O41   O     O_3   0.760028 0.470750 0.659456 -0.782477
O42   O     O_3   0.515458 0.376197 0.235313 -0.713431
O43   O     O_3   0.439972 0.674593 0.770248 -0.719213
O44   O     O_3   0.423590 0.263371 0.366860 -0.739728
O45   O     O_R   0.134200 0.134200 0.305080 -0.676291
O46   O     O_3   0.522817 0.748058 0.587666 -0.698166
O47   O     O_3   0.969321 0.599408 0.276488 -0.619346
O48   O     O_3   0.040183 0.370252 0.708693 -0.648065
O49   O     O_3   0.661639 0.267159 0.984572 -0.637839
O50   O     O_3   0.387518 0.692425 0.048147 -0.630950
O51   O     O_3   0.307126 0.087703 0.675137 -0.616054
O52   O     O_3   0.733118 0.904006 0.374654 -0.630928
O53   O     O_R   0.865800 0.865800 0.694920 -0.664872
O54   O     O_R   0.134200 0.305080 0.134200 -0.611174
O55   O     O_R   0.865800 0.694920 0.865800 -0.602696
O56   O     O_R   0.134200 0.305090 0.426530 -0.655461
Zn1   Zn    Zn3+2 0.206620 0.206630 0.380140 0.960267
Zn2   Zn    Zn3+2 0.793380 0.793370 0.619860 1.007713
Zn3   Zn    Zn3+2 0.206630 0.380140 0.206620 1.011434
Zn4   Zn    Zn3+2 0.793370 0.619860 0.793380 0.975275
Zn5   Zn    Zn3+2 0.380140 0.206620 0.206630 0.975884
Zn6   Zn    Zn3+2 0.619860 0.793380 0.793370 0.962151
Zn7   Zn    Zn3+2 0.206620 0.206620 0.206620 0.988029
Zn8   Zn    Zn3+2 0.793380 0.793380 0.793380 1.003518

loop_
_geom_bond_atom_site_label_1
_geom_bond_atom_site_label_2
_ccdc_geom_bond_type
C18   O39   S    
C101  C107  A    
C40   C47   A    
C80   O2    A    
C89   C95   A    
C12   H39   S    
C62   O30   S    
C46   C52   A    
C14   H42   S    
O15   Zn6   S    
C61   O29   S    
C45   O52   S    
O11   Zn1   S    
C36   C42   A    
O16   Zn1   S    
C1    C11   S    
C6    C55   S    
C19   O47   S    
C82   O4    A    
O18   Zn3   S    
C89   H34   S    
C92   H67   S    
C92   C98   A    
C55   O13   A    
H25   O20   S    
C38   C76   S    
C51   H24   S    
C53   C99   A    
C48   C54   A    
O2    Zn2   S    
C29   C36   A    
C54   C110  A    
C98   C105  A    
C30   O44   S    
C2    C29   A    
C34   C40   A    
C79   O56   A    
C108  C115  A    
C57   H9    S    
C25   H82   S    
O12   Zn2   S    
C58   H10   S    
C64   O32   S    
C97   H4    S    
C25   H81   S    
C84   O17   A    
C27   O41   S    
C19   H66   S    
C20   H70   S    
C14   O35   S    
C40   O48   S    
C84   O6    A    
C20   O48   S    
C13   C57   A    
C100  O20   S    
H36   O31   S    
C68   C74   A    
C44   O11   A    
C87   C94   A    
O9    Zn5   S    
C102  O22   S    
O14   Zn5   S    
C99   H13   S    
C32   C39   A    
C14   H43   S    
H63   O46   S    
C9    C66   S    
O12   Zn8   S    
C23   H79   S    
O55   Zn8   S    
C77   O8    A    
C113  C119  A    
C16   H49   S    
C85   C92   A    
H31   O27   S    
C82   O15   A    
O1    Zn7   S    
C94   C101  A    
C38   C45   A    
C49   H21   S    
C108  O37   S    
C16   O37   S    
C111  O39   S    
C15   H46   S    
C102  C108  A    
C86   C119  A    
C67   C73   A    
C10   C33   S    
C70   C84   S    
C59   C73   A    
C4    C90   A    
C109  C116  A    
C95   C102  A    
C8    C114  A    
C47   C53   A    
C98   O21   S    
C18   H55   S    
C1    O23   A    
C103  O26   S    
C100  C106  A    
C103  C109  A    
C59   O27   S    
C64   C71   A    
C65   C80   S    
C29   O43   S    
C7    C118  A    
C22   H76   S    
O53   Zn8   S    
O54   Zn7   S    
O19   Zn4   S    
H59   O41   S    
H27   O22   S    
C17   H53   S    
C59   C65   A    
C71   C83   S    
C45   C51   A    
C27   C34   A    
C25   H83   S    
C41   O49   S    
C31   O46   S    
C17   H52   S    
C25   O52   S    
O10   Zn6   S    
C106  C113  A    
C9    C115  A    
C69   C81   S    
C13   C30   A    
C52   C88   A    
C67   C79   S    
C60   C67   A    
C23   O51   S    
C3    C8    A    
C20   H69   S    
C48   H20   S    
C18   H57   S    
C21   H72   S    
O1    Zn3   S    
H35   O30   S    
C28   C110  A    
C21   O49   S    
C23   H80   S    
C61   C75   A    
C30   C37   A    
C5    C117  A    
C55   O53   A    
C37   C43   A    
C41   C48   A    
O5    Zn5   S    
H58   O40   S    
C87   H23   S    
O45   Zn7   S    
C86   C93   A    
H62   O44   S    
C68   C82   S    
C20   H68   S    
C112  C118  A    
C15   H44   S    
C63   C70   A    
C33   O10   A    
C27   C99   A    
C15   H47   S    
C17   H51   S    
C64   C76   A    
H33   O29   S    
C43   C50   A    
C51   C58   A    
C28   O42   S    
C7    C44   S    
C12   H40   S    
C4    C11   A    
C85   H1    S    
C93   C100  A    
O12   Zn6   S    
C83   O5    A    
C36   C74   S    
C39   C46   A    
C18   H54   S    
C95   H2    S    
C24   C58   A    
C12   O33   S    
C105  C112  A    
O1    Zn5   S    
C17   O38   S    
O17   Zn2   S    
C106  O35   S    
C101  O24   S    
C90   H45   S    
C1    O9    A    
C8    C77   S    
C24   H17   S    
C13   H16   S    
C22   H75   S    
C110  H14   S    
C94   H84   S    
C11   C117  A    
C34   C72   S    
C6    C119  A    
C32   C73   S    
C10   C116  A    
C79   O18   A    
C54   H7    S    
C107  C114  A    
C43   O51   S    
C28   C35   A    
O8    Zn4   S    
C105  O33   S    
O13   Zn2   S    
C96   H3    S    
C60   O28   S    
C50   C57   A    
C6    C112  A    
C4    C116  A    
C22   H74   S    
C81   O3    A    
C35   C75   S    
O56   Zn1   S    
C66   O54   A    
H30   O26   S    
C19   H64   S    
C104  C111  A    
C52   H5    S    
H61   O43   S    
H37   O32   S    
C90   C96   A    
C26   C32   A    
H26   O21   S    
H28   O24   S    
C65   C72   A    
O3    Zn3   S    
C107  O36   S    
C23   H77   S    
O7    Zn3   S    
C2    H15   S    
O4    Zn4   S    
C31   C38   A    
C3    C89   A    
C111  C117  A    
C21   H73   S    
C7    C113  A    
C14   H41   S    
O34   Zn8   S    
C93   H78   S    
C91   C97   A    
C24   C31   A    
H29   O25   S    
C5    C10   A    
C49   C56   A    
C2    C56   A    
C19   H65   S    
C80   O19   A    
C70   C76   A    
C83   O16   A    
C61   C68   A    
O23   Zn7   S    
C104  O25   S    
O1    Zn1   S    
C109  O38   S    
C16   H48   S    
C81   O14   A    
C15   O36   S    
C86   H12   S    
C91   H56   S    
C69   C75   A    
C5    C91   A    
C26   O40   S    
C56   H8    S    
C60   C72   A    
C85   C118  A    
C35   C41   A    
C22   O50   S    
C97   C104  A    
C21   H71   S    
C53   H6    S    
C33   O34   A    
C42   C49   A    
C63   O31   S    
C26   C88   A    
C16   H50   S    
C44   O45   A    
C87   C120  A    
C39   O47   S    
C62   C69   A    
O6    Zn6   S    
C77   O55   A    
C96   C103  A    
C47   H19   S    
C9    C120  A    
C42   O50   S    
C46   H18   S    
C62   C74   A    
O12   Zn4   S    
C3    C115  A    
C88   H11   S    
C12   H38   S    
C66   O7    A    
C37   C78   S    
C71   C78   A    
C114  C120  A    
C50   H22   S    
H32   O28   S    
C63   C78   A    
H60   O42   S    
