data_mof_unit_35213.cif
_audit_creation_date              2012-12-10T18:59:16-0500
_audit_creation_method            fapswitch 2.2
_symmetry_space_group_name_H-M    P1
_symmetry_Int_Tables_number       1
_space_group_crystal_system       triclinic
_cell_length_a                    10.871833
_cell_length_b                    10.805035
_cell_length_c                    9.527525
_cell_angle_alpha                 90.061124
_cell_angle_beta                  88.423641
_cell_angle_gamma                 91.084804
_cell_volume                      1118.57922007

loop_
_atom_site_label
_atom_site_type_symbol
_atom_type_description
_atom_site_fract_x
_atom_site_fract_y
_atom_site_fract_z
_atom_type_partial_charge
C1    C     C_R   0.501781 0.262412 0.499178 0.871045
C2    C     C_R   0.058590 0.417202 0.611181 0.049953
C3    C     C_R   0.128905 0.483706 0.507129 -0.105250
C4    C     C_R   0.071543 0.543387 0.398422 -0.209894
C5    C     C_R   0.945405 0.546948 0.391721 0.360349
C6    C     C_R   0.871990 0.483646 0.494846 -0.167548
C7    C     C_R   0.424682 0.062854 0.586543 -0.037550
C8    C     C_R   0.505095 0.128964 0.496443 -0.149390
C9    C     C_R   0.589416 0.063541 0.409246 0.317886
C10   C     C_R   0.584333 0.934364 0.410351 -0.268747
C11   C     C_R   0.502972 0.870268 0.501575 -0.088857
C12   C     C_R   0.262598 0.492493 0.502605 0.848540
C13   C     C_R   0.428375 0.935438 0.595449 0.004552
C14   C     C_3   0.292506 0.921677 0.618131 -0.457997
C15   C     C_3   0.286230 0.060726 0.596539 0.204611
C16   C     C_R   0.567927 0.586209 0.071500 0.342900
C17   C     C_R   0.441628 0.408689 0.076228 0.042859
C18   C     C_R   0.442014 0.408459 0.927269 -0.082043
C19   C     C_R   0.568337 0.586044 0.924164 0.286260
C20   C     C_3   0.556809 0.723403 0.918128 0.193040
C21   C     C_3   0.555933 0.723346 0.077742 -0.566166
C22   C     C_R   0.498782 0.737355 0.500246 0.844338
C23   C     C_R   0.737910 0.496289 0.498119 0.884348
C24   C     C_R   0.112310 0.354502 0.724821 -0.247804
C25   C     C_R   0.039396 0.293039 0.827115 0.433311
C26   C     C_R   0.913537 0.280010 0.808401 -0.245939
C27   C     C_R   0.859750 0.334070 0.693534 -0.176878
C28   C     C_R   0.928915 0.412125 0.599983 0.075232
Cu1   Cu    Cu3+1 0.499990 0.499980 0.640670 0.972704
Cu2   Cu    Cu3+1 0.500010 0.500020 0.359330 1.082299
H1    H     H_    0.126876 0.592440 0.319398 0.206079
H2    H     H_    0.268269 0.892868 0.727573 0.181972
H3    H     H_    0.248887 0.111359 0.688768 0.136750
H4    H     H_    0.392261 0.336212 0.133619 0.195625
H5    H     H_    0.393543 0.335585 0.872842 0.180340
H6    H     H_    0.468912 0.752473 0.871711 0.113121
H7    H     H_    0.638112 0.769266 0.122167 0.265717
H8    H     H_    0.466382 0.752601 0.124755 0.189630
H9    H     H_    0.209940 0.352426 0.738285 0.181786
H10   H     H_    0.856129 0.228569 0.883342 0.201649
H11   H     H_    0.763293 0.313293 0.680175 0.179364
H12   H     H_    0.643320 0.883693 0.339396 0.222816
H13   H     H_    0.248172 0.863797 0.536406 0.229054
N1    N     N_R   0.500790 0.500930 0.147930 -0.208339
N2    N     N_R   0.500790 0.500890 0.852020 -0.246378
O1    O     O_R   0.500000 0.319640 0.618810 -0.628453
O2    O     O_R   0.500010 0.319680 0.381230 -0.515809
O3    O     O_R   0.319640 0.499980 0.618820 -0.611347
O4    O     O_R   0.319650 0.500020 0.381230 -0.562702
O5    O     O_R   0.499990 0.680320 0.618770 -0.578792
O6    O     O_R   0.500000 0.680360 0.381190 -0.583461
O7    O     O_R   0.680350 0.499980 0.618770 -0.593449
O8    O     O_R   0.680360 0.500020 0.381180 -0.477160
S1    S     S_3+6 0.212799 0.097446 0.435098 0.038570
O9    O     O_2   0.232298 0.231708 0.399727 -0.304172
O10   O     O_2   0.265137 0.020685 0.316897 -0.245445
O11   O     O_3   0.061007 0.066613 0.452842 -0.424254
H14   H     H_    0.030153 0.128186 0.521735 0.345811
O12   O     O_3   0.664610 0.777519 0.856477 -0.533180
C29   C     C_3   0.657285 0.907995 0.859964 0.105666
H15   H     H_    0.673497 0.943071 0.967838 0.169887
H16   H     H_    0.565781 0.940343 0.827617 0.101195
C30   C     C_3   0.754269 0.964487 0.758532 -0.367225
H17   H     H_    0.742906 0.924460 0.652130 0.244464
H18   H     H_    0.740063 0.065786 0.751461 0.167608
C31   C     C_3   0.884859 0.941397 0.806133 -0.613688
H19   H     H_    0.897614 0.979112 0.913284 0.282112
H20   H     H_    0.952194 0.988004 0.733075 0.223049
H21   H     H_    0.903386 0.840658 0.806330 0.281049
S2    S     S_3+6 0.104694 0.239174 0.982864 0.007252
O13   O     O_2   0.140510 0.349363 0.070138 -0.289700
O14   O     O_2   0.013401 0.159985 0.065188 -0.181458
O15   O     O_3   0.230774 0.156621 0.945128 -0.612045
H22   H     H_    0.266348 0.138395 0.037276 0.397356
S3    S     S_3+6 0.886575 0.635512 0.252986 0.044611
O16   O     O_2   0.789697 0.719490 0.311238 -0.309449
O17   O     O_2   0.985701 0.713511 0.181513 -0.247294
O18   O     O_3   0.825343 0.539192 0.134001 -0.493612
H23   H     H_    0.893022 0.483646 0.105368 0.377002
S4    S     S_3+6 0.701180 0.137097 0.297000 0.036949
O19   O     O_2   0.769109 0.234938 0.377396 -0.285055
O20   O     O_2   0.792297 0.045098 0.241033 -0.211211
O21   O     O_3   0.632314 0.203316 0.161090 -0.509455
H24   H     H_    0.583220 0.135766 0.118191 0.316488

loop_
_geom_bond_atom_site_label_1
_geom_bond_atom_site_label_2
_ccdc_geom_bond_type
C31   H20   S    
Cu2   O6    S    
C30   H18   S    
C16   C21   S    
C10   H12   S    
C1    C8    S    
O15   H22   S    
C19   C20   S    
C12   O3    A    
C12   O4    A    
O11   H14   S    
C7    C8    A    
C26   C27   A    
C29   C30   S    
C5    C6    A    
C1    O1    A    
C31   H21   S    
C24   H9    S    
C29   H16   S    
C3    C12   S    
C6    C28   A    
C21   H8    S    
C8    C9    A    
S2    O13   D    
C9    C10   A    
C16   N1    A    
C22   O5    A    
C7    C15   S    
C31   H19   S    
C30   C31   S    
O12   C29   S    
C13   C14   S    
Cu2   N1    S    
S4    O21   S    
C23   O8    A    
Cu1   O5    S    
Cu2   O8    S    
S1    O10   D    
Cu1   O3    S    
C15   S1    S    
Cu2   O2    S    
C24   C25   A    
S4    O20   D    
O18   H23   S    
S4    O19   D    
C25   C26   A    
Cu1   N2    S    
C29   H15   S    
C9    S4    S    
C5    S3    S    
S3    O16   D    
Cu1   Cu2   S    
C27   H11   S    
O21   H24   S    
S2    O15   S    
C17   C18   A    
C20   O12   S    
S3    O17   D    
Cu2   O4    S    
C2    C24   A    
C17   H4    S    
C3    C4    A    
C18   N2    A    
C18   H5    S    
S1    O9    D    
C1    O2    A    
C14   H2    S    
C4    C5    A    
S2    O14   D    
C19   N2    A    
C11   C22   S    
Cu1   O1    S    
C2    C3    A    
C17   N1    A    
S1    O11   S    
C11   C13   A    
C26   H10   S    
C23   O7    A    
C16   C19   A    
C6    C23   S    
S3    O18   S    
C4    H1    S    
C10   C11   A    
C30   H17   S    
C20   H6    S    
C7    C13   A    
C21   H7    S    
C20   C21   S    
C27   C28   A    
C14   C15   S    
C14   H13   S    
C2    C28   A    
C25   S2    S    
C15   H3    S    
C22   O6    A    
Cu1   O7    S    
