data_mof_unit_50991.cif
_audit_creation_date              2013-03-05T16:03:41-0500
_audit_creation_method            fapswitch 2.2
_symmetry_space_group_name_H-M    P1
_symmetry_Int_Tables_number       1
_space_group_crystal_system       triclinic
_cell_length_a                    8.741427
_cell_length_b                    10.933185
_cell_length_c                    9.590912
_cell_angle_alpha                 89.232167
_cell_angle_beta                  97.518172
_cell_angle_gamma                 92.250681
_cell_volume                      908.006765603

loop_
_atom_site_label
_atom_site_type_symbol
_atom_site_description
_atom_site_fract_x
_atom_site_fract_y
_atom_site_fract_z
_atom_type_partial_charge
O1    O     O_R   0.499990 0.319660 0.618740 -0.532164
O2    O     O_R   0.500010 0.680340 0.381260 -0.532179
O3    O     O_R   0.499990 0.319630 0.381170 -0.523181
O4    O     O_R   0.500010 0.680370 0.618830 -0.523620
C1    C     C_R   0.509133 0.262582 0.502097 0.914746
C2    C     C_R   0.490836 0.737413 0.497892 0.914525
O5    O     O_R   0.274840 0.500010 0.591370 -0.539781
O6    O     O_R   0.725160 0.499990 0.408630 -0.539807
O7    O     O_R   0.274830 0.499980 0.353800 -0.544011
O8    O     O_R   0.725170 0.500020 0.646200 -0.544043
C3    C     C_R   0.204344 0.496400 0.465118 0.852065
C4    C     C_R   0.795659 0.503607 0.534875 0.851881
Cu1   Cu    Cu3+1 0.500000 0.500020 0.640660 1.153707
Cu2   Cu    Cu3+1 0.500000 0.499980 0.359340 1.153814
N1    N     N_R   0.500040 0.500030 0.852080 -0.301910
N2    N     N_R   0.499960 0.499970 0.147920 -0.301815
C5    C     C_2   0.040199 0.474791 0.452935 0.144871
C6    C     C_2   0.959804 0.525240 0.547020 0.144972
C7    C     C_R   0.536210 0.065691 0.380739 0.345813
C8    C     C_R   0.463589 0.934298 0.619168 0.345829
C9    C     C_R   0.508638 0.939594 0.372848 0.330608
C10   C     C_R   0.491236 0.060384 0.627086 0.330610
C11   C     C_R   0.483062 0.871681 0.495056 -0.353652
C12   C     C_R   0.516827 0.128306 0.504889 -0.353657
C13   C     C_R   0.389601 0.434018 0.061741 0.312876
C14   C     C_R   0.610273 0.566090 0.938223 0.313047
C15   C     C_R   0.390749 0.433010 0.913925 0.422749
C16   C     C_R   0.609244 0.566998 0.086059 0.422928
Cl1   Cl    Cl    0.962102 0.356145 0.337761 -0.411373
Cl2   Cl    Cl    0.037900 0.644019 0.662004 -0.411564
Cl3   Cl    Cl    0.611377 0.139623 0.236413 -0.318934
Cl4   Cl    Cl    0.388145 0.860384 0.763360 -0.318833
Cl5   Cl    Cl    0.492571 0.873908 0.203030 -0.326672
Cl6   Cl    Cl    0.507378 0.126029 0.796923 -0.326663
N3    N     N_R   0.265798 0.370408 0.118512 0.190833
O9    O     O_R   0.127011 0.409868 0.086631 -0.210513
O10   O     O_R   0.282273 0.257888 0.161521 -0.227720
N4    N     N_R   0.733627 0.630168 0.881312 0.190482
O11   O     O_R   0.717108 0.743300 0.840416 -0.227002
O12   O     O_R   0.872452 0.590501 0.912192 -0.210612
Cl7   Cl    Cl    0.250657 0.339273 0.812834 -0.378403
Cl8   Cl    Cl    0.749433 0.660662 0.187133 -0.378246

loop_
_geom_bond_atom_site_label_1
_geom_bond_atom_site_label_2
_geom_bond_distance
_ccdc_geom_bond_type
N2    C16   1.372341 A    
N4    O12   1.300882 A    
O7    Cu2   1.962063 S    
C6    Cl2   1.772118 S    
C14   N4    1.426847 S    
C13   C15   1.419233 A    
C5    Cl1   1.772123 S    
C15   Cl7   1.762772 S    
C14   C16   1.419260 A    
N3    O9    1.300755 A    
C8    C11   1.413725 A    
O6    C4    1.285107 A    
C7    Cl3   1.779731 S    
Cu1   N1    2.027667 S    
C7    C12   1.413825 A    
Cu1   Cu2   2.698121 S    
C10   Cl6   1.775258 S    
O5    C3    1.285155 A    
O7    C3    1.300056 A    
O2    C2    1.301226 A    
O3    Cu2   1.980090 S    
O8    C4    1.300133 A    
C13   N3    1.426970 S    
O1    C1    1.301290 A    
C2    C11   1.471935 S    
C16   Cl8   1.762753 S    
C7    C9    1.391547 A    
C8    C10   1.391518 A    
C5    C6    1.349851 D    
Cu2   N2    2.027665 S    
C9    C11   1.416785 A    
N4    O11   1.300308 A    
O2    Cu2   1.985880 S    
C10   C12   1.416785 A    
O1    Cu1   1.985879 S    
O5    Cu1   1.963129 S    
C9    Cl5   1.775312 S    
O4    C2    1.304209 A    
C8    Cl4   1.779697 S    
C4    C6    1.434817 S    
N2    C13   1.373466 A    
C1    C12   1.471964 S    
N1    C14   1.373221 A    
O6    Cu2   1.963127 S    
N3    O10   1.299637 A    
N1    C15   1.372263 A    
C3    C5    1.434762 S    
O4    Cu1   1.980091 S    
O3    C1    1.304157 A    
O8    Cu1   1.962061 S    
