data_mof_unit_24755.cif
_audit_creation_date              2013-03-05T15:57:28-0500
_audit_creation_method            fapswitch 2.2
_symmetry_space_group_name_H-M    P1
_symmetry_Int_Tables_number       1
_space_group_crystal_system       triclinic
_cell_length_a                    13.805284
_cell_length_b                    15.088235
_cell_length_c                    15.773415
_cell_angle_alpha                 89.258037
_cell_angle_beta                  69.885097
_cell_angle_gamma                 88.074386
_cell_volume                      3083.41190745

loop_
_atom_site_label
_atom_site_type_symbol
_atom_site_description
_atom_site_fract_x
_atom_site_fract_y
_atom_site_fract_z
_atom_type_partial_charge
O1    O     O_R   0.417730 0.629750 0.499970 -0.529811
O2    O     O_R   0.582270 0.370250 0.500030 -0.535439
O3    O     O_R   0.582270 0.629730 0.499980 -0.611146
O4    O     O_R   0.417730 0.370270 0.500020 -0.616888
C1    C     C_R   0.498946 0.671388 0.499558 0.805192
C2    C     C_R   0.501523 0.328677 0.498960 0.787542
O5    O     O_R   0.371590 0.500020 0.629830 -0.537142
O6    O     O_R   0.628410 0.499980 0.370170 -0.511076
O7    O     O_R   0.536130 0.499990 0.629840 -0.614907
O8    O     O_R   0.463870 0.500010 0.370160 -0.603387
C3    C     C_R   0.437851 0.495252 0.672976 0.828541
C4    C     C_R   0.562830 0.501613 0.327458 0.820334
Cu1   Cu    Cu3+1 0.402580 0.500010 0.499990 0.968357
Cu2   Cu    Cu3+1 0.597420 0.499990 0.500010 0.982411
C5    C     C_R   0.402641 0.487252 0.773606 -0.319390
C6    C     C_R   0.598812 0.518307 0.229179 -0.298576
C7    C     C_R   0.266545 0.464222 0.919364 0.403314
C8    C     C_R   0.702020 0.607003 0.101483 0.464474
C9    C     C_R   0.300600 0.464122 0.824423 0.421037
C10   C     C_R   0.681225 0.575570 0.190001 0.400236
C11   C     C_R   0.473050 0.496282 0.820283 -0.098936
C12   C     C_R   0.540188 0.489273 0.177886 -0.130602
C13   C     C_R   0.435701 0.512900 0.914344 0.025656
C14   C     C_R   0.551369 0.531107 0.094180 -0.006235
C15   C     C_R   0.331034 0.495745 0.965381 -0.153620
C16   C     C_R   0.641735 0.579451 0.050080 -0.081714
C17   C     C_R   0.502691 0.540453 0.959648 0.133386
C18   C     C_R   0.475515 0.525058 0.052555 0.110773
C19   C     C_R   0.370685 0.513931 0.103055 -0.125596
C20   C     C_R   0.595043 0.583981 0.914817 -0.274035
C21   C     C_R   0.296971 0.505856 0.060876 -0.023720
C22   C     C_R   0.666185 0.600603 0.957145 0.010167
H1    H     H_    0.345167 0.517536 0.176046 0.176177
H2    H     H_    0.612558 0.606185 0.845799 0.122552
C23   C     C_R   0.410003 0.188479 0.518197 -0.240594
C24   C     C_R   0.591380 0.811939 0.475505 -0.213711
C25   C     C_R   0.503346 0.231856 0.495925 -0.051178
C26   C     C_R   0.498169 0.768366 0.497322 -0.071623
C27   C     C_R   0.596814 0.183017 0.468256 -0.256132
C28   C     C_R   0.405355 0.817323 0.516462 -0.242864
C29   C     C_R   0.598382 0.089901 0.464748 0.013152
C30   C     C_R   0.403874 0.910569 0.517255 0.013130
C31   C     C_R   0.502450 0.046709 0.491049 0.075027
C32   C     C_R   0.499683 0.953758 0.492966 0.064636
C33   C     C_R   0.408889 0.096604 0.515747 0.077624
C34   C     C_R   0.593046 0.903887 0.471054 0.074741
C35   C     C_R   0.692123 0.038504 0.437409 -0.041119
C36   C     C_R   0.310375 0.962044 0.540287 -0.020718
C37   C     C_R   0.687550 0.945929 0.443574 -0.168403
C38   C     C_R   0.314687 0.054604 0.538921 -0.191172
H3    H     H_    0.337449 0.226313 0.538738 0.136383
H4    H     H_    0.663473 0.774269 0.460377 0.149521
H5    H     H_    0.667203 0.218701 0.450164 0.194925
H6    H     H_    0.335398 0.781391 0.530822 0.192834
H7    H     H_    0.758417 0.905782 0.424534 0.183910
H8    H     H_    0.243718 0.094616 0.557747 0.172935
C39   C     C_R   0.190111 0.571710 0.533609 0.654810
C40   C     C_R   0.802194 0.422133 0.491923 0.665538
N1    N     N_R   0.256170 0.500070 0.500040 -0.229253
N2    N     N_R   0.743830 0.499930 0.499960 -0.241566
C41   C     C_R   0.223557 0.430175 0.464541 -0.074242
C42   C     C_R   0.787233 0.577751 0.509006 -0.053525
C43   C     C_R   0.120118 0.426280 0.467029 -0.094683
C44   C     C_R   0.888548 0.580466 0.512880 -0.056848
C45   C     C_R   0.054039 0.502242 0.495115 -0.012472
C46   C     C_R   0.950991 0.502036 0.495193 -0.039868
C47   C     C_R   0.090924 0.578112 0.523845 -0.153950
C48   C     C_R   0.909535 0.422763 0.479227 -0.168410
C49   C     C_R   0.081677 0.349355 0.440927 -0.099811
C50   C     C_R   0.929972 0.659676 0.531519 -0.078518
C51   C     C_R   0.974765 0.345277 0.454376 0.510944
C52   C     C_R   0.027842 0.657185 0.543334 0.426750
H9    H     H_    0.278398 0.376696 0.436430 0.146143
H10   H     H_    0.741651 0.637785 0.516332 0.203804
C53   C     C_2   0.186008 0.512833 0.117951 0.416083
H11   H     H_    0.128321 0.533557 0.088821 0.145327
O9    O     O_2   0.157866 0.497416 0.198901 -0.530234
C54   C     C_2   0.768566 0.630512 0.897547 0.442901
H12   H     H_    0.773724 0.674740 0.841413 0.030551
O10   O     O_2   0.848117 0.601331 0.906382 -0.477179
O11   O     O_3   0.219341 0.636047 0.580408 -0.559075
C55   C     C_3   0.178499 0.615504 0.673353 -0.223201
H13   H     H_    0.095213 0.633477 0.702064 0.158058
H14   H     H_    0.219728 0.653406 0.709615 0.174190
H15   H     H_    0.186911 0.544043 0.686948 0.215456
O12   O     O_3   0.756252 0.341586 0.500494 -0.556744
C56   C     C_3   0.720479 0.318002 0.592921 -0.261352
H16   H     H_    0.651807 0.359276 0.630763 0.198168
H17   H     H_    0.780901 0.322946 0.624518 0.143502
H18   H     H_    0.696266 0.248181 0.599346 0.173129
C57   C     C_2   0.151459 0.272154 0.400441 0.410071
H19   H     H_    0.211665 0.250289 0.426184 0.027134
O13   O     O_2   0.142072 0.232027 0.337111 -0.462441
C58   C     C_2   0.875097 0.746828 0.535998 0.305981
H20   H     H_    0.916379 0.802259 0.497188 0.136170
O14   O     O_2   0.786616 0.759108 0.587346 -0.574595
O15   O     O_3   0.934635 0.266486 0.438641 -0.524217
C59   C     C_3   0.936351 0.202456 0.504799 -0.186256
H21   H     H_    0.863621 0.165882 0.525011 0.184880
H22   H     H_    0.942591 0.230657 0.567732 0.091900
H23   H     H_    0.000423 0.153246 0.475650 0.220793
O16   O     O_3   0.066923 0.733878 0.565653 -0.563055
C60   C     C_3   0.002012 0.768030 0.650336 -0.252395
H24   H     H_    0.050283 0.785961 0.690603 0.170642
H25   H     H_    0.944024 0.720793 0.692061 0.143513
H26   H     H_    0.962013 0.830023 0.639900 0.207372
C61   C     C_2   0.483296 0.404709 0.204342 0.421319
H27   H     H_    0.461322 0.379281 0.272644 0.077306
O17   O     O_2   0.466417 0.358661 0.148144 -0.508092
C62   C     C_2   0.582710 0.466014 0.777528 0.377185
H28   H     H_    0.636125 0.503239 0.723118 0.090706
O18   O     O_2   0.615178 0.400417 0.806622 -0.533813
O19   O     O_3   0.748533 0.593923 0.234977 -0.519538
C63   C     C_3   0.720013 0.675466 0.280997 -0.207252
H29   H     H_    0.744863 0.672497 0.340737 0.177521
H30   H     H_    0.635239 0.690551 0.305570 0.096836
H31   H     H_    0.762044 0.730129 0.237702 0.179320
O20   O     O_3   0.232482 0.439611 0.782544 -0.562083
C64   C     C_3   0.255183 0.351632 0.750153 -0.239827
H32   H     H_    0.338354 0.331045 0.730003 0.118361
H33   H     H_    0.232771 0.345603 0.689369 0.175758
H34   H     H_    0.208070 0.304941 0.801481 0.173724
O21   O     O_3   0.170499 0.430587 0.965183 -0.567658
C65   C     C_3   0.183745 0.343073 0.993351 -0.220893
H35   H     H_    0.237136 0.301656 0.937910 0.135318
H36   H     H_    0.107682 0.311382 0.016432 0.202917
H37   H     H_    0.212345 0.342676 0.051103 0.189649
O22   O     O_3   0.777629 0.669196 0.069321 -0.508972
C66   C     C_3   0.729885 0.754357 0.073998 -0.312662
H38   H     H_    0.789337 0.804820 0.064467 0.202466
H39   H     H_    0.668359 0.767370 0.140458 0.126492
H40   H     H_    0.696760 0.764074 0.019527 0.151765
C67   C     C_2   0.795549 0.078361 0.399460 0.362700
H41   H     H_    0.804296 0.146101 0.375393 0.125525
O23   O     O_2   0.873972 0.034647 0.392631 -0.523461
C68   C     C_2   0.207051 0.922090 0.569087 0.380788
H42   H     H_    0.196399 0.854794 0.593540 0.110300
O24   O     O_2   0.131235 0.965100 0.567235 -0.540858

loop_
_geom_bond_atom_site_label_1
_geom_bond_atom_site_label_2
_geom_bond_distance
_ccdc_geom_bond_type
C15   C21   1.423818 A    
C46   C48   1.405166 A    
C56   H16   1.106159 S    
C43   C45   1.416672 A    
C16   C22   1.421072 A    
C61   O17   1.221351 D    
C8    C16   1.420899 A    
C31   C32   1.403909 A    
O22   C66   1.415280 S    
O15   C59   1.418537 S    
O21   C65   1.413803 S    
C35   C37   1.400949 A    
C5    C9    1.413460 A    
C51   O15   1.388622 S    
C34   C37   1.397123 A    
O1    C1    1.301560 A    
C18   C19   1.406083 A    
C23   C25   1.397020 A    
C14   C16   1.422463 A    
C66   H38   1.109114 S    
C10   O19   1.385330 S    
C54   O10   1.220877 D    
C39   N1    1.377276 A    
C40   N2    1.383168 A    
C12   C61   1.499041 S    
C19   H1    1.083488 S    
N2    C42   1.366933 A    
C47   C52   1.425436 A    
O4    Cu1   1.961700 S    
C49   C51   1.420425 A    
O20   C64   1.414516 S    
C42   C44   1.422836 A    
C8    O22   1.384455 S    
C62   H28   1.084365 S    
C3    C5    1.496199 S    
C7    O21   1.383693 S    
C4    C6    1.477138 S    
C9    O20   1.383631 S    
C45   C47   1.409400 A    
O6    Cu2   1.942877 S    
C61   H27   1.082709 S    
C24   C34   1.388762 A    
C44   C50   1.418611 A    
C20   C22   1.394687 A    
C24   H4    1.082911 S    
O6    C4    1.300682 A    
C66   H40   1.109651 S    
C36   C38   1.399402 A    
Cu1   Cu2   2.689920 S    
C35   C67   1.489685 S    
C17   C20   1.407483 A    
C28   C30   1.406525 A    
C29   C31   1.422622 A    
O2    C2    1.302528 A    
C30   C32   1.422601 A    
C39   C47   1.429627 A    
C40   O12   1.373354 S    
C32   C34   1.407863 A    
C63   H29   1.108089 S    
C13   C17   1.423681 A    
C64   H33   1.109708 S    
N1    C41   1.359774 A    
C20   H2    1.082042 S    
C43   C49   1.415037 A    
C27   C29   1.405922 A    
C57   H19   1.083859 S    
O7    Cu2   1.928178 S    
O12   C56   1.413913 S    
O11   C55   1.412358 S    
C41   H9    1.076205 S    
C37   H7    1.084920 S    
C38   H8    1.085063 S    
C28   H6    1.076807 S    
C44   C46   1.412767 A    
O5    C3    1.314386 A    
C53   H11   1.083679 S    
C57   O13   1.221149 D    
C31   C33   1.408189 A    
C21   C53   1.487032 S    
C5    C11   1.417455 A    
C6    C10   1.411198 A    
C41   C43   1.418183 A    
C29   C35   1.421083 A    
C2    C25   1.461345 S    
C58   H20   1.085282 S    
C60   H25   1.116155 S    
C30   C36   1.420822 A    
C58   O14   1.220908 D    
C53   O9    1.221712 D    
O3    Cu2   1.961700 S    
O8    C4    1.299829 A    
C65   H37   1.110332 S    
C40   C48   1.425809 A    
C55   H13   1.106672 S    
C55   H14   1.110134 S    
O7    C3    1.295829 A    
C23   H3    1.085024 S    
C67   H41   1.081679 S    
C12   C14   1.417848 A    
O4    C2    1.292466 A    
O1    Cu1   1.975649 S    
C45   C46   1.422293 A    
C23   C33   1.388010 A    
C17   C18   1.400409 A    
C68   O24   1.221630 D    
C65   H36   1.109105 S    
O19   C63   1.410572 S    
C64   H34   1.108438 S    
C6    C12   1.408856 A    
C50   C58   1.485499 S    
C54   H12   1.085771 S    
C36   C68   1.486418 S    
C14   C18   1.420173 A    
C68   H42   1.078083 S    
O3    C1    1.294185 A    
O8    Cu1   1.928178 S    
C63   H30   1.115382 S    
C64   H32   1.115100 S    
Cu1   N1    2.020930 S    
C55   H15   1.106688 S    
Cu2   N2    2.020932 S    
C59   H22   1.116271 S    
C59   H23   1.109083 S    
C7    C15   1.423915 A    
C11   C13   1.415903 A    
C25   C27   1.398416 A    
C49   C57   1.487763 S    
C26   C28   1.398102 A    
C27   H5    1.075187 S    
C52   O16   1.391830 S    
C33   C38   1.396024 A    
C48   C51   1.424708 A    
C24   C26   1.397470 A    
C7    C9    1.406924 A    
C60   H26   1.109395 S    
C8    C10   1.404675 A    
C13   C15   1.422186 A    
O16   C60   1.419951 S    
O2    Cu2   1.975648 S    
C39   O11   1.378337 S    
C62   O18   1.221072 D    
C63   H31   1.108298 S    
C22   C54   1.484277 S    
O5    Cu1   1.942879 S    
C19   C21   1.403275 A    
C59   H21   1.107625 S    
C56   H18   1.108786 S    
C60   H24   1.108317 S    
C67   O23   1.221654 D    
C56   H17   1.113931 S    
C42   H10   1.069681 S    
C11   C62   1.488125 S    
C50   C52   1.425234 A    
C1    C26   1.462953 S    
C65   H35   1.112839 S    
C66   H39   1.113842 S    
