data_mof_unit_31753.cif
_audit_creation_date              2013-03-05T16:43:54-0500
_audit_creation_method            fapswitch 2.2
_symmetry_space_group_name_H-M    P1
_symmetry_Int_Tables_number       1
_space_group_crystal_system       triclinic
_cell_length_a                    9.865533
_cell_length_b                    10.674989
_cell_length_c                    16.638842
_cell_angle_alpha                 90.404717
_cell_angle_beta                  85.301385
_cell_angle_gamma                 90.253587
_cell_volume                      1746.36514401

loop_
_atom_site_label
_atom_site_type_symbol
_atom_site_description
_atom_site_fract_x
_atom_site_fract_y
_atom_site_fract_z
_atom_type_partial_charge
O1    O     O_R   0.385310 0.683210 0.499990 -0.607744
O2    O     O_R   0.614650 0.683240 0.500000 -0.622438
C1    C     C_R   0.500374 0.739967 0.498110 0.888651
O3    O     O_R   0.371780 0.500000 0.615800 -0.607058
O4    O     O_R   0.601120 0.500040 0.615800 -0.627446
C2    C     C_R   0.481219 0.493824 0.653252 0.844554
Zn1   Zn    Zn3+2 0.346870 0.499980 0.499990 0.974402
Zn2   Zn    Zn3+2 0.653130 0.500020 0.500010 0.946227
O5    O     O_R   0.385350 0.316760 0.500000 -0.618727
O6    O     O_R   0.614690 0.316790 0.500010 -0.609997
O7    O     O_R   0.398880 0.499960 0.384200 -0.605712
O8    O     O_R   0.628220 0.500000 0.384200 -0.627186
C3    C     C_R   0.499973 0.259994 0.497975 0.876827
C4    C     C_R   0.518843 0.497387 0.346443 0.857618
C5    C     C_R   0.469460 0.451806 0.736407 -0.039391
C6    C     C_R   0.572112 0.375621 0.762903 -0.213719
C7    C     C_R   0.557454 0.323748 0.839172 -0.155027
C8    C     C_R   0.441121 0.349773 0.890488 0.200112
C9    C     C_R   0.335426 0.420564 0.862795 -0.161753
C10   C     C_R   0.349503 0.471563 0.785856 -0.196429
C11   C     C_R   0.419685 0.444312 0.137367 -0.157026
C12   C     C_R   0.415689 0.485556 0.216605 -0.205886
C13   C     C_R   0.650879 0.422880 0.222560 -0.197201
C14   C     C_R   0.654838 0.381434 0.143073 -0.176350
C15   C     C_R   0.538420 0.388948 0.100756 0.206828
C16   C     C_2   0.438364 0.324737 0.976697 -0.242939
C17   C     C_2   0.548281 0.353021 0.015567 -0.228195
C18   C     C_R   0.530273 0.472955 0.260080 -0.030278
H1    H     H_    0.662770 0.354151 0.724193 0.157176
H2    H     H_    0.322382 0.525779 0.244169 0.172599
H3    H     H_    0.740605 0.411942 0.255251 0.149868
H4    H     H_    0.646459 0.367549 0.982278 0.150926
H5    H     H_    0.245378 0.441838 0.902165 0.124730
H6    H     H_    0.330523 0.458500 0.104846 0.127173
H7    H     H_    0.268119 0.527864 0.765552 0.142373
H8    H     H_    0.339998 0.310816 0.009764 0.148010
H9    H     H_    0.638752 0.266740 0.859014 0.133337
H10   H     H_    0.748276 0.342401 0.114796 0.127946
C19   C     C_R   0.377656 0.935404 0.495527 0.118097
C20   C     C_R   0.500574 0.871363 0.487059 -0.111470
C21   C     C_R   0.621917 0.935453 0.464686 -0.220759
H11   H     H_    0.717365 0.886535 0.452112 0.177883
C22   C     C_R   0.621573 0.064995 0.464634 -0.174622
H12   H     H_    0.716943 0.114624 0.452149 0.193480
C23   C     C_R   0.499794 0.128389 0.486792 -0.165689
C24   C     C_R   0.376933 0.063304 0.494923 0.075956
C25   C     C_3   0.264175 0.069254 0.561016 0.154177
C26   C     C_3   0.264655 0.926929 0.560952 -0.559610
H13   H     H_    0.295106 0.112667 0.617793 0.104316
H14   H     H_    0.298125 0.886662 0.617503 0.169220
H15   H     H_    0.172293 0.882407 0.539172 0.233695
C27   C     C_R   0.921994 0.575359 0.552226 0.173738
N1    N     N_R   0.857140 0.500860 0.500530 -0.141962
C28   C     C_R   0.934504 0.436679 0.442689 -0.114651
H16   H     H_    0.882734 0.382952 0.399155 0.155624
C29   C     C_R   0.079603 0.436753 0.441561 0.308239
N2    N     N_R   0.142780 0.500820 0.500530 -0.127754
C30   C     C_R   0.064527 0.574637 0.552607 0.116709
C31   C     C_3   0.059488 0.570378 0.642360 -0.488534
C32   C     C_3   0.905177 0.570884 0.642484 0.011149
H17   H     H_    0.099191 0.480594 0.664230 0.210002
H18   H     H_    0.104481 0.655388 0.668598 0.197900
H19   H     H_    0.857994 0.482190 0.665976 0.145346
N3    N     N_R   0.139072 0.121917 0.533947 0.228427
O9    O     O_R   0.091293 0.083752 0.467279 -0.425868
O10   O     O_R   0.074126 0.207915 0.577198 -0.426656
N4    N     N_2   0.160287 0.367303 0.381854 -0.259419
H20   H     H_    0.217550 0.297595 0.404370 0.290395
C33   C     C_3   0.104555 0.334677 0.306598 -0.842059
H21   H     H_    0.027923 0.258556 0.316215 0.256408
H22   H     H_    0.187501 0.300354 0.262968 0.254977
H23   H     H_    0.058340 0.418169 0.280327 0.231732
N5    N     N_2   0.841097 0.681701 0.680712 -0.290932
H24   H     H_    0.740505 0.667299 0.700522 0.237251
C34   C     C_3   0.864779 0.803504 0.643822 -0.708815
H25   H     H_    0.820503 0.877344 0.685208 0.233582
H26   H     H_    0.815120 0.808500 0.586423 0.242915
H27   H     H_    0.975068 0.822871 0.632322 0.238731

loop_
_geom_bond_atom_site_label_1
_geom_bond_atom_site_label_2
_geom_bond_distance
_ccdc_geom_bond_type
N5    C34   1.451589 S    
C21   H11   1.083368 S    
C9    C10   1.390884 A    
C8    C16   1.458996 S    
C34   H25   1.110142 S    
C25   H13   1.113606 S    
N1    C28   1.361295 A    
Zn1   O7    1.952729 S    
C16   C17   1.339622 D    
C32   H19   1.112402 S    
O1    C1    1.282588 A    
O4    C2    1.292703 A    
O7    C4    1.293961 A    
C5    C6    1.402455 A    
C32   N5    1.460738 S    
C29   N2    1.380531 A    
C8    C9    1.400461 A    
N5    H24   1.030971 S    
C33   H22   1.110149 S    
O5    C3    1.283210 A    
C27   C32   1.498421 S    
C2    C5    1.452939 S    
C28   H16   1.080106 S    
C10   H7    1.082387 S    
C26   H15   1.111460 S    
C6    C7    1.384606 A    
C14   H10   1.083651 S    
C13   C14   1.389206 A    
C26   H14   1.112225 S    
C31   C32   1.522234 S    
C12   C18   1.398546 A    
C11   C12   1.384579 A    
C21   C22   1.382887 A    
O3    Zn1   1.962416 S    
C5    C10   1.400789 A    
C28   C29   1.430059 A    
C31   H17   1.111770 S    
N4    H20   1.027415 S    
C14   C15   1.398365 A    
O3    C2    1.292207 A    
C9    H5    1.083627 S    
C19   C20   1.391307 A    
C11   H6    1.081574 S    
C6    H1    1.082892 S    
C23   C24   1.391830 A    
N4    C33   1.447920 S    
N3    O10   1.300584 A    
C33   H23   1.111342 S    
C22   H12   1.083606 S    
C34   H26   1.110219 S    
C25   C26   1.519344 S    
Zn2   O8    1.962416 S    
C7    C8    1.400835 A    
C7    H9    1.083117 S    
C13   C18   1.403728 A    
C22   C23   1.402991 A    
C27   C30   1.406752 A    
C19   C24   1.365492 A    
C16   H8    1.085795 S    
C20   C21   1.401092 A    
O8    C4    1.292422 A    
C1    C20   1.415918 S    
C25   N3    1.463886 S    
C27   N1    1.362981 A    
Zn1   O5    1.994025 S    
C11   C15   1.405942 A    
C24   C25   1.500034 S    
C31   H18   1.110733 S    
C12   H2    1.083348 S    
C17   H4    1.086734 S    
O1    Zn1   1.990754 S    
O2    Zn2   1.994024 S    
O6    C3    1.284329 A    
Zn2   N1    2.013375 S    
O4    Zn2   1.952729 S    
C15   C17   1.461422 S    
C29   N4    1.426698 S    
N3    O9    1.302393 A    
O2    C1    1.284845 A    
C30   C31   1.491152 S    
C3    C23   1.415861 S    
N2    C30   1.361583 A    
C33   H21   1.110882 S    
C34   H27   1.108013 S    
Zn2   O6    1.990755 S    
C4    C18   1.453989 S    
Zn1   N2    2.012800 S    
C13   H3    1.083405 S    
C19   C26   1.495899 S    
