data_mof_unit_62007.cif
_audit_creation_date              2012-12-10T20:40:27-0500
_audit_creation_method            fapswitch 2.2
_symmetry_space_group_name_H-M    P1
_symmetry_Int_Tables_number       1
_space_group_crystal_system       orthorhombic
_cell_length_a                    28.095989
_cell_length_b                    28.095987
_cell_length_c                    60.048776
_cell_angle_alpha                 90.0
_cell_angle_beta                  90.0
_cell_angle_gamma                 90.0
_cell_volume                      47401.5755222

loop_
_atom_site_label
_atom_site_type_symbol
_atom_type_description
_atom_site_fract_x
_atom_site_fract_y
_atom_site_fract_z
_atom_type_partial_charge
C1    C     C_R   0.500000 0.000000 0.189668 0.861616
C2    C     C_R   0.471409 0.032668 0.653055 0.111152
C3    C     C_R   0.500000 0.000000 0.976342 0.083289
C4    C     C_R   0.500000 0.000000 0.523657 0.083289
C5    C     C_R   0.500000 0.000000 0.476342 0.083290
C6    C     C_R   1.000000 0.500000 0.523658 0.083289
C7    C     C_R   0.000000 0.500000 0.476342 0.083289
C8    C     C_R   0.914335 0.490318 0.023936 -0.244017
C9    C     C_R   0.085664 0.490317 0.976063 -0.244017
C10   C     C_R   0.490317 0.914335 0.023936 -0.244018
C11   C     C_R   0.490318 0.085665 0.976063 -0.244017
C12   C     C_R   0.085665 0.509681 0.023936 -0.244017
C13   C     C_R   0.032665 0.528594 0.346945 0.111149
C14   C     C_R   0.914335 0.509683 0.976063 -0.244017
C15   C     C_R   0.509683 0.085665 0.023936 -0.244018
C16   C     C_R   0.509682 0.914335 0.976063 -0.244017
C17   C     C_R   0.414333 0.990341 0.523936 -0.244018
C18   C     C_R   0.585662 0.990294 0.476063 -0.244018
C19   C     C_R   0.990316 0.414336 0.523937 -0.244017
C20   C     C_R   0.990319 0.585665 0.476063 -0.244017
C21   C     C_R   0.585667 0.009659 0.523936 -0.244018
C22   C     C_R   0.414338 0.009705 0.476063 -0.244018
C23   C     C_R   0.009684 0.585664 0.523937 -0.244017
C24   C     C_R   0.032664 0.471405 0.653055 0.111149
C25   C     C_R   0.009681 0.414335 0.476063 -0.244017
C26   C     C_R   0.590976 0.908973 0.249978 0.809827
C27   C     C_R   0.408973 0.090976 0.749978 0.809825
C28   C     C_R   0.090976 0.591027 0.250022 0.809826
C29   C     C_R   0.908973 0.409024 0.750022 0.809826
C30   C     C_R   0.409024 0.091027 0.249978 0.809827
C31   C     C_R   0.591027 0.909024 0.749978 0.809825
C32   C     C_R   0.909024 0.408973 0.250022 0.809826
C33   C     C_R   0.091027 0.590976 0.750022 0.809826
C34   C     C_R   0.590976 0.091027 0.750022 0.809825
C35   C     C_R   0.471401 0.967339 0.346945 0.111145
C36   C     C_R   0.408973 0.909024 0.250022 0.809827
C37   C     C_R   0.090976 0.408973 0.749978 0.809826
C38   C     C_R   0.908973 0.590976 0.249978 0.809826
C39   C     C_R   0.409024 0.908973 0.750022 0.809826
C40   C     C_R   0.591027 0.090976 0.250022 0.809828
C41   C     C_R   0.909024 0.591027 0.749978 0.809826
C42   C     C_R   0.091027 0.409024 0.249978 0.809826
C43   C     C_R   0.159722 0.702714 0.235785 -0.150054
C44   C     C_R   0.839749 0.297952 0.764791 -0.148670
C45   C     C_R   0.297952 0.160251 0.235208 -0.148670
C46   C     C_R   0.528591 0.967332 0.653055 0.111153
C47   C     C_R   0.702714 0.840277 0.764215 -0.150053
C48   C     C_R   0.840278 0.297286 0.235785 -0.150054
C49   C     C_R   0.160251 0.702048 0.764791 -0.148669
C50   C     C_R   0.702048 0.839749 0.235208 -0.148670
C51   C     C_R   0.297286 0.159722 0.764215 -0.150054
C52   C     C_R   0.159722 0.297286 0.764215 -0.150054
C53   C     C_R   0.839749 0.702048 0.235208 -0.148670
C54   C     C_R   0.297952 0.839749 0.764791 -0.148670
C55   C     C_R   0.702714 0.159722 0.235785 -0.150053
C56   C     C_R   0.840278 0.702714 0.764215 -0.150054
C57   C     C_R   0.967335 0.471406 0.346945 0.111150
C58   C     C_R   0.160251 0.297952 0.235208 -0.148669
C59   C     C_R   0.702048 0.160251 0.764791 -0.148670
C60   C     C_R   0.297286 0.840277 0.235785 -0.150054
C61   C     C_R   0.659722 0.202714 0.735785 -0.150055
C62   C     C_R   0.339749 0.797952 0.264791 -0.148670
C63   C     C_R   0.797952 0.660251 0.735208 -0.148670
C64   C     C_R   0.202714 0.340278 0.264215 -0.150054
C65   C     C_R   0.340278 0.797286 0.735785 -0.150055
C66   C     C_R   0.660251 0.202048 0.264791 -0.148669
C67   C     C_R   0.202048 0.339749 0.735208 -0.148670
C68   C     C_R   0.967336 0.528595 0.653055 0.111149
C69   C     C_R   0.797286 0.659722 0.264215 -0.150054
C70   C     C_R   0.659722 0.797286 0.264215 -0.150054
C71   C     C_R   0.339749 0.202048 0.735208 -0.148670
C72   C     C_R   0.797952 0.339749 0.264791 -0.148670
C73   C     C_R   0.202714 0.659722 0.735785 -0.150054
C74   C     C_R   0.340278 0.202714 0.264215 -0.150054
C75   C     C_R   0.660251 0.797952 0.735208 -0.148670
C76   C     C_R   0.202048 0.660251 0.264791 -0.148670
C77   C     C_R   0.797286 0.340278 0.735785 -0.150054
C78   C     C_R   0.124645 0.667505 0.235671 -0.179963
C79   C     C_R   0.028594 0.532664 0.846945 0.111149
C80   C     C_R   0.875016 0.332972 0.764708 -0.166327
C81   C     C_R   0.332972 0.124984 0.235292 -0.166326
C82   C     C_R   0.667505 0.875355 0.764329 -0.179963
C83   C     C_R   0.875355 0.332495 0.235671 -0.179963
C84   C     C_R   0.124984 0.667028 0.764708 -0.166327
C85   C     C_R   0.667028 0.875016 0.235292 -0.166326
C86   C     C_R   0.332495 0.124645 0.764329 -0.179963
C87   C     C_R   0.124645 0.332495 0.764329 -0.179964
C88   C     C_R   0.875016 0.667028 0.235292 -0.166327
C89   C     C_R   0.332972 0.875016 0.764708 -0.166326
C90   C     C_R   0.971406 0.532664 0.153055 0.111149
C91   C     C_R   0.667505 0.124645 0.235671 -0.179963
C92   C     C_R   0.875355 0.667505 0.764329 -0.179963
C93   C     C_R   0.124984 0.332972 0.235292 -0.166327
C94   C     C_R   0.667028 0.124984 0.764708 -0.166327
C95   C     C_R   0.332495 0.875355 0.235671 -0.179963
C96   C     C_R   0.624645 0.167505 0.735671 -0.179964
C97   C     C_R   0.375016 0.832972 0.264708 -0.166326
C98   C     C_R   0.832972 0.624984 0.735292 -0.166327
C99   C     C_R   0.167505 0.375355 0.264329 -0.179963
C100  C     C_R   0.375355 0.832495 0.735671 -0.179964
C101  C     C_R   0.532665 0.028594 0.846945 0.111150
C102  C     C_R   0.624984 0.167028 0.264708 -0.166326
C103  C     C_R   0.167028 0.375016 0.735292 -0.166326
C104  C     C_R   0.832495 0.624645 0.264329 -0.179964
C105  C     C_R   0.624645 0.832495 0.264329 -0.179963
C106  C     C_R   0.375016 0.167028 0.735292 -0.166327
C107  C     C_R   0.832972 0.375016 0.264708 -0.166326
C108  C     C_R   0.167505 0.624645 0.735671 -0.179964
C109  C     C_R   0.375355 0.167505 0.264329 -0.179963
C110  C     C_R   0.624984 0.832972 0.735292 -0.166327
C111  C     C_R   0.167028 0.624984 0.264708 -0.166326
C112  C     C_R   0.500000 1.000000 0.810332 0.861615
C113  C     C_R   0.532663 0.971405 0.153055 0.111147
C114  C     C_R   0.832495 0.375355 0.735671 -0.179964
C115  C     C_R   0.127993 0.628264 0.250125 -0.018707
C116  C     C_R   0.871736 0.372007 0.750125 -0.018707
C117  C     C_R   0.372007 0.128264 0.249875 -0.018707
C118  C     C_R   0.628264 0.872007 0.749875 -0.018707
C119  C     C_R   0.872007 0.371736 0.250125 -0.018707
C120  C     C_R   0.128264 0.627993 0.750125 -0.018707
C121  C     C_R   0.627993 0.871736 0.249875 -0.018707
C122  C     C_R   0.371736 0.127993 0.749875 -0.018707
C123  C     C_R   0.127993 0.371736 0.749875 -0.018707
C124  C     C_R   0.971406 0.467336 0.846945 0.111150
C125  C     C_R   0.871736 0.627993 0.249875 -0.018707
C126  C     C_R   0.372007 0.871736 0.750125 -0.018707
C127  C     C_R   0.628264 0.127993 0.250125 -0.018706
C128  C     C_R   0.872007 0.628264 0.749875 -0.018707
C129  C     C_R   0.128264 0.372007 0.249875 -0.018707
C130  C     C_R   0.627993 0.128264 0.750125 -0.018707
C131  C     C_R   0.371736 0.872007 0.250125 -0.018707
C132  C     C_R   0.198433 0.699103 0.250330 0.147286
C133  C     C_R   0.800897 0.301567 0.750330 0.147286
C134  C     C_R   0.301567 0.199103 0.249670 0.147286
C135  C     C_R   0.028594 0.467336 0.153055 0.111149
C136  C     C_R   0.699103 0.801567 0.749670 0.147285
C137  C     C_R   0.801567 0.300897 0.250330 0.147286
C138  C     C_R   0.199103 0.698433 0.750330 0.147286
C139  C     C_R   0.698433 0.800897 0.249670 0.147286
C140  C     C_R   0.300897 0.198433 0.749670 0.147286
C141  C     C_R   0.198433 0.300897 0.749670 0.147286
C142  C     C_R   0.800897 0.698433 0.249670 0.147286
C143  C     C_R   0.301567 0.800897 0.750330 0.147286
C144  C     C_R   0.699103 0.198433 0.250330 0.147286
C145  C     C_R   0.801567 0.699103 0.749670 0.147286
C146  C     C_R   0.467335 0.971406 0.846945 0.111150
C147  C     C_R   0.199103 0.301567 0.249670 0.147286
C148  C     C_R   0.698433 0.199103 0.750330 0.147286
C149  C     C_R   0.300897 0.801567 0.250330 0.147286
C150  C     C_1   0.234507 0.735223 0.250374 -0.044049
C151  C     C_1   0.764776 0.265492 0.750374 -0.044049
C152  C     C_1   0.265493 0.235223 0.249626 -0.044048
C153  C     C_1   0.735223 0.765492 0.749626 -0.044049
C154  C     C_1   0.765493 0.264776 0.250374 -0.044049
C155  C     C_1   0.235223 0.734507 0.750374 -0.044049
C156  C     C_1   0.734507 0.764776 0.249626 -0.044049
C157  C     C_R   0.467336 0.028595 0.153055 0.111148
C158  C     C_1   0.264777 0.234507 0.749626 -0.044049
C159  C     C_1   0.234508 0.264776 0.749626 -0.044049
C160  C     C_1   0.764776 0.734507 0.249626 -0.044049
C161  C     C_1   0.265492 0.764776 0.750374 -0.044049
C162  C     C_1   0.735223 0.234507 0.250374 -0.044049
C163  C     C_1   0.765492 0.735223 0.749626 -0.044049
C164  C     C_1   0.235223 0.265492 0.249626 -0.044049
C165  C     C_1   0.734507 0.235223 0.750374 -0.044049
C166  C     C_1   0.264776 0.765492 0.250374 -0.044049
C167  C     C_R   0.458272 0.007716 0.417208 0.545990
C168  C     C_R   0.500000 0.000000 0.382007 0.215059
C169  C     C_R   0.541731 0.007698 0.582791 0.545989
C170  C     C_R   0.007706 0.458271 0.417208 0.545991
C171  C     C_R   0.007708 0.541729 0.582791 0.545989
C172  C     C_R   0.541728 0.992284 0.417208 0.545990
C173  C     C_R   0.458269 0.992302 0.582791 0.545990
C174  C     C_R   0.992294 0.541729 0.417208 0.545990
C175  C     C_R   0.992292 0.458271 0.582791 0.545988
C176  C     C_R   0.958271 0.507707 0.917208 0.545989
C177  C     C_R   0.041729 0.507707 0.082792 0.545989
C178  C     C_R   0.507707 0.958271 0.917208 0.545990
C179  C     C_R   0.500000 1.000000 0.617992 0.215049
C180  C     C_R   0.507707 0.041729 0.082792 0.545989
C181  C     C_R   0.041729 0.492293 0.917208 0.545990
C182  C     C_R   0.958271 0.492293 0.082792 0.545991
C183  C     C_R   0.492293 0.041729 0.917208 0.545990
C184  C     C_R   0.492293 0.958271 0.082792 0.545990
C185  C     C_R   0.527950 0.032669 0.370222 -0.113563
C186  C     C_R   0.472058 0.032676 0.629778 -0.113567
C187  C     C_R   0.032673 0.527945 0.370222 -0.113565
C188  C     C_R   0.032673 0.472054 0.629778 -0.113565
C189  C     C_R   0.472050 0.967331 0.370222 -0.113563
C190  C     C_R   0.000000 0.500000 0.382007 0.215053
C191  C     C_R   0.527942 0.967324 0.629778 -0.113566
C192  C     C_R   0.967327 0.472055 0.370222 -0.113565
C193  C     C_R   0.967327 0.527946 0.629778 -0.113565
C194  C     C_R   0.027946 0.532673 0.870222 -0.113565
C195  C     C_R   0.972054 0.532673 0.129778 -0.113565
C196  C     C_R   0.532673 0.027945 0.870222 -0.113565
C197  C     C_R   0.532672 0.972053 0.129778 -0.113565
C198  C     C_R   0.972054 0.467327 0.870222 -0.113565
C199  C     C_R   0.027946 0.467327 0.129778 -0.113565
C200  C     C_R   0.467327 0.972055 0.870222 -0.113566
C201  C     C_R   0.000000 0.500000 0.617993 0.215055
C202  C     C_R   0.467328 0.027947 0.129778 -0.113565
C203  C     C_R   0.000000 0.500000 0.882007 0.215055
C204  C     C_R   0.000000 0.500000 0.189668 0.861616
C205  C     C_R   0.000000 0.500000 0.117993 0.215053
C206  C     C_R   0.500000 1.000000 0.882007 0.215055
C207  C     C_R   0.500000 0.000000 0.117993 0.215054
C208  C     C_R   0.500000 0.000000 0.452579 -0.113716
C209  C     C_R   0.500000 1.000000 0.547421 -0.113716
C210  C     C_R   0.000000 0.500000 0.452579 -0.113715
C211  C     C_R   0.000000 0.500000 0.547421 -0.113716
C212  C     C_R   0.000000 0.500000 0.952579 -0.113716
C213  C     C_R   0.000000 0.500000 0.047421 -0.113715
C214  C     C_R   0.500000 0.000000 0.952579 -0.113714
C215  C     C_R   0.000000 0.500000 0.810332 0.861616
C216  C     C_R   0.500000 0.000000 0.047421 -0.113716
C217  C     C_R   0.456706 0.006466 0.440733 -0.083340
C218  C     C_R   0.543298 0.006444 0.559266 -0.083337
C219  C     C_R   0.006454 0.456704 0.440734 -0.083339
C220  C     C_R   0.006456 0.543296 0.559266 -0.083339
C221  C     C_R   0.543294 0.993534 0.440733 -0.083340
C222  C     C_R   0.456702 0.993556 0.559266 -0.083338
C223  C     C_R   0.993546 0.543296 0.440734 -0.083339
C224  C     C_R   0.993544 0.456704 0.559266 -0.083339
C225  C     C_R   0.956704 0.506455 0.940734 -0.083339
C226  C     C_R   0.000000 0.500000 0.689668 0.861616
C227  C     C_R   0.043296 0.506455 0.059266 -0.083339
C228  C     C_R   0.506455 0.956704 0.940734 -0.083340
C229  C     C_R   0.506455 0.043296 0.059266 -0.083339
C230  C     C_R   0.043296 0.493544 0.940734 -0.083339
C231  C     C_R   0.956704 0.493545 0.059266 -0.083339
C232  C     C_R   0.493545 0.043296 0.940734 -0.083340
C233  C     C_R   0.493545 0.956704 0.059266 -0.083339
C234  C     C_R   0.413811 0.012008 0.452922 0.235193
C235  C     C_R   0.586195 0.011961 0.547078 0.235192
C236  C     C_R   0.011983 0.413807 0.452922 0.235192
C237  C     C_R   0.000000 0.500000 0.310332 0.861615
C238  C     C_R   0.011986 0.586192 0.547078 0.235192
C239  C     C_R   0.586189 0.987992 0.452922 0.235193
C240  C     C_R   0.413805 0.988039 0.547078 0.235192
C241  C     C_R   0.988017 0.586193 0.452922 0.235193
C242  C     C_R   0.988014 0.413808 0.547078 0.235192
C243  C     C_R   0.913808 0.511985 0.952922 0.235192
C244  C     C_R   0.086192 0.511984 0.047078 0.235192
C245  C     C_R   0.511984 0.913807 0.952922 0.235192
C246  C     C_R   0.511985 0.086192 0.047078 0.235192
C247  C     C_R   0.086192 0.488015 0.952922 0.235192
C248  C     C_R   0.500000 1.000000 0.689668 0.861613
C249  C     C_R   0.913807 0.488016 0.047078 0.235193
C250  C     C_R   0.488016 0.086192 0.952922 0.235192
C251  C     C_R   0.488015 0.913808 0.047078 0.235192
C252  C     C_R   0.500000 0.000000 0.334956 -0.130810
C253  C     C_R   0.500000 1.000000 0.665044 -0.130823
C254  C     C_R   1.000000 0.500000 0.334956 -0.130818
C255  C     C_R   0.000000 0.500000 0.665044 -0.130817
C256  C     C_R   0.000000 0.500000 0.834956 -0.130818
C257  C     C_R   0.000000 0.500000 0.165044 -0.130817
C258  C     C_R   0.500000 1.000000 0.834956 -0.130818
C259  C     C_R   0.500000 0.000000 0.310332 0.861619
C260  C     C_R   0.500000 0.000000 0.165044 -0.130815
C261  C     C_R   0.956542 0.497749 0.011816 0.030283
C262  C     C_R   0.043458 0.497749 0.988184 0.030283
C263  C     C_R   0.497749 0.956542 0.011816 0.030283
C264  C     C_R   0.497749 0.043458 0.988184 0.030283
C265  C     C_R   0.043458 0.502251 0.011816 0.030283
C266  C     C_R   0.956542 0.502251 0.988184 0.030283
C267  C     C_R   0.502251 0.043458 0.011816 0.030283
C268  C     C_R   0.502251 0.956542 0.988184 0.030283
C269  C     C_R   0.456541 0.997761 0.511816 0.030283
C270  C     C_R   0.528599 0.032661 0.346945 0.111144
C271  C     C_R   0.543458 0.997737 0.488183 0.030283
C272  C     C_R   0.997748 0.456542 0.511816 0.030283
C273  C     C_R   0.997750 0.543458 0.488184 0.030283
C274  C     C_R   0.543459 0.002239 0.511816 0.030283
C275  C     C_R   0.456542 0.002263 0.488183 0.030283
C276  C     C_R   0.002252 0.543458 0.511816 0.030283
C277  C     C_R   0.002250 0.456542 0.488184 0.030283
C278  C     C_R   0.000000 0.500000 0.023658 0.083289
C279  C     C_R   1.000000 0.500000 0.976342 0.083289
C280  C     C_R   0.500000 0.000000 0.023658 0.083289
H1    H     H_    0.156676 0.732708 0.224531 0.144931
H2    H     H_    0.842787 0.731924 0.223886 0.146560
H3    H     H_    0.268076 0.842787 0.776114 0.146560
H4    H     H_    0.732708 0.156676 0.224531 0.144930
H5    H     H_    0.843324 0.732708 0.775468 0.144931
H6    H     H_    0.157213 0.268075 0.223886 0.146560
H7    H     H_    0.731924 0.157213 0.776114 0.146560
H8    H     H_    0.267292 0.843324 0.224531 0.144931
H9    H     H_    0.656676 0.232708 0.724531 0.144930
H10   H     H_    0.342787 0.768075 0.276114 0.146559
H11   H     H_    0.768076 0.657213 0.723886 0.146560
H12   H     H_    0.842787 0.268075 0.776114 0.146560
H13   H     H_    0.232708 0.343324 0.275468 0.144931
H14   H     H_    0.343324 0.767292 0.724531 0.144930
H15   H     H_    0.657213 0.231924 0.276114 0.146559
H16   H     H_    0.231924 0.342787 0.723886 0.146560
H17   H     H_    0.767292 0.656676 0.275468 0.144931
H18   H     H_    0.656676 0.767292 0.275468 0.144931
H19   H     H_    0.342787 0.231924 0.723886 0.146560
H20   H     H_    0.768076 0.342787 0.276114 0.146560
H21   H     H_    0.232708 0.656676 0.724531 0.144930
H22   H     H_    0.343324 0.232708 0.275468 0.144931
H23   H     H_    0.268076 0.157213 0.223886 0.146560
H24   H     H_    0.657213 0.768076 0.723886 0.146560
H25   H     H_    0.231924 0.657213 0.276114 0.146560
H26   H     H_    0.767292 0.343324 0.724531 0.144930
H27   H     H_    0.094985 0.670981 0.224269 0.169291
H28   H     H_    0.904780 0.329499 0.776053 0.175676
H29   H     H_    0.329499 0.095219 0.223947 0.175676
H30   H     H_    0.670981 0.905015 0.775732 0.169291
H31   H     H_    0.905015 0.329019 0.224269 0.169291
H32   H     H_    0.095219 0.670501 0.776053 0.175676
H33   H     H_    0.670501 0.904780 0.223947 0.175676
H34   H     H_    0.732708 0.843324 0.775468 0.144930
H35   H     H_    0.329019 0.094985 0.775732 0.169291
H36   H     H_    0.094985 0.329019 0.775731 0.169292
H37   H     H_    0.904780 0.670501 0.223947 0.175676
H38   H     H_    0.329499 0.904780 0.776053 0.175676
H39   H     H_    0.670981 0.094985 0.224269 0.169291
H40   H     H_    0.905015 0.670981 0.775731 0.169292
H41   H     H_    0.095219 0.329499 0.223947 0.175676
H42   H     H_    0.670501 0.095219 0.776053 0.175676
H43   H     H_    0.329019 0.905015 0.224269 0.169291
H44   H     H_    0.594985 0.170981 0.724268 0.169292
H45   H     H_    0.843324 0.267292 0.224531 0.144930
H46   H     H_    0.404780 0.829499 0.276052 0.175675
H47   H     H_    0.829499 0.595220 0.723947 0.175676
H48   H     H_    0.170981 0.405015 0.275731 0.169291
H49   H     H_    0.405015 0.829019 0.724268 0.169292
H50   H     H_    0.595220 0.170501 0.276052 0.175675
H51   H     H_    0.170501 0.404780 0.723947 0.175676
H52   H     H_    0.829019 0.594985 0.275731 0.169292
H53   H     H_    0.594985 0.829019 0.275731 0.169291
H54   H     H_    0.404780 0.170501 0.723947 0.175677
H55   H     H_    0.829499 0.404780 0.276052 0.175676
H56   H     H_    0.157213 0.731924 0.776114 0.146560
H57   H     H_    0.170981 0.594985 0.724268 0.169292
H58   H     H_    0.405015 0.170981 0.275731 0.169291
H59   H     H_    0.595220 0.829499 0.723947 0.175677
H60   H     H_    0.170501 0.595220 0.276052 0.175676
H61   H     H_    0.829019 0.405015 0.724268 0.169292
H62   H     H_    0.450311 0.942027 0.379253 0.181997
H63   H     H_    0.549674 0.942014 0.620746 0.182005
H64   H     H_    0.942020 0.450319 0.379254 0.182001
H65   H     H_    0.942021 0.549682 0.620746 0.182000
H66   H     H_    0.549690 0.057973 0.379253 0.181997
H67   H     H_    0.731924 0.842787 0.223886 0.146560
H68   H     H_    0.450326 0.057986 0.620746 0.182005
H69   H     H_    0.057980 0.549681 0.379254 0.182001
H70   H     H_    0.057979 0.450318 0.620746 0.182000
H71   H     H_    0.950319 0.442020 0.879254 0.182000
H72   H     H_    0.049681 0.442020 0.120746 0.182001
H73   H     H_    0.442020 0.950319 0.879254 0.182000
H74   H     H_    0.442022 0.049683 0.120746 0.182001
H75   H     H_    0.049681 0.557980 0.879254 0.182000
H76   H     H_    0.950319 0.557980 0.120746 0.182001
H77   H     H_    0.557980 0.049681 0.879254 0.182000
H78   H     H_    0.267292 0.156676 0.775468 0.144930
H79   H     H_    0.557978 0.950317 0.120746 0.182001
H80   H     H_    0.880821 0.484307 0.015680 0.171015
H81   H     H_    0.119179 0.484305 0.984320 0.171015
H82   H     H_    0.484305 0.880821 0.015680 0.171015
H83   H     H_    0.484306 0.119179 0.984320 0.171015
H84   H     H_    0.119179 0.515693 0.015680 0.171015
H85   H     H_    0.880821 0.515695 0.984320 0.171015
H86   H     H_    0.515695 0.119179 0.015680 0.171015
H87   H     H_    0.515694 0.880821 0.984320 0.171015
H88   H     H_    0.380817 0.984338 0.515679 0.171015
H89   H     H_    0.156676 0.267292 0.775468 0.144931
H90   H     H_    0.619175 0.984273 0.484320 0.171015
H91   H     H_    0.984304 0.380821 0.515680 0.171015
H92   H     H_    0.984308 0.619179 0.484320 0.171015
H93   H     H_    0.619183 0.015662 0.515679 0.171015
H94   H     H_    0.380825 0.015727 0.484320 0.171015
H95   H     H_    0.015696 0.619179 0.515680 0.171015
H96   H     H_    0.015692 0.380821 0.484320 0.171015
I1    I     I_    0.423540 0.918736 0.331550 -0.304175
I2    I     I_    0.076450 0.418726 0.168449 -0.304169
I3    I     I_    0.418725 0.923551 0.831551 -0.304169
I4    I     I_    0.418728 0.076452 0.168449 -0.304170
I5    I     I_    0.076450 0.581274 0.831551 -0.304170
I6    I     I_    0.923550 0.581274 0.168449 -0.304169
I7    I     I_    0.581275 0.076449 0.831551 -0.304169
I8    I     I_    0.581272 0.923547 0.168449 -0.304170
I9    I     I_    0.344243 0.022945 0.439402 -0.192390
I10   I     I_    0.655770 0.022857 0.560598 -0.192390
I11   I     I_    0.022899 0.344236 0.439402 -0.192389
I12   I     I_    0.576442 0.918717 0.668449 -0.304165
I13   I     I_    0.022904 0.655763 0.560598 -0.192390
I14   I     I_    0.655757 0.977055 0.439402 -0.192390
I15   I     I_    0.344230 0.977143 0.560598 -0.192390
I16   I     I_    0.977101 0.655764 0.439402 -0.192389
I17   I     I_    0.977096 0.344237 0.560598 -0.192390
I18   I     I_    0.844237 0.522903 0.939402 -0.192390
I19   I     I_    0.155763 0.522900 0.060598 -0.192390
I20   I     I_    0.522900 0.844236 0.939402 -0.192390
I21   I     I_    0.522901 0.155763 0.060598 -0.192390
I22   I     I_    0.155763 0.477097 0.939402 -0.192390
I23   I     I_    0.918725 0.423551 0.331551 -0.304169
I24   I     I_    0.844236 0.477100 0.060598 -0.192390
I25   I     I_    0.477100 0.155763 0.939402 -0.192390
I26   I     I_    0.477099 0.844237 0.060598 -0.192389
I27   I     I_    0.918727 0.576451 0.668449 -0.304169
I28   I     I_    0.576460 0.081264 0.331550 -0.304175
I29   I     I_    0.423558 0.081283 0.668449 -0.304165
I30   I     I_    0.081275 0.576449 0.331551 -0.304169
I31   I     I_    0.081273 0.423549 0.668449 -0.304170
I32   I     I_    0.923550 0.418726 0.831551 -0.304169
N1    N     N_R   0.500000 0.000000 0.406074 -0.347605
N2    N     N_R   0.500000 1.000000 0.593925 -0.347601
N3    N     N_R   0.000000 0.500000 0.406075 -0.347604
N4    N     N_R   1.000000 0.500000 0.593925 -0.347603
N5    N     N_R   0.000000 0.500000 0.906075 -0.347603
N6    N     N_R   0.000000 0.500000 0.093925 -0.347603
N7    N     N_R   0.500000 0.000000 0.906075 -0.347603
N8    N     N_R   0.500000 0.000000 0.093925 -0.347603
O1    O     O_3   0.500000 0.000000 0.250000 -0.484184
O2    O     O_R   0.460640 0.000000 0.799590 -0.616658
O3    O     O_R   0.000000 0.539360 0.200410 -0.616659
O4    O     O_R   0.000000 0.460640 0.799590 -0.616658
O5    O     O_R   0.960640 0.500000 0.700410 -0.616659
O6    O     O_R   0.039360 0.500000 0.299590 -0.616659
O7    O     O_R   0.500000 0.960640 0.700410 -0.616658
O8    O     O_R   0.500000 0.039360 0.299590 -0.616659
O9    O     O_R   0.039360 0.500000 0.700410 -0.616659
O10   O     O_R   0.960640 0.500000 0.299590 -0.616658
O11   O     O_R   0.500000 0.039360 0.700410 -0.616659
O12   O     O_3   0.500000 0.000000 0.750000 -0.484185
O13   O     O_R   0.500000 0.960640 0.299590 -0.616659
O14   O     O_R   0.594320 0.944960 0.237250 -0.632421
O15   O     O_R   0.405680 0.055040 0.762750 -0.642581
O16   O     O_R   0.055040 0.594320 0.237250 -0.642581
O17   O     O_R   0.944960 0.405680 0.762750 -0.632421
O18   O     O_R   0.405680 0.055040 0.237250 -0.632421
O19   O     O_R   0.594320 0.944960 0.762750 -0.642581
O20   O     O_R   0.944960 0.405680 0.237250 -0.642581
O21   O     O_R   0.055040 0.594320 0.762750 -0.632421
O22   O     O_R   0.594320 0.055040 0.762750 -0.632421
O23   O     O_3   1.000000 0.500000 0.250000 -0.484185
O24   O     O_R   0.405680 0.944960 0.237250 -0.642581
O25   O     O_R   0.055040 0.405680 0.762750 -0.642581
O26   O     O_R   0.944960 0.594320 0.237250 -0.632421
O27   O     O_R   0.405680 0.944960 0.762750 -0.632421
O28   O     O_R   0.594320 0.055040 0.237250 -0.642581
O29   O     O_R   0.944960 0.594320 0.762750 -0.642581
O30   O     O_R   0.055040 0.405680 0.237250 -0.632421
O31   O     O_R   0.094320 0.444960 0.737250 -0.632421
O32   O     O_R   0.905680 0.555040 0.262750 -0.642580
O33   O     O_R   0.555040 0.094320 0.737250 -0.642580
O34   O     O_3   0.000000 0.500000 0.750000 -0.484185
O35   O     O_R   0.444960 0.905680 0.262750 -0.632421
O36   O     O_R   0.905680 0.555040 0.737250 -0.632421
O37   O     O_R   0.094320 0.444960 0.262750 -0.642581
O38   O     O_R   0.444960 0.905680 0.737250 -0.642580
O39   O     O_R   0.555040 0.094320 0.262750 -0.632421
O40   O     O_R   0.094320 0.555040 0.262750 -0.632421
O41   O     O_R   0.905680 0.444960 0.737250 -0.642581
O42   O     O_R   0.555040 0.905680 0.262750 -0.642581
O43   O     O_R   0.444960 0.094320 0.737250 -0.632420
O44   O     O_R   0.905680 0.444960 0.262750 -0.632421
O45   O     O_R   0.460640 0.000000 0.200410 -0.616659
O46   O     O_R   0.094320 0.555040 0.737250 -0.642581
O47   O     O_R   0.444960 0.094320 0.262750 -0.642581
O48   O     O_R   0.555040 0.905680 0.737250 -0.632420
O49   O     O_2   0.418780 0.017098 0.405317 -0.506049
O50   O     O_2   0.581227 0.017064 0.594682 -0.506053
O51   O     O_2   0.017080 0.418776 0.405318 -0.506052
O52   O     O_2   0.017082 0.581223 0.594682 -0.506050
O53   O     O_2   0.581220 0.982902 0.405317 -0.506050
O54   O     O_2   0.418773 0.982935 0.594682 -0.506054
O55   O     O_2   0.982920 0.581224 0.405318 -0.506051
O56   O     O_R   0.539360 0.000000 0.799590 -0.616659
O57   O     O_2   0.982917 0.418777 0.594682 -0.506050
O58   O     O_2   0.918777 0.517081 0.905318 -0.506051
O59   O     O_2   0.081224 0.517080 0.094682 -0.506051
O60   O     O_2   0.517081 0.918776 0.905318 -0.506051
O61   O     O_2   0.517082 0.081223 0.094682 -0.506051
O62   O     O_2   0.081223 0.482918 0.905318 -0.506051
O63   O     O_2   0.918776 0.482920 0.094682 -0.506052
O64   O     O_2   0.482919 0.081223 0.905318 -0.506051
O65   O     O_2   0.482918 0.918777 0.094682 -0.506052
O66   O     O_R   0.000000 0.460640 0.200410 -0.616658
O67   O     O_R   0.000000 0.539360 0.799590 -0.616659
O68   O     O_R   0.539360 0.000000 0.200410 -0.616659
Zn1   Zn    Zn3+2 0.500000 0.944100 0.269050 1.010897
Zn2   Zn    Zn3+2 0.000000 0.555900 0.230950 1.010896
Zn3   Zn    Zn3+2 0.555900 0.000000 0.769050 1.010895
Zn4   Zn    Zn3+2 0.444100 0.000000 0.230950 1.010897
Zn5   Zn    Zn3+2 0.000000 0.555900 0.769050 1.010896
Zn6   Zn    Zn3+2 0.000000 0.444100 0.230950 1.010896
Zn7   Zn    Zn3+2 0.444100 0.000000 0.769050 1.010895
Zn8   Zn    Zn3+2 0.555900 0.000000 0.230950 1.010897
Zn9   Zn    Zn3+2 0.500000 0.055900 0.730950 1.010895
Zn10  Zn    Zn3+2 0.055900 0.500000 0.269050 1.010896
Zn11  Zn    Zn3+2 0.944100 0.500000 0.730950 1.010896
Zn12  Zn    Zn3+2 0.500000 0.055900 0.269050 1.010897
Zn13  Zn    Zn3+2 0.500000 0.944100 0.730950 1.010895
Zn14  Zn    Zn3+2 0.944100 0.500000 0.269050 1.010896
Zn15  Zn    Zn3+2 0.055900 0.500000 0.730950 1.010896
Zn16  Zn    Zn3+2 0.000000 0.444100 0.769050 1.010896

loop_
_geom_bond_atom_site_label_1
_geom_bond_atom_site_label_2
_ccdc_geom_bond_type
C106  H54   S    
C98   H47   S    
C47   C136  A    
C132  C150  S    
C108  C120  A    
C78   C115  A    
C133  C151  S    
C205  N6    S    
O3    Zn2   S    
C103  C123  A    
C21   C274  A    
C110  C118  A    
C30   O18   A    
C180  O61   S    
C22   C275  A    
C211  C220  A    
C79   C194  A    
O34   Zn16  S    
C34   O33   A    
C63   C98   A    
C147  C164  S    
O23   Zn10  S    
C135  C199  A    
C157  C260  A    
C172  O53   S    
C25   H96   S    
C81   C117  A    
C199  C205  A    
O56   Zn3   S    
C193  C201  A    
C83   C119  A    
C57   C254  A    
C172  C221  A    
C187  H69   S    
C181  O62   S    
C22   C234  A    
C42   O37   A    
C261  C278  A    
C80   C116  A    
C21   H93   S    
C85   C121  A    
C68   C193  A    
C40   O28   A    
C54   C143  A    
O34   Zn11  S    
C182  N6    A    
C171  C220  A    
C51   C140  A    
C173  O54   S    
C193  H65   S    
C216  C233  A    
C220  C238  A    
C173  C222  A    
O12   Zn3   S    
C112  O56   A    
O38   Zn13  S    
C20   C241  A    
C168  N1    S    
C245  I20   S    
C99   C129  A    
C240  I15   S    
C157  I4    S    
C237  C254  S    
C53   H2    S    
O24   Zn4   S    
C57   C192  A    
C17   C269  A    
C87   H36   S    
C75   C136  A    
C73   C108  A    
C69   C142  A    
C59   H7    S    
C60   H8    S    
C89   H38   S    
C178  N7    A    
O1    Zn4   S    
C204  C257  S    
C77   H26   S    
O16   Zn2   S    
C18   H90   S    
C170  N3    A    
C113  I8    S    
O33   Zn9   S    
C28   O40   A    
C91   C127  A    
C185  C270  A    
C212  C225  A    
C178  O60   S    
C26   O42   A    
C13   I30   S    
C200  H73   S    
C197  H79   S    
C158  C159  T    
C103  H51   S    
O6    Zn10  S    
C185  H66   S    
C82   C118  A    
O4    Zn16  S    
C206  N7    S    
C7    C210  A    
C1    O45   A    
C196  H77   S    
O12   Zn7   S    
C208  C217  A    
C247  I22   S    
C213  C278  A    
C3    C268  A    
C58   C147  A    
O10   Zn14  S    
C45   C81   A    
C248  O7    A    
C65   C100  A    
C70   C105  A    
C36   O24   A    
O11   Zn9   S    
C38   O32   A    
O31   Zn15  S    
C2    I29   S    
C108  H57   S    
C261  C266  A    
C151  C165  T    
C33   O21   A    
C174  N3    A    
C15   H86   S    
O1    Zn8   S    
C195  H76   S    
C223  C241  A    
C172  N1    A    
C74   C134  A    
C35   C252  A    
C196  C206  A    
C71   H19   S    
C33   O46   A    
O68   Zn8   S    
C29   O41   A    
C175  N4    A    
C210  C219  A    
C109  H58   S    
C60   C95   A    
O21   Zn5   S    
O22   Zn3   S    
O17   Zn16  S    
C179  C191  A    
C242  I17   S    
C176  O58   S    
C7    C277  A    
C143  C161  S    
C93   H41   S    
C31   O19   A    
C32   O44   A    
C13   C187  A    
C270  I28   S    
C19   H91   S    
C46   C191  A    
C244  I19   S    
C252  C270  A    
C273  C276  A    
C61   C96   A    
C67   C103  A    
C86   H35   S    
C248  O11   A    
C179  C186  A    
C104  H52   S    
C94   C130  A    
C68   I27   S    
C221  C239  A    
C235  I10   S    
C100  C126  A    
C184  O65   S    
C49   C84   A    
C61   C148  A    
C167  N1    A    
C218  C235  A    
C11   H83   S    
C265  C278  A    
C262  C279  A    
C204  O66   A    
C78   H27   S    
C150  C166  T    
C17   H88   S    
C267  C280  A    
O35   Zn1   S    
C53   C142  A    
C56   C145  A    
C112  C258  S    
C43   H1    S    
C259  O13   A    
C64   C99   A    
C92   H40   S    
C12   C244  A    
C188  H70   S    
C67   H16   S    
O30   Zn6   S    
C26   C121  S    
C6    C276  A    
C181  C230  A    
C46   C253  A    
C213  C231  A    
C251  I26   S    
C1    C260  S    
O12   Zn9   S    
C36   O35   A    
C31   O48   A    
C202  H74   S    
C146  C200  A    
C186  H68   S    
C259  O8    A    
C34   O22   A    
C70   H18   S    
O67   Zn5   S    
C180  C229  A    
O5    Zn11  S    
C90   C195  A    
C156  C160  T    
C237  O10   A    
C227  C244  A    
C23   C238  A    
C248  C253  S    
C6    C211  A    
C145  C163  S    
C94   H42   S    
C4    C209  A    
C17   C240  A    
C31   C118  S    
O18   Zn4   S    
C88   C125  A    
C62   C97   A    
C176  N5    A    
C181  N5    A    
C210  C223  A    
C15   C246  A    
C48   H45   S    
C9    C262  A    
C106  C122  A    
C216  C229  A    
C16   C268  A    
C52   H89   S    
C182  O63   S    
O13   Zn1   S    
O1    Zn1   S    
O2    Zn7   S    
C201  N4    S    
C226  C255  S    
O23   Zn14  S    
O12   Zn13  S    
C41   O36   A    
O15   Zn7   S    
C202  C207  A    
C73   H21   S    
C146  C258  A    
C32   C119  S    
O19   Zn3   S    
C231  C249  A    
C174  O55   S    
C58   H6    S    
C4    C269  A    
C72   H20   S    
C75   C110  A    
C199  H72   S    
C154  C162  T    
C174  C223  A    
C183  O64   S    
O14   Zn8   S    
C114  C116  A    
C179  N2    S    
C71   C140  A    
O26   Zn2   S    
C266  C279  A    
C52   C141  A    
C48   C83   A    
C39   O27   A    
C124  I32   S    
C87   C123  A    
C76   C132  A    
C68   C255  A    
C264  C267  A    
C13   C254  A    
C169  C218  A    
C42   C129  S    
C45   H23   S    
O27   Zn7   S    
C57   I23   S    
O20   Zn6   S    
C190  N3    S    
C33   C120  S    
C3    C264  A    
C20   H92   S    
C111  H60   S    
O45   Zn4   S    
C8    C261  A    
C63   C145  A    
C230  C247  A    
C138  C155  S    
C271  C274  A    
C105  H53   S    
C148  C165  S    
C24   I31   S    
C42   O30   A    
C46   I12   S    
C107  H55   S    
C214  C232  A    
O39   Zn12  S    
C203  N5    S    
C262  C265  A    
C215  O4    A    
C109  C117  A    
O1    Zn12  S    
C16   C245  A    
C155  C161  T    
C43   C78   A    
C8    H80   S    
C249  I24   S    
C62   H10   S    
C37   O31   A    
C58   C93   A    
C170  C219  A    
C15   C267  A    
C85   H33   S    
C65   C143  A    
C66   C144  A    
C189  H62   S    
C169  O50   S    
C114  H61   S    
C124  C198  A    
C96   H44   S    
C10   C263  A    
C20   C273  A    
C187  C190  A    
C55   C91   A    
C50   C85   A    
C91   H39   S    
C65   H14   S    
C104  C125  A    
C25   C236  A    
C238  I13   S    
C86   C122  A    
C79   C256  A    
C64   H13   S    
C55   C144  A    
C59   C94   A    
C112  O2    A    
C110  H59   S    
C243  I18   S    
C81   H29   S    
C98   C128  A    
C83   H31   S    
C70   C139  A    
C35   C189  A    
C39   C126  S    
C69   H17   S    
C47   H34   S    
C95   C131  A    
C93   C129  A    
C80   H28   S    
C51   C86   A    
C107  C119  A    
C27   C122  S    
O25   Zn16  S    
C89   C126  A    
C263  C268  A    
C177  N6    A    
C135  C257  A    
C11   C250  A    
O34   Zn15  S    
C170  O51   S    
C171  N4    A    
C44   C80   A    
O48   Zn13  S    
C169  N2    A    
C50   C139  A    
C40   C127  S    
C168  C189  A    
C16   H87   S    
C14   H85   S    
C213  C227  A    
C28   C115  S    
C177  C227  A    
C23   C276  A    
C71   C106  A    
C146  I3    S    
C84   C120  A    
C134  C152  S    
C101  C258  A    
C184  N8    A    
C51   H78   S    
O23   Zn2   S    
C97   C131  A    
O47   Zn12  S    
O42   Zn1   S    
C27   O43   A    
C136  C153  S    
C153  C163  T    
C55   H4    S    
C197  C207  A    
C226  O5    A    
C237  O6    A    
C9    H81   S    
C77   C114  A    
C2    C253  A    
C233  C251  A    
C96   C130  A    
C76   H25   S    
C209  C222  A    
C190  C192  A    
C173  N2    A    
C37   O25   A    
O41   Zn11  S    
C217  C234  A    
C180  N8    A    
O44   Zn14  S    
C19   C272  A    
C225  C243  A    
C100  H49   S    
O66   Zn6   S    
C24   C188  A    
C4    C274  A    
C29   O17   A    
C5    C208  A    
C175  O57   S    
C224  C242  A    
C21   C235  A    
C171  O52   S    
C66   H15   S    
C211  C224  A    
C222  C240  A    
C137  C154  S    
C74   H22   S    
C9    C247  A    
O43   Zn9   S    
O23   Zn6   S    
C14   C243  A    
C212  C279  A    
C182  C231  A    
C167  O49   S    
C198  C203  A    
C12   H84   S    
C236  I11   S    
C191  H63   S    
C75   H24   S    
C90   C257  A    
C97   H46   S    
C263  C280  A    
C252  C259  S    
O36   Zn11  S    
C99   H48   S    
C272  C277  A    
C62   C149  A    
C66   C102  A    
O46   Zn15  S    
C124  C256  A    
C74   C109  A    
C183  N7    A    
C198  H71   S    
C90   I6    S    
O8    Zn12  S    
C3    C214  A    
C176  C225  A    
C45   C134  A    
C48   C137  A    
C209  C218  A    
C1    O68   A    
C43   C132  A    
C39   O38   A    
C76   C111  A    
C10   H82   S    
C73   C138  A    
C188  C201  A    
C207  N8    S    
C10   C251  A    
O37   Zn10  S    
C47   C82   A    
C22   H94   S    
C12   C265  A    
C19   C242  A    
C192  H64   S    
C214  C228  A    
O7    Zn13  S    
C175  C224  A    
C56   H5    S    
C40   O39   A    
C11   C264  A    
C178  C228  A    
C49   H56   S    
C41   O29   A    
C140  C158  S    
C59   C148  A    
C37   C123  S    
C49   C138  A    
C63   H11   S    
C216  C280  A    
C41   C128  S    
C77   C133  A    
O9    Zn15  S    
C30   O47   A    
C92   C128  A    
C18   C271  A    
C101  I7    S    
C141  C159  S    
C215  O67   A    
C8    C249  A    
C5    C271  A    
O32   Zn14  S    
C269  C275  A    
C6    C272  A    
C50   H67   S    
C54   C89   A    
C25   C277  A    
C102  C127  A    
C36   C131  S    
C32   O20   A    
C95   H43   S    
C228  C245  A    
C208  C221  A    
C24   C255  A    
C2    C186  A    
C239  I14   S    
C212  C230  A    
C82   H30   S    
C195  C205  A    
C72   C107  A    
C56   C92   A    
C102  H50   S    
C105  C121  A    
C34   C130  S    
C152  C164  T    
C5    C275  A    
C229  C246  A    
C72   C137  A    
C113  C260  A    
C29   C116  S    
C64   C147  A    
C23   H95   S    
C88   H37   S    
C232  C250  A    
C26   O14   A    
O34   Zn5   S    
C84   H32   S    
C38   C125  S    
O29   Zn5   S    
C18   C239  A    
C69   C104  A    
C44   C133  A    
C204  O3    A    
C200  C206  A    
C168  C185  A    
C44   H12   S    
C144  C162  S    
C219  C236  A    
C52   C87   A    
C149  C166  S    
C142  C160  S    
C7    C273  A    
O28   Zn8   S    
C194  H75   S    
C234  I9    S    
C101  C196  A    
C30   C117  S    
C246  I21   S    
C79   I5    S    
C139  C156  S    
C177  O59   S    
C61   H9    S    
C194  C203  A    
C215  C256  S    
C167  C217  A    
C53   C88   A    
C60   C149  A    
O40   Zn10  S    
C184  C233  A    
C135  I2    S    
C35   I1    S    
C226  O9    A    
C250  I25   S    
C27   O15   A    
C54   H3    S    
C113  C197  A    
C28   O16   A    
C111  C115  A    
C157  C202  A    
C38   O26   A    
C183  C232  A    
C14   C266  A    
C241  I16   S    
C67   C141  A    
