data_mof_unit_50801.cif
_audit_creation_date              2012-12-11T15:09:38-0500
_audit_creation_method            fapswitch 2.2
_symmetry_space_group_name_H-M    P1
_symmetry_Int_Tables_number       1
_space_group_crystal_system       triclinic
_cell_length_a                    20.903944
_cell_length_b                    7.12841
_cell_length_c                    14.026519
_cell_angle_alpha                 90.031573
_cell_angle_beta                  98.043967
_cell_angle_gamma                 89.956603
_cell_volume                      2069.55249894

loop_
_atom_site_label
_atom_site_type_symbol
_atom_type_description
_atom_site_fract_x
_atom_site_fract_y
_atom_site_fract_z
_atom_type_partial_charge
O1    O     O_R   0.447130 0.507140 0.597350 -0.536927
O2    O     O_R   0.552870 0.007140 0.402650 -0.536974
O3    O     O_R   0.578910 0.181280 0.586990 -0.537652
O4    O     O_R   0.421090 0.681280 0.413010 -0.537615
C1    C     C_R   0.604471 0.344469 0.607434 0.725584
C2    C     C_R   0.395530 0.844517 0.392562 0.725521
O5    O     O_R   0.449230 0.177860 0.608640 -0.539181
O6    O     O_R   0.550770 0.677860 0.391360 -0.539393
O7    O     O_R   0.422260 0.000770 0.424450 -0.536506
O8    O     O_R   0.577740 0.500770 0.575550 -0.536294
C3    C     C_R   0.433024 0.346426 0.634881 0.712429
C4    C     C_R   0.566987 0.846235 0.365119 0.712224
O9    O     O_3   0.491310 0.336980 0.439550 -0.373898
O10   O     O_3   0.508690 0.836980 0.560450 -0.373586
V1    V     V_3+5 0.501610 0.064760 0.511210 1.454790
V2    V     V_3+5 0.498390 0.564760 0.488790 1.454749
C5    C     C_R   0.617271 0.854577 0.118745 0.416156
C6    C     C_R   0.382721 0.368180 0.881061 0.416394
H1    H     H_    0.526902 0.847004 0.174831 0.144357
H2    H     H_    0.473129 0.360758 0.825054 0.143488
C7    C     C_R   0.607223 0.854210 0.288276 -0.108564
C8    C     C_R   0.392759 0.355367 0.711664 -0.108386
C9    C     C_R   0.920072 0.835591 0.304773 -0.170483
C10   C     C_R   0.080035 0.327321 0.695726 -0.170281
C11   C     C_R   0.882584 0.818873 0.378467 -0.124606
C12   C     C_R   0.117587 0.307272 0.622294 -0.124679
C13   C     C_R   0.815450 0.824909 0.358424 -0.139338
C14   C     C_R   0.184677 0.316539 0.642150 -0.139201
C15   C     C_R   0.783723 0.850289 0.262966 0.098322
C16   C     C_R   0.216287 0.348820 0.737105 0.098481
C17   C     C_R   0.822514 0.866729 0.187970 0.029247
C18   C     C_R   0.177415 0.369386 0.811786 0.029349
C19   C     C_R   0.714996 0.856046 0.239660 -0.026032
C20   C     C_R   0.284986 0.357495 0.760281 -0.025952
C21   C     C_R   0.685906 0.866253 0.141172 -0.013404
C22   C     C_R   0.314018 0.375830 0.858487 -0.013028
C23   C     C_R   0.725563 0.893735 0.068539 0.346133
C24   C     C_R   0.274205 0.407408 0.930571 0.346442
C25   C     C_R   0.792863 0.891711 0.092676 -0.284502
C26   C     C_R   0.206929 0.401660 0.906545 -0.284951
C27   C     C_R   0.674108 0.853810 0.311774 -0.198733
C28   C     C_R   0.325895 0.350567 0.688258 -0.198621
C29   C     C_R   0.579029 0.853421 0.192504 -0.176896
C30   C     C_R   0.420962 0.363205 0.807336 -0.175912
C31   C     C_R   0.890748 0.858876 0.209848 -0.051086
C32   C     C_R   0.109236 0.357821 0.790154 -0.051360
H3    H     H_    0.692444 0.854647 0.387446 0.106730
H4    H     H_    0.307587 0.345096 0.612638 0.106579
H5    H     H_    0.972223 0.828666 0.321648 0.101275
H6    H     H_    0.027938 0.317175 0.679081 0.101408
H7    H     H_    0.790128 0.805557 0.419398 0.105430
H8    H     H_    0.210062 0.294167 0.581476 0.105482
H9    H     H_    0.905703 0.799056 0.451800 0.119435
H10   H     H_    0.094567 0.282013 0.549368 0.119461
H11   H     H_    0.822093 0.910894 0.035526 0.116407
H12   H     H_    0.177599 0.423949 0.963328 0.117040
C33   C     C_1   0.166667 0.857007 0.168135 -0.194193
C34   C     C_1   0.833333 0.357140 0.831852 -0.193694
C35   C     C_1   0.219083 0.854735 0.219191 0.007816
C36   C     C_1   0.780922 0.354817 0.780795 0.008291
C37   C     C_1   0.280825 0.853374 0.279236 0.018016
C38   C     C_1   0.719179 0.353336 0.720752 0.017723
C39   C     C_1   0.333163 0.851136 0.330517 -0.180487
C40   C     C_1   0.666839 0.351028 0.669476 -0.180402
O11   O     O_R   0.922300 0.202240 0.924350 -0.534529
O12   O     O_R   0.077700 0.702240 0.075650 -0.534828
O13   O     O_R   0.050780 0.535130 0.891350 -0.541000
O14   O     O_R   0.949220 0.035130 0.108650 -0.540806
C41   C     C_R   0.067633 0.367896 0.865638 0.686604
C42   C     C_R   0.932375 0.868080 0.134379 0.686613
O15   O     O_R   0.921100 0.531560 0.912990 -0.537497
O16   O     O_R   0.078900 0.031560 0.087010 -0.537162
O17   O     O_R   0.947120 0.708470 0.097370 -0.536611
O18   O     O_R   0.052880 0.208470 0.902630 -0.536494
C43   C     C_R   0.895850 0.363577 0.893514 0.715885
C44   C     C_R   0.104152 0.863525 0.106481 0.715950
O19   O     O_3   0.008710 0.375800 0.060400 -0.373984
O20   O     O_3   0.991290 0.875800 0.939600 -0.374096
V3    V     V_3+5 0.998380 0.648080 0.988790 1.427538
V4    V     V_3+5 0.001620 0.148080 0.011210 1.428581
O21   O     O_3   0.698110 0.931758 0.974990 -0.630804
H13   H     H_    0.732502 0.949499 0.933771 0.292770
O22   O     O_3   0.301429 0.452975 0.023307 -0.630854
H14   H     H_    0.266937 0.472847 0.064160 0.292823
O23   O     O_3   0.585741 0.837840 0.026185 -0.605427
H15   H     H_    0.608810 0.740287 0.993827 0.325771
O24   O     O_3   0.414367 0.359659 0.973858 -0.605909
H16   H     H_    0.391986 0.263694 0.008181 0.325527

loop_
_geom_bond_atom_site_label_1
_geom_bond_atom_site_label_2
_ccdc_geom_bond_type
O14   V4    S    
O15   C43   A    
O24   H16   S    
C9    C31   A    
C24   O22   S    
C13   C15   A    
C20   C28   A    
O16   C44   A    
O2    C4    A    
C2    O7    A    
O15   V3    S    
O21   H13   S    
O23   H15   S    
O5    C3    A    
O12   V3    S    
C5    O23   S    
C33   C44   S    
C21   C23   A    
C11   H9    S    
O20   V4    S    
C9    H5    S    
C34   C36   T    
C15   C19   A    
C36   C38   S    
C37   C39   T    
C32   C41   S    
C38   C40   T    
C7    C29   A    
C8    C30   A    
H1    C29   S    
C26   H12   S    
O1    C3    A    
C16   C18   A    
O5    V1    S    
O6    V2    S    
O11   V4    S    
O18   V4    S    
C10   H6    S    
C23   O21   S    
C12   H10   S    
H2    C30   S    
C13   H7    S    
C34   C43   S    
O19   V3    S    
C27   H3    S    
C23   C25   A    
C25   H11   S    
C35   C37   S    
C16   C20   A    
O13   V3    S    
O4    C2    A    
O20   V3    S    
C4    C7    S    
C1    C40   S    
O13   C41   A    
C2    C39   S    
O4    V2    S    
C5    C29   A    
C6    C30   A    
O22   H14   S    
O6    C4    A    
O12   C44   A    
C42   O17   A    
O17   V3    S    
C41   O18   A    
O1    V2    S    
C28   H4    S    
O2    V1    S    
C7    C27   A    
O14   C42   A    
O3    V1    S    
O19   V4    S    
C31   C42   S    
C18   C32   A    
C10   C12   A    
O3    C1    A    
C11   C13   A    
C3    C8    S    
C12   C14   A    
C6    O24   S    
O11   C43   A    
C19   C27   A    
C22   C24   A    
O7    V1    S    
C10   C32   A    
C1    O8    A    
C15   C17   A    
O8    V2    S    
C24   C26   A    
C14   H8    S    
C8    C28   A    
C14   C16   A    
C19   C21   A    
C17   C25   A    
C20   C22   A    
C18   C26   A    
C33   C35   T    
C9    C11   A    
O16   V4    S    
C17   C31   A    
O9    V2    S    
O10   V1    S    
C5    C21   A    
C6    C22   A    
