data_mof_unit_54860.cif
_audit_creation_date              2012-12-11T17:45:22-0500
_audit_creation_method            fapswitch 2.2
_symmetry_space_group_name_H-M    P1
_symmetry_Int_Tables_number       1
_space_group_crystal_system       triclinic
_cell_length_a                    14.997285
_cell_length_b                    14.944215
_cell_length_c                    15.081237
_cell_angle_alpha                 110.134811
_cell_angle_beta                  109.384233
_cell_angle_gamma                 109.059623
_cell_volume                      2596.46855724

loop_
_atom_site_label
_atom_site_type_symbol
_atom_type_description
_atom_site_fract_x
_atom_site_fract_y
_atom_site_fract_z
_atom_type_partial_charge
C1    C     C_R   0.976811 0.252535 0.065400 -0.100185
C2    C     C_R   0.324589 0.785269 0.327539 0.047923
C3    C     C_R   0.298068 0.500629 0.927783 0.063524
C4    C     C_R   0.935434 0.500070 0.300876 -0.102924
C5    C     C_R   0.686308 0.409142 0.932239 0.726987
C6    C     C_R   0.019749 0.592314 0.782228 -0.101489
C7    C     C_R   0.793546 0.195531 0.701562 -0.105269
C8    C     C_R   0.999279 0.801631 0.095272 -0.137976
C9    C     C_R   0.090773 0.805137 0.006016 -0.140397
C10   C     C_R   0.707332 0.192782 0.795586 -0.006862
C11   C     C_R   0.777579 0.592383 0.023676 -0.085655
C12   C     C_R   0.315105 0.757220 0.224999 -0.109758
C13   C     C_R   0.939308 0.409402 0.685357 -0.138346
C14   C     C_R   0.674715 0.500981 0.947339 -0.161837
C15   C     C_R   0.954776 0.503571 0.678568 0.053002
C16   C     C_R   0.705953 0.127677 0.703233 0.017114
C17   C     C_R   0.057864 0.867143 0.067183 0.078354
C18   C     C_R   0.624236 0.208321 0.086875 0.770852
C19   C     C_R   0.688014 0.307687 0.186683 -0.341513
C20   C     C_R   0.751592 0.311374 0.281997 0.043216
C21   C     C_R   0.741404 0.212383 0.277056 -0.162255
C22   C     C_R   0.673250 0.112927 0.178277 -0.127957
C23   C     C_R   0.207719 0.409271 0.901189 -0.112979
C24   C     C_R   0.616846 0.111293 0.082800 -0.272006
C25   C     C_R   0.844000 0.425448 0.482460 -0.252892
C26   C     C_R   0.934402 0.513034 0.582383 0.071706
C27   C     C_R   0.012265 0.602075 0.587075 -0.010758
C28   C     C_R   0.998693 0.599140 0.491752 -0.177157
C29   C     C_R   0.916776 0.505654 0.390827 0.115105
C30   C     C_R   0.835750 0.417498 0.384805 0.087560
C31   C     C_R   0.136627 0.795027 0.745592 -0.200366
C32   C     C_R   0.235280 0.874362 0.842352 -0.145650
C33   C     C_R   0.317726 0.849786 0.878139 -0.060586
C34   C     C_R   0.991591 0.590539 0.296092 0.687484
C35   C     C_R   0.302593 0.746332 0.816554 -0.107907
C36   C     C_R   0.203721 0.665998 0.720477 -0.155875
C37   C     C_R   0.119395 0.689383 0.685426 0.116886
C38   C     C_R   0.238543 0.023940 0.505928 -0.268630
C39   C     C_R   0.318940 0.999187 0.499498 -0.198724
C40   C     C_R   0.339633 0.929246 0.535429 0.127884
C41   C     C_R   0.281208 0.886882 0.580783 -0.265803
C42   C     C_R   0.198745 0.909671 0.584146 -0.203464
C43   C     C_R   0.177181 0.977611 0.546422 0.863444
C44   C     C_R   0.526333 0.974900 0.627210 -0.226951
C45   C     C_R   0.297814 0.591455 0.993122 -0.144211
C46   C     C_R   0.622655 0.010974 0.623238 0.097895
C47   C     C_R   0.623248 0.946454 0.529338 0.185131
C48   C     C_R   0.523629 0.862374 0.435998 -0.135134
C49   C     C_R   0.425566 0.849659 0.433208 0.014367
C50   C     C_R   0.427841 0.907496 0.531363 0.028018
C51   C     C_R   0.737247 0.012669 0.452868 0.809240
C52   C     C_R   0.840707 0.065014 0.466233 -0.322917
C53   C     C_R   0.930277 0.074637 0.545766 -0.236640
C54   C     C_R   0.916345 0.028852 0.610117 -0.187161
C55   C     C_R   0.813597 0.978437 0.599149 0.709193
C56   C     C_R   0.910963 0.408830 0.210992 -0.260164
C57   C     C_R   0.723935 0.973260 0.522741 -0.337174
C58   C     C_3   0.473527 0.413042 0.817864 -0.590866
C59   C     C_3   0.367495 0.407256 0.814237 0.610146
C60   C     C_3   0.552816 0.479930 0.020660 0.647626
C61   C     C_3   0.581792 0.614240 0.953516 -0.294572
C62   C     C_3   0.572817 0.502035 0.933773 0.110807
C63   C     C_3   0.395468 0.501317 0.923854 0.073926
C64   C     C_3   0.454479 0.488548 0.020249 -0.475500
C65   C     C_3   0.474537 0.611357 0.940298 -0.449206
C66   C     C_R   0.236440 0.118679 0.851404 -0.092991
C67   C     C_R   0.220457 0.748171 0.312995 -0.119469
C68   C     C_R   0.173912 0.101840 0.901097 -0.250163
C69   C     C_R   0.223119 0.161098 0.015345 0.114452
C70   C     C_R   0.335523 0.233439 0.079129 -0.175656
C71   C     C_R   0.398254 0.246246 0.029359 -0.151837
C72   C     C_R   0.348902 0.189649 0.915500 0.063666
C73   C     C_R   0.163463 0.039353 0.079480 -0.233650
C74   C     C_R   0.090505 0.983754 0.105111 0.051338
C75   C     C_R   0.042589 0.038203 0.152951 0.108040
C76   C     C_R   0.060980 0.138742 0.161256 -0.238020
C77   C     C_R   0.102258 0.172213 0.100581 0.052101
C78   C     C_R   0.071525 0.256802 0.977881 -0.115575
C79   C     C_R   0.163437 0.127568 0.068145 0.045332
C80   C     C_R   0.846505 0.944328 0.096319 -0.393957
C81   C     C_R   0.762817 0.899995 0.116144 0.568990
C82   C     C_R   0.786852 0.894151 0.211188 0.647766
C83   C     C_R   0.895202 0.937099 0.288381 -0.307112
C84   C     C_R   0.979644 0.988622 0.272283 -0.276965
C85   C     C_R   0.955296 0.987158 0.173500 0.026795
C86   C     C_R   0.057023 0.229850 0.053574 0.063230
H1    H     H_    0.942315 0.239941 0.115011 0.095974
H2    H     H_    0.040252 0.676073 0.807723 0.124825
H3    H     H_    0.825644 0.174755 0.648968 0.085304
H4    H     H_    0.978662 0.825090 0.157530 0.141600
H5    H     H_    0.149846 0.833983 0.982414 0.105004
H6    H     H_    0.663867 0.164873 0.833658 0.172552
H7    H     H_    0.799408 0.677743 0.059264 0.124767
H8    H     H_    0.892946 0.325110 0.619143 0.109969
H9    H     H_    0.568970 0.035180 0.005346 0.169545
H10   H     H_    0.694460 0.382638 0.188291 0.189299
H11   H     H_    0.666915 0.037730 0.175463 0.216149
H12   H     H_    0.784374 0.358722 0.480596 0.146039
H13   H     H_    0.063920 0.664677 0.498151 0.162866
H14   H     H_    0.072275 0.814230 0.719880 0.142442
H15   H     H_    0.247411 0.954174 0.891115 0.141015
H16   H     H_    0.392919 0.910609 0.954119 0.121938
H17   H     H_    0.367189 0.728376 0.844131 0.128514
H18   H     H_    0.177385 0.324210 0.845410 0.179208
H19   H     H_    0.224397 0.079355 0.479925 0.139225
H20   H     H_    0.365714 0.034985 0.467311 0.156650
H21   H     H_    0.151128 0.874732 0.615619 0.149869
H22   H     H_    0.523248 0.814899 0.362906 0.160677
H23   H     H_    0.852030 0.100356 0.416449 0.158266
H24   H     H_    0.010473 0.117780 0.557314 0.236074
H25   H     H_    0.985922 0.035856 0.671073 0.178788
H26   H     H_    0.465133 0.330605 0.793434 0.267909
H27   H     H_    0.484546 0.433609 0.756622 0.162433
H28   H     H_    0.537817 0.396165 0.001374 0.078246
H29   H     H_    0.398299 0.414874 0.015489 0.168090
H30   H     H_    0.647081 0.679237 0.037955 0.233414
H31   H     H_    0.602336 0.635724 0.896512 0.179751
H32   H     H_    0.494992 0.683604 0.014265 0.253384
H33   H     H_    0.397460 0.200522 0.876714 0.200997
H34   H     H_    0.087772 0.041759 0.851198 0.157339
H35   H     H_    0.375150 0.275774 0.167351 0.135439
H36   H     H_    0.485095 0.300964 0.079973 0.157276
H37   H     H_    0.211277 0.007029 0.054652 0.128852
H38   H     H_    0.025128 0.179354 0.199432 0.131441
H39   H     H_    0.863560 0.323691 0.184718 0.154352
H40   H     H_    0.826944 0.946623 0.021503 0.200743
H41   H     H_    0.913888 0.930725 0.360809 0.250180
H42   H     H_    0.063203 0.023891 0.333355 0.177134
H43   H     H_    0.128984 0.255364 0.951169 0.123973
N1    N     N_R   0.947080 0.293830 0.002870 -0.044035
N2    N     N_R   0.054040 0.556820 0.847890 -0.045516
N3    N     N_R   0.848290 0.293830 0.791110 -0.055328
N4    N     N_R   0.995680 0.706170 0.053910 -0.047482
N5    N     N_R   0.052920 0.706170 0.997130 -0.047918
N6    N     N_R   0.791050 0.293830 0.847890 -0.060075
N7    N     N_R   0.846330 0.556820 0.053910 -0.072836
N8    N     N_R   0.997640 0.443180 0.791110 -0.043659
N9    N     N_R   0.208950 0.706170 0.152110 -0.049095
N10   N     N_R   0.153670 0.443180 0.946090 -0.056959
N11   N     N_R   0.002360 0.556820 0.208890 -0.109045
N12   N     N_R   0.210070 0.556820 0.002870 -0.042617
N13   N     N_R   0.945960 0.443180 0.152110 -0.075360
N14   N     N_R   0.151710 0.706170 0.208890 -0.042805
N15   N     N_R   0.004320 0.293830 0.946090 -0.046342
N16   N     N_R   0.789930 0.443180 0.997130 -0.103103
Ni1   Ni    Ni4+2 0.869690 0.369690 0.000000 0.250499
Ni2   Ni    Ni4+2 0.130310 0.630310 0.000000 0.211888
Ni3   Ni    Ni4+2 0.000970 0.369690 0.869780 0.208262
Ni4   Ni    Ni4+2 0.999030 0.630310 0.130220 0.271154
F1    F     F_    0.573669 0.206585 0.993032 -0.711769
H44   H     H_    0.379692 0.772788 0.205547 0.133013
H45   H     H_    0.789329 0.212495 0.348910 0.136317
H46   H     H_    0.191972 0.585195 0.674541 0.112578
F2    F     F_    0.096979 0.998828 0.549649 -0.745810
H47   H     H_    0.297717 0.834562 0.610797 0.159920
H48   H     H_    0.523862 0.017503 0.699711 0.156275
F3    F     F_    0.652855 0.010645 0.379802 -0.700181
F4    F     F_    0.004300 0.691777 0.349174 -0.712817
F5    F     F_    0.802899 0.941279 0.667499 -0.692662
H49   H     H_    0.322821 0.416224 0.745375 0.037094
F6    F     F_    0.301845 0.304547 0.794168 -0.739906
H50   H     H_    0.436186 0.619205 0.868641 0.160532
H51   H     H_    0.350518 0.676585 0.022102 0.115113
F7    F     F_    0.643134 0.553189 0.124532 -0.678906
H52   H     H_    0.481196 0.560487 0.098592 0.228541
H53   H     H_    0.198293 0.074157 0.763586 0.171062
F8    F     F_    0.658381 0.861805 0.042454 -0.715999
F9    F     F_    0.705285 0.846760 0.228465 -0.664362
H54   H     H_    0.195331 0.746846 0.371586 0.146774
F10   F     F_    0.605625 0.303388 0.875896 -0.719935

loop_
_geom_bond_atom_site_label_1
_geom_bond_atom_site_label_2
_ccdc_geom_bond_type
C53   H24   S    
C58   C62   S    
C39   H20   S    
C66   C68   A    
C63   C65   S    
C1    H1    S    
N1    Ni1   S    
C73   C74   A    
N13   Ni1   S    
N8    Ni3   S    
C3    C23   A    
C35   C36   A    
N15   Ni3   S    
C67   N14   A    
C9    H5    S    
N7    Ni4   S    
C82   F9    S    
C53   C54   A    
C67   H54   S    
N5    Ni2   S    
C7    N3    A    
C26   C27   A    
C29   C30   A    
C58   H26   S    
C22   C24   A    
C23   N10   A    
C28   C29   A    
C78   H43   S    
N11   N13   A    
C35   H17   S    
N9    N14   A    
C38   C39   A    
C11   C14   A    
C7    H3    S    
C1    C86   A    
C6    H2    S    
C60   C62   S    
C18   C19   A    
C41   C42   A    
C21   H45   S    
C71   H36   S    
C33   C35   A    
C6    C15   A    
C54   C55   A    
C60   H28   S    
C84   C85   A    
C75   C85   S    
C66   C72   A    
C83   C84   A    
C68   C69   A    
C73   H37   S    
C65   H50   S    
C58   H27   S    
C65   H32   S    
N2    Ni2   S    
C70   C71   A    
C51   C57   A    
C43   F2    S    
N1    N15   A    
C42   H21   S    
N7    N16   A    
C56   N13   A    
C9    N5    A    
C78   C86   A    
C55   F5    S    
C2    C12   A    
C22   H11   S    
C21   C22   A    
C4    C56   A    
C45   N12   A    
C12   H44   S    
C61   C62   S    
C84   H42   S    
C64   H52   S    
C44   C46   A    
C36   H46   S    
N16   Ni1   S    
C77   C79   A    
C81   F8    S    
C4    C34   A    
N10   Ni3   S    
C5    N16   A    
C74   C75   A    
C66   H53   S    
C61   H31   S    
C51   C52   A    
N3    Ni3   S    
N4    Ni4   S    
C10   N6    A    
C1    N1    A    
C24   H9    S    
C16   C46   S    
C39   C40   A    
C6    N2    A    
C15   C26   S    
C20   C30   S    
C25   C26   A    
C31   H14   S    
C3    C45   A    
C81   C82   A    
C33   H16   S    
C13   N8    A    
C75   C76   A    
C80   C85   A    
C59   F6    S    
C2    C49   S    
C78   N15   A    
C47   C57   S    
C59   H49   S    
C44   H48   S    
C47   C48   A    
N9    Ni2   S    
C5    F10   S    
N6    Ni1   S    
C61   H30   S    
C73   C79   A    
C56   H39   S    
C76   C77   A    
C5    C14   A    
C48   H22   S    
C34   F4    S    
C28   H13   S    
C9    C17   A    
C48   C49   A    
C77   C86   S    
C2    C67   A    
C13   C15   A    
N4    N5    A    
C18   C24   A    
C69   C79   S    
C8    H4    S    
C42   C43   A    
C52   C53   A    
C44   C50   A    
C25   C30   A    
C46   C47   A    
C36   C37   A    
C8    N4    A    
C31   C32   A    
C7    C16   A    
C4    C29   S    
C83   H41   S    
C80   C81   A    
C61   C65   S    
C3    C63   S    
C59   C63   S    
C8    C17   A    
C13   H8    S    
C60   C64   S    
C32   C33   A    
C19   C20   A    
C55   C57   A    
C58   C59   S    
C38   C43   A    
C10   C16   A    
C11   N7    A    
C68   H34   S    
N10   N12   A    
C70   H35   S    
C11   H7    S    
C17   C74   S    
C80   H40   S    
C52   H23   S    
C38   H19   S    
N3    N6    A    
C40   C50   S    
C72   H33   S    
C34   N11   A    
C60   F7    S    
C51   F3    S    
C54   H25   S    
C12   N9    A    
C23   H18   S    
C45   H51   S    
C69   C70   A    
N12   Ni2   S    
C76   H38   S    
C10   H6    S    
C63   C64   S    
C31   C37   A    
C25   H12   S    
N14   Ni4   S    
C71   C72   A    
C20   C21   A    
C49   C50   A    
C27   C28   A    
C64   H29   S    
C32   H15   S    
C40   C41   A    
C82   C83   A    
C18   F1    S    
N11   Ni4   S    
C19   H10   S    
C27   C37   S    
N2    N8    A    
C41   H47   S    
C14   C62   S    
