data_mof_unit_33917.cif
_audit_creation_date              2013-03-05T15:50:20-0500
_audit_creation_method            fapswitch 2.2
_symmetry_space_group_name_H-M    P1
_symmetry_Int_Tables_number       1
_space_group_crystal_system       triclinic
_cell_length_a                    18.300842
_cell_length_b                    25.944069
_cell_length_c                    18.226719
_cell_angle_alpha                 89.851874
_cell_angle_beta                  89.799714
_cell_angle_gamma                 89.592906
_cell_volume                      8653.71565442

loop_
_atom_site_label
_atom_site_type_symbol
_atom_site_description
_atom_site_fract_x
_atom_site_fract_y
_atom_site_fract_z
_atom_type_partial_charge
Zn1   Zn    Zn3+2 0.249990 0.293780 0.913250 1.121811
Zn2   Zn    Zn3+2 0.249990 0.706220 0.086750 1.092169
Zn3   Zn    Zn3+2 0.249990 0.706220 0.913250 1.123952
Zn4   Zn    Zn3+2 0.249990 0.293780 0.086750 1.116832
Zn5   Zn    Zn3+2 0.749990 0.793780 0.413250 1.108347
Zn6   Zn    Zn3+2 0.749990 0.206220 0.586750 1.117610
Zn7   Zn    Zn3+2 0.749990 0.206220 0.413250 1.090488
Zn8   Zn    Zn3+2 0.749990 0.793780 0.586750 1.083245
Zn9   Zn    Zn3+2 0.336760 0.206240 0.000000 1.093023
Zn10  Zn    Zn3+2 0.336760 0.793760 0.000000 1.128840
Zn11  Zn    Zn3+2 0.836760 0.706240 0.500000 1.060040
Zn12  Zn    Zn3+2 0.836760 0.293760 0.500000 1.097534
Zn13  Zn    Zn3+2 0.163250 0.206230 0.000000 1.018772
Zn14  Zn    Zn3+2 0.163250 0.793770 0.000000 1.031133
Zn15  Zn    Zn3+2 0.663250 0.706230 0.500000 1.065734
Zn16  Zn    Zn3+2 0.663250 0.293770 0.500000 1.033985
O1    O     O_3   0.249990 0.250010 0.000000 -0.545793
O2    O     O_3   0.249990 0.749990 0.000000 -0.543885
O3    O     O_3   0.749990 0.750010 0.500000 -0.547386
O4    O     O_3   0.749990 0.249990 0.500000 -0.545162
O5    O     O_R   0.335430 0.280650 0.146160 -0.588869
O6    O     O_R   0.335430 0.719350 0.853840 -0.572019
O7    O     O_R   0.335430 0.719350 0.146160 -0.585199
O8    O     O_R   0.335430 0.280650 0.853840 -0.572420
O9    O     O_R   0.835430 0.780650 0.646160 -0.609147
O10   O     O_R   0.835430 0.219350 0.353840 -0.598688
O11   O     O_R   0.835430 0.219350 0.646160 -0.590597
O12   O     O_R   0.835430 0.780650 0.353840 -0.588662
O13   O     O_R   0.164550 0.280640 0.853840 -0.566084
O14   O     O_R   0.164550 0.719360 0.146160 -0.599785
O15   O     O_R   0.164550 0.719360 0.853840 -0.569115
O16   O     O_R   0.164550 0.280640 0.146160 -0.564407
O17   O     O_R   0.664550 0.780640 0.353840 -0.558193
O18   O     O_R   0.664550 0.219360 0.646160 -0.552298
O19   O     O_R   0.664550 0.219360 0.353840 -0.604386
O20   O     O_R   0.664550 0.780640 0.646160 -0.651931
O21   O     O_R   0.396160 0.219380 0.914560 -0.605384
O22   O     O_R   0.396160 0.780620 0.085440 -0.597209
O23   O     O_R   0.396160 0.780620 0.914560 -0.605097
O24   O     O_R   0.396160 0.219380 0.085440 -0.632330
O25   O     O_R   0.896160 0.719380 0.414560 -0.602258
O26   O     O_R   0.896160 0.280620 0.585440 -0.593274
O27   O     O_R   0.896160 0.280620 0.414560 -0.613236
O28   O     O_R   0.896160 0.719380 0.585440 -0.609201
O29   O     O_R   0.103840 0.219370 0.085450 -0.665236
O30   O     O_R   0.103840 0.780630 0.914550 -0.694450
O31   O     O_R   0.103840 0.780630 0.085450 -0.634460
O32   O     O_R   0.103840 0.219370 0.914550 -0.659955
O33   O     O_R   0.603840 0.719370 0.585450 -0.570094
O34   O     O_R   0.603840 0.280630 0.414550 -0.652216
O35   O     O_R   0.603840 0.280630 0.585450 -0.644049
O36   O     O_R   0.603840 0.719370 0.414550 -0.650534
O37   O     O_R   0.310730 0.133160 0.000000 -0.589059
O38   O     O_R   0.310730 0.866840 0.000000 -0.581587
O39   O     O_R   0.810730 0.633160 0.500000 -0.621969
O40   O     O_R   0.810730 0.366840 0.500000 -0.608399
O41   O     O_R   0.249970 0.366860 0.060720 -0.578702
O42   O     O_R   0.249970 0.633140 0.939280 -0.558972
O43   O     O_R   0.249970 0.633140 0.060720 -0.601034
O44   O     O_R   0.249970 0.366860 0.939280 -0.549507
O45   O     O_R   0.749970 0.866860 0.560720 -0.549101
O46   O     O_R   0.749970 0.133140 0.439280 -0.575427
O47   O     O_R   0.749970 0.133140 0.560720 -0.547436
O48   O     O_R   0.749970 0.866860 0.439280 -0.605221
O49   O     O_R   0.189290 0.133150 0.000000 -0.623083
O50   O     O_R   0.189290 0.866850 0.000000 -0.603651
O51   O     O_R   0.689290 0.633150 0.500000 -0.586990
O52   O     O_R   0.689290 0.366850 0.500000 -0.586930
C1    C     C_R   0.390463 0.251033 0.139442 0.965792
C2    C     C_R   0.388915 0.750533 0.859332 1.004727
C3    C     C_R   0.384512 0.755299 0.145219 0.916539
C4    C     C_R   0.384740 0.244618 0.854973 0.904414
C5    C     C_R   0.889699 0.749991 0.639974 0.857608
C6    C     C_R   0.889292 0.250188 0.359981 1.005208
C7    C     C_R   0.884697 0.254852 0.644870 0.844440
C8    C     C_R   0.886316 0.745967 0.356124 0.833093
C9    C     C_R   0.105207 0.254229 0.863923 0.785087
C10   C     C_R   0.105752 0.745833 0.136004 0.806492
C11   C     C_R   0.110533 0.750914 0.858904 0.860526
C12   C     C_R   0.110062 0.249556 0.140097 0.924888
C13   C     C_R   0.605199 0.754614 0.364226 0.828263
C14   C     C_R   0.605249 0.246023 0.635969 0.811715
C15   C     C_R   0.610877 0.249835 0.358855 0.802297
C16   C     C_R   0.610090 0.750322 0.639637 0.842958
C17   C     C_R   0.249979 0.109197 0.001111 0.864437
C18   C     C_R   0.249643 0.890611 0.000794 0.944253
C19   C     C_R   0.751330 0.608916 0.505176 0.865843
C20   C     C_R   0.749332 0.390931 0.502239 0.945212
C21   C     C_R   0.249653 0.391310 0.999824 1.019607
C22   C     C_R   0.249788 0.608707 0.000228 1.033172
C23   C     C_R   0.751380 0.891293 0.499563 1.094496
C24   C     C_R   0.751094 0.108683 0.500048 1.024660
C25   C     C_3   0.241601 0.469211 0.081850 0.641549
C26   C     C_3   0.189224 0.531567 0.944158 0.617344
C27   C     C_3   0.229647 0.529104 0.080576 0.541070
C28   C     C_3   0.183212 0.470559 0.950538 0.496976
C29   C     C_3   0.671194 0.969687 0.513311 0.534966
C30   C     C_3   0.772585 0.030659 0.419857 0.590815
C31   C     C_3   0.673217 0.030358 0.522585 0.517135
C32   C     C_3   0.784214 0.970394 0.421915 0.533941
C33   C     C_3   0.324266 0.469329 0.966017 0.579230
C34   C     C_3   0.327358 0.530560 0.975445 0.560362
C35   C     C_3   0.804210 0.968987 0.562513 0.602630
C36   C     C_3   0.810346 0.030243 0.557489 0.539919
C37   C     C_3   0.249077 0.449081 0.999486 -0.323303
C38   C     C_3   0.248972 0.550897 0.000525 -0.332355
C39   C     C_3   0.752032 0.949038 0.498507 -0.326102
C40   C     C_3   0.751741 0.050853 0.499900 -0.278840
C41   C     C_R   0.083147 0.350272 0.769384 0.353451
C42   C     C_R   0.099097 0.657817 0.244452 0.356786
C43   C     C_R   0.116955 0.684528 0.721342 0.368130
C44   C     C_R   0.012052 0.339957 0.155108 0.329539
C45   C     C_R   0.584605 0.851246 0.270288 0.385256
C46   C     C_R   0.583481 0.148340 0.723345 0.380828
C47   C     C_R   0.561031 0.154187 0.278824 0.318113
C48   C     C_R   0.471117 0.801483 0.610580 0.284910
C49   C     C_R   0.088940 0.383082 0.708545 0.363131
C50   C     C_R   0.114844 0.634912 0.312031 0.379298
C51   C     C_R   0.103861 0.635806 0.689072 0.199805
C52   C     C_R   0.967318 0.383673 0.166990 0.240750
C53   C     C_R   0.591199 0.884047 0.209701 0.375868
C54   C     C_R   0.592276 0.114551 0.782384 0.365373
C55   C     C_R   0.515236 0.111299 0.276861 0.345643
C56   C     C_R   0.400867 0.817488 0.591954 0.340802
C57   C     C_R   0.536346 0.884837 0.156844 0.267721
C58   C     C_R   0.540376 0.114395 0.838494 0.260810
C59   C     C_R   0.440589 0.117959 0.264058 0.270798
C60   C     C_R   0.345292 0.816859 0.644076 0.310005
C61   C     C_R   0.033120 0.384001 0.656708 0.284178
C62   C     C_R   0.063594 0.639082 0.368230 0.264050
C63   C     C_R   0.031615 0.620432 0.676216 0.327674
C64   C     C_R   0.908641 0.381132 0.215579 0.320166
C65   C     C_R   0.476440 0.852160 0.165172 0.296883
C66   C     C_R   0.479968 0.147645 0.833646 0.292440
C67   C     C_R   0.413535 0.166727 0.243578 0.238474
C68   C     C_R   0.359456 0.799622 0.715856 0.231921
C69   C     C_R   0.973031 0.351883 0.666679 0.282244
C70   C     C_R   0.996078 0.661290 0.351775 0.294898
C71   C     C_R   0.974244 0.656229 0.684483 0.289562
C72   C     C_R   0.895163 0.335779 0.254999 0.203818
C73   C     C_R   0.480880 0.808704 0.212615 -0.113935
C74   C     C_R   0.481595 0.191080 0.785881 -0.120971
C75   C     C_R   0.462506 0.208448 0.235837 -0.125633
C76   C     C_R   0.428712 0.775550 0.733559 -0.133492
C77   C     C_R   0.978539 0.308330 0.713714 -0.097658
C78   C     C_R   0.991011 0.698541 0.295453 -0.063733
C79   C     C_R   0.990273 0.707047 0.707881 -0.131484
C80   C     C_R   0.947452 0.294137 0.254008 -0.150800
C81   C     C_R   0.034626 0.307415 0.767567 -0.153805
C82   C     C_R   0.044580 0.697561 0.239942 -0.159964
C83   C     C_R   0.056274 0.715195 0.743595 -0.068723
C84   C     C_R   0.005083 0.295459 0.201497 -0.050001
C85   C     C_R   0.536384 0.808160 0.267296 -0.133032
C86   C     C_R   0.535754 0.191930 0.729760 -0.156110
C87   C     C_R   0.530426 0.204594 0.269783 -0.181261
C88   C     C_R   0.484955 0.776444 0.679494 -0.107250
C89   C     C_R   0.426304 0.769772 0.213805 -0.021376
C90   C     C_R   0.426488 0.230247 0.786411 -0.017323
C91   C     C_R   0.446751 0.253648 0.195602 -0.011228
C92   C     C_R   0.443828 0.750465 0.802229 -0.030769
C93   C     C_R   0.925423 0.268832 0.713674 -0.066404
C94   C     C_R   0.930275 0.732499 0.289498 -0.054302
C95   C     C_R   0.946182 0.751209 0.695235 -0.033776
C96   C     C_R   0.943274 0.250807 0.302327 -0.029063
C97   C     C_R   0.410067 0.748400 0.283904 -0.015019
C98   C     C_R   0.410816 0.254537 0.718360 -0.016155
C99   C     C_R   0.488697 0.299369 0.206507 -0.026659
C100  C     C_R   0.511245 0.724121 0.816223 -0.022711
C101  C     C_R   0.910847 0.244453 0.781809 -0.112915
C102  C     C_R   0.912264 0.751721 0.218815 -0.111016
C103  C     C_R   0.958804 0.797007 0.735911 -0.131395
C104  C     C_R   0.986586 0.205804 0.292081 -0.030376
C105  C     C_R   0.968193 0.240455 0.834257 -0.024805
C106  C     C_R   0.968696 0.755393 0.165280 -0.017017
C107  C     C_R   0.999883 0.791836 0.799946 -0.065717
C108  C     C_R   0.033954 0.204127 0.231460 -0.112704
C109  C     C_R   0.467197 0.745076 0.336838 -0.061065
C110  C     C_R   0.467882 0.259521 0.665756 -0.062610
C111  C     C_R   0.542378 0.298580 0.262274 -0.070422
C112  C     C_R   0.566385 0.726349 0.762312 -0.077556
C113  C     C_R   0.036228 0.266482 0.820709 -0.068609
C114  C     C_R   0.039204 0.733553 0.180771 -0.071157
C115  C     C_R   0.055909 0.753108 0.800315 -0.003434
C116  C     C_R   0.049919 0.250449 0.192913 -0.010398
C117  C     C_R   0.536686 0.767815 0.321012 -0.058901
C118  C     C_R   0.536403 0.233694 0.678503 -0.072714
C119  C     C_R   0.561396 0.251109 0.295873 -0.013585
C120  C     C_R   0.552991 0.751974 0.695097 0.016927
C121  C     C_R   0.336842 0.737681 0.305750 0.386125
C122  C     C_R   0.338053 0.268439 0.698644 0.384866
C123  C     C_R   0.478425 0.345681 0.165006 0.335684
C124  C     C_R   0.524757 0.694253 0.881639 0.354191
C125  C     C_R   0.839188 0.227563 0.801567 0.388909
C126  C     C_R   0.838932 0.764429 0.198329 0.390105
C127  C     C_R   0.930028 0.846854 0.718370 0.404832
C128  C     C_R   0.982771 0.161689 0.339758 0.352752
C129  C     C_R   0.322440 0.717430 0.376628 0.253976
C130  C     C_R   0.325236 0.298305 0.634820 0.226824
C131  C     C_R   0.517188 0.390940 0.183552 0.241105
C132  C     C_R   0.594601 0.672044 0.894292 0.231298
C133  C     C_R   0.828807 0.196812 0.863803 0.327036
C134  C     C_R   0.825127 0.790845 0.132733 0.331905
C135  C     C_R   0.921820 0.883733 0.774162 0.314029
C136  C     C_R   0.010461 0.113522 0.315296 0.241240
C137  C     C_R   0.886499 0.189449 0.913502 0.346604
C138  C     C_R   0.881819 0.797744 0.081409 0.358362
C139  C     C_R   0.943614 0.871502 0.846040 0.362629
C140  C     C_R   0.044310 0.110446 0.246275 0.451510
C141  C     C_R   0.380434 0.708811 0.425695 0.417640
C142  C     C_R   0.383466 0.308069 0.586164 0.426505
C143  C     C_R   0.566765 0.390188 0.242492 0.420371
C144  C     C_R   0.649207 0.675445 0.840090 0.433979
C145  C     C_R   0.952860 0.213984 0.900694 -0.216389
C146  C     C_R   0.950883 0.777338 0.096317 -0.215267
C147  C     C_R   0.983572 0.826413 0.858002 -0.166392
C148  C     C_R   0.062923 0.155635 0.210007 -0.163987
C149  C     C_R   0.450345 0.724845 0.406860 -0.162198
C150  C     C_R   0.451708 0.286039 0.599711 -0.202896
C151  C     C_R   0.580113 0.344192 0.279322 -0.181290
C152  C     C_R   0.634355 0.701666 0.775405 -0.168372
H1    H     H_    0.988783 0.214059 0.947050 0.234476
H2    H     H_    0.987868 0.776832 0.050414 0.209912
H3    H     H_    0.996957 0.818740 0.914340 0.241511
H4    H     H_    0.097256 0.150638 0.162505 0.230651
H5    H     H_    0.488365 0.725238 0.451630 0.241392
H6    H     H_    0.488711 0.287970 0.554084 0.227890
H7    H     H_    0.622765 0.344717 0.320161 0.213789
H8    H     H_    0.678025 0.702314 0.735248 0.186376
C153  C     C_R   0.249102 0.053333 0.868010 -0.080445
C154  C     C_R   0.259373 0.946549 0.868288 -0.136055
C155  C     C_R   0.889208 0.543203 0.487899 0.015960
C156  C     C_R   0.852540 0.450844 0.422545 -0.071987
C157  C     C_R   0.254098 0.026730 0.801888 -0.080585
C158  C     C_R   0.260046 0.973387 0.802054 -0.064204
C159  C     C_R   0.941371 0.515529 0.447461 0.018460
C160  C     C_R   0.921264 0.471429 0.410126 -0.050377
C161  C     C_R   0.253604 0.972866 0.936309 0.026250
C162  C     C_R   0.250945 0.026878 0.936256 0.088606
C163  C     C_R   0.804415 0.473990 0.474211 0.029263
C164  C     C_R   0.816941 0.524701 0.494788 0.065151
C165  C     C_R   0.248064 0.946091 0.003550 -0.047999
C166  C     C_R   0.249215 0.053350 0.003798 -0.045274
C167  C     C_R   0.748607 0.446788 0.510397 -0.055855
C168  C     C_R   0.757275 0.553532 0.523271 -0.097114
C169  C     C_R   0.237271 0.972058 0.071656 -0.045254
C170  C     C_R   0.241336 0.026657 0.072083 -0.168167
C171  C     C_R   0.701089 0.472680 0.561662 -0.044986
C172  C     C_R   0.703106 0.527516 0.564914 -0.171776
C173  C     C_R   0.222759 0.945078 0.139121 0.362815
C174  C     C_R   0.235062 0.052887 0.140708 0.319449
C175  C     C_R   0.654299 0.446096 0.611828 0.358452
C176  C     C_R   0.655171 0.553967 0.614416 0.352069
C177  C     C_R   0.211169 0.972880 0.204672 0.196634
C178  C     C_R   0.218295 0.026210 0.205172 0.460922
C179  C     C_R   0.598545 0.473556 0.649155 0.186890
C180  C     C_R   0.599077 0.527356 0.649651 0.365416
H9    H     H_    0.243622 0.094822 0.864841 0.145178
H10   H     H_    0.262382 0.905009 0.865413 0.162390
H11   H     H_    0.907233 0.577605 0.515434 0.230313
H12   H     H_    0.839211 0.415535 0.394522 0.192766
H13   H     H_    0.253370 0.047625 0.750407 0.170327
H14   H     H_    0.264100 0.952633 0.750719 0.193475
H15   H     H_    0.996615 0.529023 0.442543 0.227739
H16   H     H_    0.959908 0.451845 0.374546 0.176265
O53   O     O_3   0.307116 0.457244 0.119155 -0.702893
H17   H     H_    0.297824 0.458767 0.172837 0.392745
O54   O     O_3   0.212825 0.544639 0.872600 -0.648472
H18   H     H_    0.169689 0.545764 0.839682 0.399020
O55   O     O_3   0.274398 0.552119 0.134131 -0.671552
H19   H     H_    0.253049 0.544295 0.183034 0.413800
O56   O     O_3   0.186998 0.449323 0.879630 -0.640024
H20   H     H_    0.141705 0.460099 0.853749 0.405364
O57   O     O_3   0.643631 0.945520 0.577334 -0.732275
H21   H     H_    0.590987 0.954133 0.582773 0.349336
O58   O     O_3   0.837682 0.054635 0.396758 -0.699981
H22   H     H_    0.843118 0.048807 0.343153 0.393968
O59   O     O_3   0.659122 0.043196 0.596474 -0.656321
H23   H     H_    0.605912 0.039315 0.605583 0.374102
O60   O     O_3   0.859616 0.958544 0.419560 -0.672868
H24   H     H_    0.877657 0.962870 0.368452 0.405449
O61   O     O_3   0.280274 0.755283 0.262035 -0.713699
H25   H     H_    0.234437 0.737589 0.275273 0.382254
O62   O     O_3   0.280894 0.246756 0.737749 -0.737531
H26   H     H_    0.233917 0.252291 0.712347 0.379292
O63   O     O_3   0.434616 0.345349 0.103659 -0.741453
H27   H     H_    0.410915 0.379470 0.098673 0.423813
O64   O     O_3   0.469380 0.686613 0.932262 -0.759884
H28   H     H_    0.477709 0.654047 0.959399 0.395470
O65   O     O_3   0.776891 0.245859 0.767403 -0.668541
H29   H     H_    0.787321 0.280426 0.746750 0.331186
O66   O     O_3   0.778828 0.746022 0.235877 -0.669148
H30   H     H_    0.792503 0.712805 0.259250 0.328242
O67   O     O_3   0.916017 0.862151 0.647266 -0.653011
H31   H     H_    0.945741 0.840407 0.613739 0.329668
O68   O     O_3   0.954761 0.167370 0.410008 -0.757834
H32   H     H_    0.948227 0.133597 0.434092 0.406730
Cl1   Cl    Cl    0.739915 0.174104 0.882969 -0.477266
Cl2   Cl    Cl    0.734019 0.808974 0.112733 -0.483275
Cl3   Cl    Cl    0.888204 0.945717 0.752637 -0.497093
Cl4   Cl    Cl    0.008671 0.057970 0.372015 -0.495584
Cl5   Cl    Cl    0.231501 0.711409 0.408935 -0.513978
Cl6   Cl    Cl    0.235990 0.320610 0.613800 -0.543553
Cl7   Cl    Cl    0.508362 0.447009 0.128590 -0.502570
Cl8   Cl    Cl    0.614293 0.642763 0.980043 -0.500017
Cl9   Cl    Cl    0.207457 0.060724 0.288253 -0.304851
Cl10  Cl    Cl    0.185301 0.941407 0.287030 -0.393855
Cl11  Cl    Cl    0.534998 0.562249 0.703011 -0.400762
Cl12  Cl    Cl    0.529076 0.440751 0.697872 -0.449845
O69   O     O_3   0.185131 0.443774 0.121344 -0.676470
H33   H     H_    0.136457 0.453116 0.102789 0.425840
O70   O     O_3   0.121955 0.558324 0.955226 -0.782561
H34   H     H_    0.088153 0.539443 0.987640 0.415627
O71   O     O_3   0.156284 0.539927 0.098997 -0.721252
H35   H     H_    0.145898 0.576019 0.085918 0.374138
O72   O     O_3   0.115712 0.455840 0.981176 -0.780956
H36   H     H_    0.110823 0.418048 0.975059 0.347049
O73   O     O_3   0.625414 0.955795 0.454559 -0.766751
H37   H     H_    0.574268 0.965745 0.466430 0.400524
O74   O     O_3   0.718107 0.045572 0.368789 -0.615959
H38   H     H_    0.676354 0.021881 0.371596 0.415705
O75   O     O_3   0.618711 0.053699 0.478389 -0.751405
H39   H     H_    0.610999 0.089648 0.495422 0.337677
O76   O     O_3   0.754578 0.947965 0.357781 -0.657465
H40   H     H_    0.703229 0.938779 0.364603 0.428375
O77   O     O_3   0.217044 0.891941 0.139515 -0.720769
H41   H     H_    0.224733 0.878032 0.189437 0.397229
O78   O     O_3   0.245696 0.104861 0.146916 -0.695395
H42   H     H_    0.297416 0.110296 0.132749 0.362085
O79   O     O_3   0.667950 0.394883 0.628372 -0.716102
H43   H     H_    0.641602 0.384598 0.673470 0.379139
O80   O     O_3   0.665303 0.604453 0.635266 -0.693878
H44   H     H_    0.718525 0.609734 0.641235 0.343808
O81   O     O_3   0.382993 0.445996 0.003329 -0.693579
H45   H     H_    0.428629 0.456201 0.977606 0.404574
O82   O     O_3   0.346976 0.553966 0.908358 -0.652949
H46   H     H_    0.398420 0.543990 0.897599 0.389519
O83   O     O_3   0.380680 0.546543 0.026682 -0.695465
H47   H     H_    0.381770 0.523400 0.069620 0.429239
O84   O     O_3   0.331457 0.453366 0.891915 -0.651797
H48   H     H_    0.307062 0.477844 0.858315 0.428484
O85   O     O_3   0.777636 0.952402 0.631780 -0.610972
H49   H     H_    0.738640 0.975485 0.650212 0.425594
O86   O     O_3   0.880968 0.047509 0.537176 -0.718880
H50   H     H_    0.903548 0.024323 0.500669 0.425937
O87   O     O_3   0.796215 0.051874 0.627077 -0.612268
H51   H     H_    0.837767 0.042481 0.659515 0.399645
O88   O     O_3   0.873704 0.945903 0.554716 -0.651144
H52   H     H_    0.904386 0.958154 0.595856 0.411989
O89   O     O_3   0.879227 0.162202 0.978341 -0.698601
H53   H     H_    0.832699 0.143105 0.978476 0.398911
O90   O     O_3   0.871478 0.820635 0.013679 -0.701637
H54   H     H_    0.822612 0.836995 0.011525 0.400808
O91   O     O_3   0.930982 0.903424 0.905351 -0.672423
H55   H     H_    0.894910 0.930344 0.891897 0.395321
O92   O     O_3   0.062288 0.064344 0.212877 -0.722370
H56   H     H_    0.036372 0.035768 0.237508 0.390631
O93   O     O_3   0.370488 0.689444 0.495693 -0.690714
H57   H     H_    0.322913 0.671742 0.498837 0.408768
O94   O     O_3   0.375538 0.335517 0.521524 -0.692364
H58   H     H_    0.327940 0.353682 0.520918 0.407227
O95   O     O_3   0.606331 0.432662 0.264164 -0.679840
H59   H     H_    0.586576 0.464155 0.240741 0.396195
O96   O     O_3   0.718081 0.653791 0.847141 -0.685959
H60   H     H_    0.720755 0.632414 0.891956 0.398786
O97   O     O_3   0.114629 0.367020 0.833289 -0.665529
H61   H     H_    0.082949 0.356359 0.874838 0.309600
O98   O     O_3   0.126553 0.633593 0.183410 -0.665910
H62   H     H_    0.092262 0.640588 0.142437 0.318841
O99   O     O_3   0.185903 0.706088 0.722374 -0.642215
H63   H     H_    0.221638 0.683175 0.697780 0.391678
O100  O     O_3   0.060890 0.339704 0.097132 -0.766547
H64   H     H_    0.044658 0.364226 0.058789 0.354762
O101  O     O_3   0.614792 0.868375 0.334891 -0.670537
H65   H     H_    0.583205 0.856956 0.376089 0.347906
O102  O     O_3   0.612471 0.132652 0.657172 -0.658666
H66   H     H_    0.580321 0.145586 0.617371 0.293755
O103  O     O_3   0.635061 0.144615 0.275323 -0.613364
H67   H     H_    0.656841 0.171446 0.243248 0.365669
O104  O     O_3   0.525278 0.812164 0.560419 -0.746616
H68   H     H_    0.560106 0.835026 0.585967 0.341572
Cl13  Cl    Cl    0.158773 0.429547 0.705145 -0.307847
Cl14  Cl    Cl    0.191136 0.593554 0.320825 -0.410465
Cl15  Cl    Cl    0.176371 0.592620 0.669024 -0.369271
Cl16  Cl    Cl    0.982681 0.441894 0.118582 -0.456834
Cl17  Cl    Cl    0.660180 0.931148 0.208492 -0.316225
Cl18  Cl    Cl    0.660449 0.066177 0.778055 -0.327544
Cl19  Cl    Cl    0.552520 0.048949 0.288441 -0.347251
Cl20  Cl    Cl    0.384720 0.842384 0.503057 -0.421652
Cl21  Cl    Cl    0.535740 0.932937 0.088065 -0.326768
Cl22  Cl    Cl    0.543635 0.066330 0.907270 -0.339567
Cl23  Cl    Cl    0.382929 0.064268 0.269619 -0.401209
Cl24  Cl    Cl    0.257592 0.840265 0.619270 -0.381090
Cl25  Cl    Cl    0.032705 0.430289 0.585604 -0.372732
Cl26  Cl    Cl    0.079447 0.611864 0.455269 -0.432922
Cl27  Cl    Cl    0.013227 0.557112 0.646826 -0.369750
Cl28  Cl    Cl    0.848874 0.434858 0.223957 -0.406576
Cl29  Cl    Cl    0.390651 0.878928 0.141807 -0.487413
Cl30  Cl    Cl    0.396182 0.121141 0.861828 -0.561552
Cl31  Cl    Cl    0.318391 0.178391 0.246458 -0.495439
Cl32  Cl    Cl    0.288343 0.812981 0.779736 -0.602279
Cl33  Cl    Cl    0.886534 0.378476 0.644489 -0.516886
Cl34  Cl    Cl    0.919397 0.621759 0.364729 -0.594023
Cl35  Cl    Cl    0.883066 0.633801 0.680750 -0.547283
Cl36  Cl    Cl    0.806344 0.331401 0.294376 -0.615132

loop_
_geom_bond_atom_site_label_1
_geom_bond_atom_site_label_2
_geom_bond_distance
_ccdc_geom_bond_type
C173  C177  1.411835 A    
O93   H57   0.988651 S    
C34   O82   1.410340 S    
C35   O85   1.418243 S    
O66   H30   0.991241 S    
C15   C119  1.464765 S    
C42   C50   1.396298 A    
O83   H47   0.985342 S    
O81   H45   0.993582 S    
C130  Cl6   1.771736 S    
C90   C98   1.419060 A    
O26   C7    1.288778 A    
C45   O101  1.378381 S    
C107  C115  1.430483 A    
O30   C11   1.280585 A    
C36   O87   1.410636 S    
C127  C135  1.405005 A    
C121  C129  1.417942 A    
O56   H20   0.993236 S    
C164  C168  1.416966 A    
C125  C133  1.398328 A    
C178  Cl9   1.771045 S    
C13   C117  1.519620 S    
O88   H52   0.992626 S    
Zn12  O26   1.930520 S    
C146  H2    1.074371 S    
C78   C82   1.406517 A    
C136  C140  1.402549 A    
C9    C113  1.521507 S    
C52   Cl16  1.771022 S    
C76   C92   1.436071 A    
C65   Cl29  1.765296 S    
C138  C146  1.394192 A    
C141  O93   1.381940 S    
C169  C170  1.419051 A    
C33   O84   1.419122 S    
Zn4   O41   1.953260 S    
C74   C90   1.426590 A    
O11   C7    1.293599 A    
C124  O64   1.383145 S    
O34   C15   1.298930 A    
C3    C89   1.517206 S    
C47   C55   1.398360 A    
O76   H40   0.978539 S    
C23   C39   1.498338 S    
C43   O99   1.384061 S    
Zn1   O44   1.955639 S    
C125  O65   1.381510 S    
C44   C52   1.410783 A    
Zn2   O43   1.955644 S    
C101  C125  1.430242 A    
C144  C152  1.386419 A    
C100  C112  1.407398 A    
C155  H11   1.079323 S    
Zn5   O48   1.955639 S    
Zn6   O47   1.955644 S    
C105  C145  1.418733 A    
C148  H4    1.075559 S    
Zn7   O46   1.953264 S    
O16   C12   1.292113 A    
O92   H56   0.988895 S    
Zn16  O4    1.945346 S    
Zn12  O4    1.958771 S    
C29   O73   1.411065 S    
C26   C28   1.591318 S    
C28   O72   1.408701 S    
C71   Cl35  1.772661 S    
Zn4   O16   1.930680 S    
C69   Cl33  1.770018 S    
C135  Cl3   1.761479 S    
C165  C169  1.426376 A    
C104  C128  1.437197 A    
C62   C70   1.392907 A    
C157  H13   1.082532 S    
C102  C106  1.421840 A    
C69   C77   1.419798 A    
C108  C116  1.422133 A    
C111  C151  1.410262 A    
C143  O95   1.382115 S    
C59   C67   1.405446 A    
C42   C82   1.432089 A    
O102  H66   0.991941 S    
C99   C123  1.429774 A    
C100  C124  1.441455 A    
Zn10  O22   1.930520 S    
C141  C149  1.389819 A    
C5    C95   1.446349 S    
C87   C119  1.420652 A    
O97   H61   0.992095 S    
O25   C8    1.280017 A    
Zn13  O29   1.926056 S    
C77   C93   1.417440 A    
Zn10  O2    1.958771 S    
C17   C166  1.449767 S    
C91   C99   1.432164 A    
C154  C158  1.392129 A    
O29   C12   1.274550 A    
Zn15  O33   1.926056 S    
C140  O92   1.380647 S    
C82   C114  1.427938 A    
C48   C88   1.435114 A    
C175  O79   1.382918 S    
C176  O80   1.378740 S    
O82   H46   0.993634 S    
C110  C118  1.436919 A    
C128  O68   1.385385 S    
C61   C69   1.395520 A    
C58   C66   1.400306 A    
O75   H39   0.992715 S    
C32   O76   1.418329 S    
O94   H58   0.987535 S    
C163  C167  1.406884 A    
O48   C23   1.270356 A    
C150  H6    1.071920 S    
C172  C176  1.429573 A    
C62   Cl26  1.758998 S    
C6    C96   1.439928 S    
O89   H53   0.988193 S    
C66   Cl30  1.759411 S    
C97   C109  1.427153 A    
C41   C81   1.428405 A    
O90   H54   0.988036 S    
Zn16  O35   1.927364 S    
C106  C114  1.434281 A    
C20   C167  1.457103 S    
C30   C40   1.595523 S    
C180  Cl11  1.766940 S    
C31   C40   1.588838 S    
C86   C118  1.428943 A    
Zn7   O10   1.930635 S    
O33   C16   1.280464 A    
C109  C149  1.412643 A    
C177  C178  1.390698 A    
O40   C20   1.282452 A    
C156  C160  1.387513 A    
C122  O62   1.385569 S    
C43   C51   1.417878 A    
C57   Cl21  1.766579 S    
C55   Cl19  1.763617 S    
C55   C59   1.396153 A    
C24   C40   1.500317 S    
C53   Cl17  1.763236 S    
Zn5   O17   1.937787 S    
C51   C63   1.404350 A    
C49   C61   1.393964 A    
C157  C158  1.387437 A    
C93   C101  1.417566 A    
C124  C132  1.417699 A    
C25   C27   1.567796 S    
O59   H23   0.993035 S    
C111  C119  1.415794 A    
O77   H41   0.988158 S    
Zn8   O3    1.949075 S    
C26   O70   1.423014 S    
C80   C96   1.428565 A    
C144  O96   1.382585 S    
C89   C97   1.422746 A    
O38   C18   1.272978 A    
C50   Cl14  1.762330 S    
O5    C1    1.268218 A    
C155  C164  1.415222 A    
C10   C114  1.499243 S    
C26   O54   1.413696 S    
O32   C9    1.290680 A    
C76   C88   1.422730 A    
C79   C83   1.391841 A    
C53   C57   1.393792 A    
O67   H31   0.991306 S    
C27   C38   1.602684 S    
C75   C87   1.393260 A    
O96   H60   0.987301 S    
Zn15  O51   1.951679 S    
O65   H29   0.991266 S    
Zn11  O28   1.934665 S    
C74   C86   1.422090 A    
C32   O60   1.412150 S    
C96   C104  1.418926 A    
C64   Cl28  1.772250 S    
C123  O63   1.378244 S    
C35   C36   1.596359 S    
O8    C4    1.294864 A    
C169  C173  1.438209 A    
C42   O98   1.371338 S    
C159  H15   1.075630 S    
C80   C84   1.422286 A    
O50   C18   1.268872 A    
O37   C17   1.277726 A    
O54   H18   0.993434 S    
C83   C115  1.428781 A    
C171  C175  1.429913 A    
C143  C151  1.388239 A    
Zn1   O1    1.944307 S    
C161  C165  1.410882 A    
C138  O90   1.381562 S    
C7    C93   1.507476 S    
C79   C95   1.415540 A    
C31   O59   1.410629 S    
C73   C85   1.425517 A    
C19   C168  1.476774 S    
C33   O81   1.406330 S    
C70   C78   1.410933 A    
C1    C91   1.456796 S    
C11   C115  1.466039 S    
C2    C92   1.444256 S    
C12   C116  1.459828 S    
C153  C157  1.392774 A    
O36   C13   1.293780 A    
C130  C142  1.407962 A    
C63   C71   1.404770 A    
C105  C113  1.440881 A    
C158  H14   1.082779 S    
C45   C53   1.397820 A    
Zn1   O8    1.927700 S    
C21   C37   1.498774 S    
Zn2   O7    1.937741 S    
C101  C105  1.425124 A    
Zn3   O6    1.930635 S    
C155  C159  1.399345 A    
O18   C14   1.296491 A    
O31   C10   1.288714 A    
O6    C2    1.278655 A    
C104  C108  1.402579 A    
C36   O86   1.418500 S    
C149  H5    1.074346 S    
C174  C178  1.396425 A    
C99   C111  1.416088 A    
C28   C37   1.598390 S    
C33   C34   1.599695 S    
C41   O97   1.374158 S    
C163  C164  1.389798 A    
O70   H34   0.985874 S    
O91   H55   0.988634 S    
C41   C49   1.400376 A    
O104  H68   0.991861 S    
Zn14  O30   1.934918 S    
C28   O56   1.407555 S    
Zn15  O3    1.958473 S    
C78   C94   1.417695 A    
Zn11  O3    1.945645 S    
C166  C170  1.430077 A    
O41   C21   1.276992 A    
C14   C118  1.512741 S    
C137  O89   1.382016 S    
Zn16  O34   1.934918 S    
C60   C68   1.405906 A    
C25   O53   1.412657 S    
C133  Cl1   1.767533 S    
O100  H64   0.988868 S    
C126  C134  1.399433 A    
C109  C117  1.433758 A    
C152  H8    1.082025 S    
Zn8   O20   1.930680 S    
C136  Cl4   1.771928 S    
C112  C120  1.413698 A    
C145  H1    1.072388 S    
C121  O61   1.382861 S    
C156  C163  1.418688 A    
C97   C121  1.425720 A    
C159  C160  1.385392 A    
C44   C84   1.435346 A    
C98   C110  1.421605 A    
C46   C86   1.428772 A    
C95   C103  1.422828 A    
C56   C60   1.389464 A    
C127  O67   1.378796 S    
C137  C145  1.393852 A    
O72   H36   0.991788 S    
O55   H19   0.993020 S    
C81   C113  1.435713 A    
Zn8   O9    1.932845 S    
C88   C120  1.422865 A    
O7    C3    1.299497 A    
C22   C38   1.499987 S    
C45   C85   1.430390 A    
O68   H32   0.986862 S    
C102  C126  1.430303 A    
O19   C15   1.259777 A    
O69   H33   0.982467 S    
C25   O69   1.422570 S    
C54   Cl18  1.765060 S    
Zn9   O24   1.934665 S    
Zn6   O18   1.927743 S    
C43   C83   1.420120 A    
Zn10  O23   1.925807 S    
C106  C146  1.416664 A    
C107  C147  1.418611 A    
O80   H44   0.990970 S    
C34   O83   1.417897 S    
O63   H27   0.987141 S    
C50   C62   1.390346 A    
C66   C74   1.422642 A    
C31   O75   1.416035 S    
C175  C179  1.413822 A    
O84   H48   0.986683 S    
C94   C102  1.419295 A    
C139  C147  1.392247 A    
Zn15  O36   1.930773 S    
O15   C11   1.282258 A    
O42   C22   1.277595 A    
C58   Cl22  1.766741 S    
Zn4   O1    1.949075 S    
C103  C127  1.428765 A    
O17   C13   1.296084 A    
C160  H16   1.082712 S    
C167  C171  1.438701 A    
C16   C120  1.451829 S    
Zn9   O37   1.958204 S    
O12   C8    1.291048 A    
C36   C40   1.592111 S    
Zn11  O39   1.958204 S    
C122  C130  1.415383 A    
C48   C56   1.391133 A    
O51   C19   1.297539 A    
C110  C150  1.416103 A    
C75   C91   1.410066 A    
Zn5   O3    1.944307 S    
Zn13  O1    1.958473 S    
C64   C72   1.400034 A    
Zn6   O4    1.944306 S    
C65   C73   1.421108 A    
Zn2   O14   1.927743 S    
O60   H24   0.993561 S    
O78   H42   0.991181 S    
C68   C76   1.446072 A    
O71   H35   0.983052 S    
C129  Cl5   1.771231 S    
C18   C165  1.440461 S    
C46   C54   1.395222 A    
C131  Cl7   1.770857 S    
C44   O100  1.381621 S    
C132  Cl8   1.773061 S    
O28   C5    1.278514 A    
C92   C100  1.429599 A    
C30   O58   1.410366 S    
O74   H38   0.985132 S    
Zn3   O42   1.953264 S    
C168  C172  1.419858 A    
Zn7   O4    1.949077 S    
C156  H12   1.079839 S    
O21   C4    1.283725 A    
C177  Cl10  1.771555 S    
C151  H7    1.080663 S    
C153  C162  1.419522 A    
C77   C81   1.422736 A    
C153  H9    1.081753 S    
O86   H50   0.985888 S    
Zn2   O2    1.944306 S    
O79   H43   0.988572 S    
Zn14  O2    1.945346 S    
C8    C94   1.495122 S    
O98   H62   0.992697 S    
C72   C80   1.438224 A    
Zn13  O49   1.951679 S    
O44   C21   1.274250 A    
C71   C79   1.419661 A    
C132  C144  1.405829 A    
C123  C131  1.418392 A    
Zn12  O27   1.925807 S    
C4    C90   1.508679 S    
Zn3   O2    1.949077 S    
C25   C37   1.595860 S    
C49   Cl13  1.763871 S    
C154  H10   1.080137 S    
O46   C24   1.275209 A    
O47   C24   1.276398 A    
C108  C148  1.417173 A    
C34   C38   1.590957 S    
Zn16  O52   1.958246 S    
C29   C39   1.592205 S    
C174  O78   1.368802 S    
C84   C116  1.431014 A    
O53   H17   0.993370 S    
O9    C5    1.272891 A    
Zn8   O45   1.953260 S    
C176  C180  1.395042 A    
O27   C6    1.278716 A    
C140  C148  1.388363 A    
O39   C19   1.262898 A    
C72   Cl36  1.778829 S    
C70   Cl34  1.758918 S    
Zn1   O13   1.937787 S    
C29   C31   1.584253 S    
C126  O66   1.380872 S    
C27   O55   1.412678 S    
C33   C37   1.595079 S    
C134  Cl2   1.768155 S    
C63   Cl27  1.764265 S    
O24   C1    1.286975 A    
C61   Cl25  1.764583 S    
C27   O71   1.409291 S    
O61   H25   0.987973 S    
C103  C107  1.396165 A    
C30   O74   1.417473 S    
C98   C122  1.424191 A    
O43   C22   1.273255 A    
C51   Cl15  1.768425 S    
C54   C58   1.393316 A    
Zn3   O15   1.932887 S    
C142  O94   1.382611 S    
C47   O103  1.376916 S    
C48   O104  1.375284 S    
Zn5   O12   1.927700 S    
C128  C136  1.417566 A    
Zn6   O11   1.937741 S    
Zn9   O21   1.927115 S    
O57   H21   0.992142 S    
Zn14  O50   1.958246 S    
O13   C9    1.300496 A    
O35   C14   1.284612 A    
C173  O77   1.383293 S    
O103  H67   0.992695 S    
Zn12  O40   1.951638 S    
C135  C139  1.405639 A    
C73   C89   1.425602 A    
Zn9   O1    1.945645 S    
O58   H22   0.993596 S    
C59   Cl23  1.755999 S    
C60   Cl24  1.771719 S    
O64   H28   0.989072 S    
O52   C20   1.268710 A    
C112  C152  1.415734 A    
C179  Cl12  1.769952 S    
C179  C180  1.395955 A    
O62   H26   0.987299 S    
C56   Cl20  1.767790 S    
O99   H63   0.987845 S    
C170  C174  1.429361 A    
C57   C65   1.398239 A    
O22   C3    1.288742 A    
C26   C38   1.587751 S    
C32   C39   1.611702 S    
C133  C137  1.405250 A    
C47   C87   1.428384 A    
C52   C64   1.391352 A    
Zn7   O19   1.932887 S    
C35   O88   1.408789 S    
C154  C161  1.420158 A    
C147  H3    1.074266 S    
Zn13  O32   1.930773 S    
C171  C172  1.424803 A    
O49   C17   1.269034 A    
Zn14  O31   1.927364 S    
O95   H59   0.987740 S    
C162  C166  1.411392 A    
C30   C32   1.576812 S    
C46   O102  1.377270 S    
C142  C150  1.392355 A    
C35   C39   1.599575 S    
C67   Cl31  1.765831 S    
O101  H65   0.991978 S    
Zn4   O5    1.932845 S    
C85   C117  1.431383 A    
O20   C16   1.280084 A    
C67   C75   1.416619 A    
O10   C6    1.279343 A    
O23   C2    1.283218 A    
Zn11  O25   1.927115 S    
C131  C143  1.408584 A    
O73   H37   0.992495 S    
Zn10  O38   1.951638 S    
C129  C141  1.406581 A    
O14   C10   1.286108 A    
C68   Cl32  1.776119 S    
C134  C138  1.406609 A    
O85   H49   0.986979 S    
O87   H51   0.993479 S    
C161  C162  1.401790 A    
C29   O57   1.416277 S    
C139  O91   1.381358 S    
O45   C23   1.281173 A    
