data_mof_unit_37067.cif
_audit_creation_date              2012-12-11T15:52:37-0500
_audit_creation_method            fapswitch 2.2
_symmetry_space_group_name_H-M    P1
_symmetry_Int_Tables_number       1
_space_group_crystal_system       triclinic
_cell_length_a                    6.922167
_cell_length_b                    14.569921
_cell_length_c                    16.038365
_cell_angle_alpha                 90.245987
_cell_angle_beta                  90.091401
_cell_angle_gamma                 90.084362
_cell_volume                      1617.53740432

loop_
_atom_site_label
_atom_site_type_symbol
_atom_type_description
_atom_site_fract_x
_atom_site_fract_y
_atom_site_fract_z
_atom_type_partial_charge
O1    O     O_R   0.494400 0.415640 0.412830 -0.549164
O2    O     O_R   0.823920 0.405510 0.586560 -0.543041
O3    O     O_R   0.994250 0.584360 0.587170 -0.546108
C1    C     C_R   0.654816 0.383631 0.615436 0.687727
O4    O     O_R   0.824110 0.404610 0.413450 -0.529305
O5    O     O_R   0.994440 0.583460 0.412820 -0.545345
C2    C     C_R   0.654147 0.379712 0.386579 0.681272
O6    O     O_R   0.494210 0.416540 0.587180 -0.548694
O7    O     O_3   0.660810 0.558680 0.500000 -0.368763
V1    V     V_3+5 0.935650 0.489110 0.500000 1.434102
O8    O     O_R   0.324150 0.594490 0.413440 -0.535032
C3    C     C_R   0.155035 0.616510 0.384452 0.728576
O9    O     O_R   0.323970 0.595390 0.586550 -0.541569
C4    C     C_R   0.154897 0.617290 0.615597 0.707645
V2    V     V_3+5 0.435660 0.510890 0.500000 1.429914
O10   O     O_3   0.160630 0.441320 0.500000 -0.373378
C5    C     C_3   0.929493 0.708177 0.710349 -0.320935
H1    H     H_    0.845218 0.728839 0.654450 0.129337
H2    H     H_    0.857079 0.645715 0.734648 0.170565
C6    C     C_3   0.917231 0.785235 0.776277 -0.313947
H3    H     H_    0.817754 0.763857 0.826835 0.196308
H4    H     H_    0.848934 0.846620 0.747951 0.119998
C7    C     C_3   0.245187 0.778571 0.661034 -0.225260
C8    C     C_3   0.249983 0.649970 0.766843 -0.010034
C9    C     C_3   0.143930 0.686603 0.686791 0.001303
H5    H     H_    0.407442 0.648935 0.752261 0.113730
C10   C     C_3   0.121704 0.809993 0.810783 -0.033324
C11   C     C_3   0.245071 0.848351 0.736364 -0.215833
C12   C     C_3   0.223251 0.719779 0.841575 -0.090110
H6    H     H_    0.371460 0.739354 0.862386 0.045798
H7    H     H_    0.399474 0.762617 0.647249 0.141667
H8    H     H_    0.397499 0.853110 0.758743 0.143836
C13   C     C_R   0.966964 0.795603 0.232787 -0.175923
H9    H     H_    0.836017 0.834888 0.224361 0.131133
C14   C     C_R   0.975333 0.732978 0.298675 -0.132798
H10   H     H_    0.849664 0.724711 0.338109 0.134371
C15   C     C_R   0.144815 0.683208 0.314652 -0.065890
C16   C     C_R   0.304318 0.695963 0.262214 -0.124001
H11   H     H_    0.434739 0.656764 0.273349 0.116980
C17   C     C_R   0.297163 0.757092 0.194529 0.145749
C18   C     C_R   0.126106 0.809279 0.179734 -0.056546
C19   C     C_R   0.806107 0.301008 0.735009 -0.134199
H12   H     H_    0.937878 0.339168 0.723435 0.118421
C20   C     C_R   0.799279 0.238620 0.801562 0.146808
C21   C     C_R   0.626502 0.187753 0.816830 -0.064767
C22   C     C_R   0.464652 0.205220 0.766280 -0.132983
H13   H     H_    0.331315 0.168380 0.775951 0.165827
C23   C     C_R   0.472723 0.268926 0.701479 -0.154750
H14   H     H_    0.344865 0.279799 0.663783 0.134286
C24   C     C_R   0.644431 0.316487 0.684454 -0.084313
C25   C     C_R   0.790538 0.307075 0.258993 -0.060226
H15   H     H_    0.910438 0.354574 0.265270 0.160590
C26   C     C_R   0.783398 0.247713 0.189551 -0.002664
C27   C     C_R   0.623462 0.187216 0.179568 -0.169738
C28   C     C_R   0.475276 0.189606 0.239317 -0.053675
H16   H     H_    0.355376 0.142101 0.233119 0.162868
C29   C     C_R   0.483249 0.248617 0.309112 -0.007671
C30   C     C_R   0.642261 0.309598 0.318524 -0.170328
O11   O     O_R   0.771300 0.080930 0.910090 -0.543805
O12   O     O_R   0.441270 0.092800 0.083770 -0.529547
O13   O     O_R   0.271080 0.913920 0.084380 -0.539871
C31   C     C_R   0.611230 0.117469 0.111017 0.676460
O14   O     O_R   0.441580 0.091910 0.910670 -0.537645
O15   O     O_R   0.271390 0.913020 0.910040 -0.540216
C32   C     C_R   0.611871 0.116421 0.883486 0.714042
O16   O     O_R   0.770990 0.081830 0.084440 -0.547366
O17   O     O_3   0.604750 0.938760 0.997250 -0.371198
V3    V     V_3+5 0.329850 0.008280 0.997210 1.441663
O18   O     O_R   0.941680 0.901940 0.910610 -0.540095
C33   C     C_R   0.110376 0.880024 0.881529 0.676069
O19   O     O_R   0.941370 0.902830 0.083720 -0.541785
C34   C     C_R   0.111559 0.879000 0.111572 0.698672
V4    V     V_3+5 0.829860 0.986420 0.997150 1.417919
O20   O     O_3   0.104830 0.056030 0.997180 -0.371192
C35   C     C_3   0.472663 0.762938 0.139042 -0.722050
H17   H     H_    0.430840 0.751882 0.072967 0.194835
H18   H     H_    0.542639 0.830982 0.146385 0.218923
H19   H     H_    0.582220 0.710144 0.154900 0.193781
C36   C     C_3   0.975879 0.231303 0.856191 -0.726825
H20   H     H_    0.087743 0.282839 0.839667 0.188512
H21   H     H_    0.935385 0.243965 0.921960 0.196151
H22   H     H_    0.041873 0.162436 0.849374 0.222992
C37   C     C_2   0.939600 0.254532 0.126458 0.386881
H23   H     H_    0.918752 0.228344 0.064012 0.047982
O21   O     O_2   0.093722 0.291177 0.143265 -0.532118
C38   C     C_2   0.329963 0.240776 0.373503 0.401425
H24   H     H_    0.354226 0.265430 0.436501 0.056035
O22   O     O_2   0.174755 0.204872 0.357282 -0.526514
C39   C     C_2   0.159961 0.816948 0.581133 0.393827
H25   H     H_    0.011666 0.840802 0.579376 0.048746
O23   O     O_2   0.257782 0.821693 0.518012 -0.524376
C40   C     C_2   0.188094 0.945089 0.711996 0.381369
H26   H     H_    0.040398 0.961106 0.694880 0.044367
O24   O     O_2   0.309106 0.006006 0.710639 -0.540369
C41   C     C_3   0.201895 0.548889 0.787969 -0.736026
H27   H     H_    0.250706 0.502303 0.737275 0.180632
H28   H     H_    0.280062 0.527820 0.845290 0.213306
H29   H     H_    0.044941 0.538075 0.797238 0.237420
C42   C     C_2   0.128791 0.679947 0.918935 0.379316
H30   H     H_    0.208647 0.678815 0.977124 0.029145
O25   O     O_2   0.964776 0.649110 0.917482 -0.537966

loop_
_geom_bond_atom_site_label_1
_geom_bond_atom_site_label_2
_ccdc_geom_bond_type
C28   H16   S    
O14   C32   A    
C10   C12   S    
V4    O20   S    
C14   H10   S    
C1    O6    A    
C41   H29   S    
C21   C22   A    
C12   H6    S    
O15   V3    S    
C14   C15   A    
C8    H5    S    
O5    C3    A    
C16   H11   S    
C38   O22   D    
V3    O20   S    
V2    O10   S    
C5    C6    S    
C29   C38   S    
O12   C31   A    
C3    C15   S    
C8    C12   S    
C5    H2    S    
C27   C28   A    
O8    V2    S    
C41   H27   S    
C7    C39   S    
O18   V4    S    
O17   V4    S    
O15   C33   A    
C39   O23   D    
O7    V1    S    
O11   V4    S    
C2    C30   S    
C23   C24   A    
O9    C4    A    
C19   C20   A    
C13   H9    S    
O4    C2    A    
C22   C23   A    
C12   C42   S    
C25   H15   S    
C11   H8    S    
C8    C9    S    
C8    C41   S    
C36   H21   S    
C31   O16   A    
C38   H24   S    
C27   C31   S    
C26   C27   A    
O16   V4    S    
O17   V3    S    
C1    C24   S    
C25   C26   A    
C7    H7    S    
O2    C1    A    
C35   H17   S    
C15   C16   A    
C37   H23   S    
C40   O24   D    
C5    H1    S    
C11   C40   S    
C25   C30   A    
C7    C11   S    
C35   H18   S    
C10   C33   S    
C19   C24   A    
C18   C34   S    
O1    V2    S    
O13   C34   A    
C23   H14   S    
C37   O21   D    
C6    H4    S    
O6    V2    S    
C28   C29   A    
C21   C32   S    
C19   H12   S    
O2    V1    S    
C20   C21   A    
O19   V4    S    
C22   H13   S    
C17   C18   A    
C42   O25   D    
O1    C2    A    
C20   C36   S    
O5    V1    S    
C36   H22   S    
O8    C3    A    
C41   H28   S    
C6    C10   S    
O3    C4    A    
O14   V3    S    
C17   C35   S    
C26   C37   S    
C13   C18   A    
O9    V2    S    
O7    V2    S    
C5    C9    S    
O4    V1    S    
O3    V1    S    
V1    O10   S    
C42   H30   S    
O11   C32   A    
C16   C17   A    
O13   V3    S    
C29   C30   A    
C40   H26   S    
C13   C14   A    
C7    C9    S    
C4    C9    S    
O18   C33   A    
C35   H19   S    
C36   H20   S    
O19   C34   A    
C6    H3    S    
O12   V3    S    
C10   C11   S    
C39   H25   S    
