data_mof_unit_38098.cif
_audit_creation_date              2012-12-10T19:45:02-0500
_audit_creation_method            fapswitch 2.2
_symmetry_space_group_name_H-M    P1
_symmetry_Int_Tables_number       1
_space_group_crystal_system       triclinic
_cell_length_a                    15.083551
_cell_length_b                    10.833071
_cell_length_c                    13.677997
_cell_angle_alpha                 90.056315
_cell_angle_beta                  89.85534
_cell_angle_gamma                 89.728759
_cell_volume                      2234.96756099

loop_
_atom_site_label
_atom_site_type_symbol
_atom_type_description
_atom_site_fract_x
_atom_site_fract_y
_atom_site_fract_z
_atom_type_partial_charge
C1    C     C_R   0.497566 0.262138 0.499761 0.797253
C2    C     C_R   0.578900 0.879416 0.667702 0.123221
C3    C     C_R   0.459626 0.108118 0.239150 -0.160080
C4    C     C_R   0.540374 0.891881 0.760849 -0.160080
C5    C     C_R   0.421656 0.167184 0.158492 -0.142288
C6    C     C_R   0.578344 0.832815 0.841507 -0.142287
C7    C     C_R   0.344902 0.238501 0.170142 -0.103042
C8    C     C_R   0.655098 0.761498 0.829858 -0.103042
C9    C     C_R   0.468822 0.933350 0.419831 -0.232806
C10   C     C_R   0.531178 0.066650 0.580169 -0.232806
C11   C     C_R   0.504330 0.871729 0.500759 -0.081224
C12   C     C_R   0.502434 0.737861 0.500239 0.797253
C13   C     C_R   0.495670 0.128271 0.499240 -0.081224
C14   C     C_R   0.536815 0.938830 0.581730 0.000901
C15   C     C_R   0.463185 0.061169 0.418270 0.000901
C16   C     C_R   0.328452 0.500130 0.500105 0.804644
C17   C     C_R   0.671548 0.499870 0.499895 0.804645
C18   C     C_R   0.557329 0.424388 0.793040 0.009884
C19   C     C_R   0.442671 0.575612 0.206960 0.009883
C20   C     C_R   0.442743 0.575639 0.793451 0.044383
C21   C     C_R   0.557257 0.424360 0.206549 0.044383
C22   C     C_R   0.441426 0.577553 0.896558 -0.008940
C23   C     C_R   0.045422 0.483027 0.678033 0.598159
C24   C     C_R   0.558574 0.422447 0.103442 -0.008939
C25   C     C_R   0.500014 0.500011 0.948160 0.081783
C26   C     C_R   0.499985 0.499989 0.051839 0.081783
C27   C     C_R   0.558629 0.422483 0.896137 -0.011440
C28   C     C_R   0.441371 0.577517 0.103863 -0.011440
C29   C     C_R   0.383302 0.654965 0.949041 -0.192657
C30   C     C_R   0.616698 0.345035 0.050959 -0.192657
C31   C     C_R   0.383240 0.654901 0.051789 -0.204552
C32   C     C_R   0.616760 0.345099 0.948211 -0.204552
C33   C     C_R   0.814846 0.508234 0.411115 -0.187897
C34   C     C_R   0.954578 0.516975 0.321968 0.598160
C35   C     C_R   0.185154 0.491767 0.588885 -0.187898
C36   C     C_R   0.768354 0.499640 0.499752 -0.098344
C37   C     C_R   0.231646 0.500359 0.500248 -0.098342
C38   C     C_R   0.814486 0.490718 0.588319 -0.212596
C39   C     C_R   0.185513 0.509281 0.411681 -0.212596
C40   C     C_R   0.906788 0.491116 0.589013 0.045994
C41   C     C_R   0.093212 0.508883 0.410987 0.045993
C42   C     C_R   0.953514 0.499900 0.499824 -0.013335
C43   C     C_R   0.046486 0.500099 0.500175 -0.013332
C44   C     C_R   0.907343 0.508399 0.410330 -0.001165
C45   C     C_R   0.305421 0.249815 0.262293 -0.110608
C46   C     C_R   0.092657 0.491601 0.589670 -0.001168
C47   C     C_R   0.953008 0.482795 0.677476 -0.283938
C48   C     C_R   0.046992 0.517206 0.322524 -0.283938
C49   C     C_R   0.694579 0.750185 0.737707 -0.110607
C50   C     C_R   0.343114 0.190897 0.343190 -0.096551
C51   C     C_R   0.656886 0.809103 0.656810 -0.096552
C52   C     C_R   0.421100 0.120583 0.332298 0.123220
Cu1   Cu    Cu3+1 0.500010 0.499980 0.597420 0.949599
Cu2   Cu    Cu3+1 0.499990 0.500020 0.402580 0.949599
F1    F     F_    0.088489 0.474870 0.764884 -0.666956
F2    F     F_    0.911510 0.525136 0.235118 -0.666956
H1    H     H_    0.778949 0.515046 0.342772 0.204675
H2    H     H_    0.662075 0.284432 0.089355 0.149895
H3    H     H_    0.337765 0.715400 0.090499 0.145121
H4    H     H_    0.662235 0.284600 0.909501 0.145121
H5    H     H_    0.778663 0.483046 0.656856 0.147855
H6    H     H_    0.221337 0.516953 0.343144 0.147855
H7    H     H_    0.917552 0.476146 0.746280 0.173602
H8    H     H_    0.082448 0.523857 0.253721 0.173602
H9    H     H_    0.315992 0.284880 0.107749 0.140375
H10   H     H_    0.684007 0.715119 0.892251 0.140375
H11   H     H_    0.245653 0.304344 0.271024 0.128327
H12   H     H_    0.221051 0.484957 0.657229 0.204674
H13   H     H_    0.754347 0.695655 0.728976 0.128327
H14   H     H_    0.312232 0.201033 0.414350 0.108044
H15   H     H_    0.687768 0.798967 0.585650 0.108044
H16   H     H_    0.519715 0.054329 0.229380 0.129535
H17   H     H_    0.480285 0.945670 0.770620 0.129535
H18   H     H_    0.452133 0.158469 0.087071 0.140085
H19   H     H_    0.547867 0.841531 0.912928 0.140084
H20   H     H_    0.442545 0.881580 0.358540 0.153949
H21   H     H_    0.557455 0.118420 0.641460 0.153950
H22   H     H_    0.601958 0.365400 0.751858 0.123741
H23   H     H_    0.398042 0.634600 0.248142 0.123741
H24   H     H_    0.398332 0.634920 0.752594 0.130136
H25   H     H_    0.601667 0.365079 0.247406 0.130136
H26   H     H_    0.337925 0.715568 0.910645 0.149895
N1    N     N_R   0.499960 0.499900 0.743810 -0.182557
N2    N     N_R   0.500040 0.500100 0.256190 -0.182557
O1    O     O_R   0.500000 0.319630 0.582270 -0.588373
O2    O     O_R   0.500000 0.680370 0.417730 -0.588373
O3    O     O_R   0.499990 0.319660 0.417730 -0.574063
O4    O     O_R   0.500010 0.680340 0.582270 -0.574062
O5    O     O_R   0.370260 0.499960 0.582280 -0.588952
O6    O     O_R   0.629740 0.500040 0.417720 -0.588952
O7    O     O_R   0.370250 0.499990 0.417740 -0.588798
O8    O     O_R   0.629750 0.500010 0.582260 -0.588798

loop_
_geom_bond_atom_site_label_1
_geom_bond_atom_site_label_2
_ccdc_geom_bond_type
C1    O3    A    
C40   C47   A    
C30   C32   A    
C34   F2    S    
C22   C29   A    
Cu2   N2    S    
C6    H19   S    
C39   C41   A    
Cu1   Cu2   S    
C8    H10   S    
C42   C44   A    
C7    C45   A    
C35   C37   A    
C24   C26   A    
Cu2   O6    S    
C47   H7    S    
Cu2   O3    S    
C11   C14   A    
C48   H8    S    
C33   C36   A    
C31   H3    S    
C5    H18   S    
C49   C51   A    
C22   C25   A    
C45   H11   S    
C50   C52   A    
C9    H20   S    
C16   C37   S    
C38   H5    S    
C40   C42   A    
C16   O5    A    
C23   C46   A    
C49   H13   S    
C41   C43   A    
C17   O8    A    
C51   H15   S    
C10   H21   S    
C17   O6    A    
C1    O1    A    
C23   C47   A    
C20   H24   S    
C34   C44   A    
C4    C6    A    
C10   C14   A    
Cu2   O2    S    
C12   O4    A    
C6    C8    A    
C25   C26   A    
C2    C4    A    
C7    H9    S    
C21   N2    A    
C18   H22   S    
Cu1   O8    S    
C18   N1    A    
C15   C52   S    
C19   H23   S    
C19   C28   A    
C9    C11   A    
C4    H17   S    
C17   C36   S    
C21   H25   S    
C13   C15   A    
Cu1   O5    S    
C21   C24   A    
C1    C13   S    
C42   C43   A    
C32   H4    S    
C19   N2    A    
C5    C7    A    
C39   H6    S    
C33   H1    S    
C27   C32   A    
C33   C44   A    
C28   C31   A    
C18   C27   A    
C20   C22   A    
C3    C5    A    
C10   C13   A    
C3    C52   A    
C23   F1    S    
C25   C27   A    
C26   C28   A    
C12   O2    A    
Cu1   N1    S    
C36   C38   A    
C3    H16   S    
C9    C15   A    
Cu2   O7    S    
C29   C31   A    
C38   C40   A    
C35   H12   S    
C30   H2    S    
C41   C48   A    
Cu1   O4    S    
C50   H14   S    
C2    C14   S    
C43   C46   A    
C24   C30   A    
C2    C51   A    
C29   H26   S    
C34   C48   A    
C16   O7    A    
C37   C39   A    
C20   N1    A    
Cu1   O1    S    
C45   C50   A    
C35   C46   A    
C8    C49   A    
C11   C12   S    
