data_mof_unit_16060.cif
_audit_creation_date              2013-03-05T16:06:20-0500
_audit_creation_method            fapswitch 2.2
_symmetry_space_group_name_H-M    P1
_symmetry_Int_Tables_number       1
_space_group_crystal_system       triclinic
_cell_length_a                    11.063141
_cell_length_b                    9.660309
_cell_length_c                    27.819033
_cell_angle_alpha                 90.373909
_cell_angle_beta                  92.523056
_cell_angle_gamma                 90.523474
_cell_volume                      2970.03598165

loop_
_atom_site_label
_atom_site_type_symbol
_atom_site_description
_atom_site_fract_x
_atom_site_fract_y
_atom_site_fract_z
_atom_type_partial_charge
O1    O     O_R   0.319640 0.618740 0.500000 -0.541127
O2    O     O_R   0.680360 0.381260 0.500000 -0.530270
O3    O     O_R   0.680360 0.618740 0.500000 -0.549728
O4    O     O_R   0.319640 0.381260 0.500000 -0.531397
C1    C     C_R   0.262691 0.499275 0.502303 0.887096
C2    C     C_R   0.737559 0.500536 0.498270 0.882094
O5    O     O_R   0.500020 0.618770 0.430260 -0.545285
O6    O     O_R   0.499980 0.381230 0.569740 -0.535798
O7    O     O_R   0.499980 0.618770 0.569740 -0.539635
O8    O     O_R   0.500020 0.381230 0.430260 -0.530686
C3    C     C_R   0.499718 0.498750 0.407622 0.956833
C4    C     C_R   0.498752 0.499485 0.592360 0.952512
Cu1   Cu    Cu3+1 0.500000 0.640660 0.500000 1.151084
Cu2   Cu    Cu3+1 0.500000 0.359340 0.500000 1.162245
C5    C     C_R   0.391457 0.428602 0.176099 0.719336
C6    C     C_R   0.592703 0.430163 0.823213 0.717885
O9    O     O_2   0.292583 0.392781 0.199987 -0.386813
O10   O     O_2   0.692009 0.398371 0.799133 -0.387184
N1    N     N_R   0.497950 0.455830 0.201399 -0.440267
N2    N     N_R   0.486297 0.454717 0.797971 -0.440375
C7    C     C_R   0.603173 0.471681 0.177893 0.712830
C8    C     C_R   0.380644 0.466817 0.821308 0.715133
C9    C     C_R   0.574821 0.381615 0.282204 0.244776
C10   C     C_R   0.414316 0.379990 0.716093 0.245587
C11   C     C_R   0.579371 0.397861 0.332823 0.277091
C12   C     C_R   0.413856 0.395914 0.665568 0.278099
C13   C     C_R   0.417943 0.568098 0.326098 0.287427
C14   C     C_R   0.569585 0.576012 0.675168 0.286524
C15   C     C_R   0.422730 0.563729 0.275360 0.234457
C16   C     C_R   0.561351 0.570085 0.725715 0.234905
C17   C     C_R   0.499122 0.467729 0.253362 0.036244
C18   C     C_R   0.486302 0.469155 0.746197 0.036857
C19   C     C_R   0.494498 0.437092 0.101217 -0.126652
C20   C     C_R   0.489046 0.435906 0.898036 -0.125374
C21   C     C_R   0.385563 0.437561 0.125431 -0.146293
C22   C     C_R   0.598221 0.438401 0.873924 -0.145250
C23   C     C_R   0.275508 0.452970 0.098698 0.235308
C24   C     C_R   0.708234 0.455502 0.900835 0.236021
C25   C     C_R   0.605351 0.444667 0.128003 -0.148940
C26   C     C_R   0.378258 0.440737 0.871172 -0.149754
C27   C     C_R   0.501310 0.491854 0.354495 -0.164233
C28   C     C_R   0.491914 0.493842 0.645349 -0.160532
C29   C     C_R   0.380165 0.416764 0.972502 -0.018681
C30   C     C_R   0.603011 0.418863 0.026703 -0.018607
C31   C     C_R   0.602233 0.436009 0.975840 0.042411
C32   C     C_R   0.381026 0.434313 0.023467 0.042542
C33   C     C_R   0.490561 0.429002 0.948902 -0.024202
C34   C     C_R   0.492735 0.429528 0.050345 -0.024420
C35   C     C_R   0.273061 0.386290 0.944085 0.276240
C36   C     C_R   0.710017 0.390293 0.054978 0.276823
C37   C     C_R   0.270007 0.413189 0.894374 0.229409
C38   C     C_R   0.713425 0.418377 0.104731 0.230300
O11   O     O_2   0.279272 0.504587 0.796302 -0.395042
O12   O     O_2   0.704394 0.513783 0.202747 -0.397261
C39   C     C_R   0.275096 0.465902 0.048181 0.377854
C40   C     C_R   0.708411 0.469035 0.951348 0.377443
C41   C     C_R   0.061753 0.372183 0.500142 0.229793
C42   C     C_R   0.939089 0.626489 0.502432 0.225626
C43   C     C_R   0.935225 0.374417 0.493955 0.236636
C44   C     C_R   0.065547 0.623992 0.508816 0.234758
C45   C     C_R   0.872056 0.501127 0.496758 -0.318698
C46   C     C_R   0.128590 0.497813 0.505091 -0.317022
C47   C     C_R   0.452291 0.072902 0.461464 0.324932
C48   C     C_R   0.545585 0.928499 0.538740 0.316420
C49   C     C_R   0.548543 0.075569 0.538341 0.327989
C50   C     C_R   0.452934 0.925662 0.461495 0.313278
N3    N     N_R   0.500000 0.852070 0.500000 -0.310675
N4    N     N_R   0.500000 0.147930 0.500000 -0.307752
O13   O     O_3   0.329120 0.638603 0.349154 -0.613458
H1    H     H_    0.288629 0.704708 0.327015 0.410724
O14   O     O_3   0.656837 0.654196 0.653764 -0.610244
H2    H     H_    0.689937 0.725298 0.676488 0.411817
N5    N     N_R   0.401606 0.141488 0.419913 0.181202
O15   O     O_R   0.300683 0.208225 0.422011 -0.261024
O16   O     O_R   0.453069 0.131581 0.378908 -0.269569
N6    N     N_R   0.587425 0.862472 0.581636 0.183192
O17   O     O_R   0.703367 0.853848 0.590552 -0.225474
O18   O     O_R   0.515408 0.858704 0.617397 -0.266705
N7    N     N_R   0.603356 0.146901 0.579128 0.181269
O19   O     O_R   0.707815 0.207781 0.575978 -0.259061
O20   O     O_R   0.556670 0.136673 0.621078 -0.267665
N8    N     N_R   0.400188 0.855759 0.420598 0.184226
O21   O     O_R   0.457528 0.856936 0.380750 -0.268676
O22   O     O_R   0.285112 0.826958 0.419304 -0.235570
N9    N     N_R   0.351135 0.656484 0.245951 0.148541
O23   O     O_R   0.233536 0.649868 0.245502 -0.208546
O24   O     O_R   0.403192 0.736121 0.215330 -0.268151
N10   N     N_R   0.629487 0.665031 0.756549 0.146423
O25   O     O_R   0.747210 0.665393 0.757443 -0.207200
O26   O     O_R   0.574404 0.739702 0.787778 -0.270784
N11   N     N_R   0.164653 0.464875 0.122655 0.158436
O27   O     O_R   0.098730 0.354779 0.128632 -0.166558
O28   O     O_R   0.139353 0.579855 0.144463 -0.198758
N12   N     N_R   0.819597 0.467123 0.877146 0.158597
O29   O     O_R   0.882594 0.356470 0.870103 -0.166201
O30   O     O_R   0.848384 0.582838 0.856705 -0.200018
O31   O     O_3   0.340454 0.315732 0.634670 -0.629442
H3    H     H_    0.314198 0.231068 0.651174 0.403594
O32   O     O_3   0.656855 0.321622 0.362441 -0.622172
H4    H     H_    0.682577 0.237611 0.345364 0.405750
N13   N     N_R   0.342934 0.272921 0.736977 0.151375
O33   O     O_R   0.226156 0.268818 0.728969 -0.208855
O34   O     O_R   0.393392 0.185193 0.766753 -0.264499
N14   N     N_R   0.646204 0.277678 0.259934 0.150841
O35   O     O_R   0.763346 0.277961 0.266785 -0.208250
O36   O     O_R   0.595109 0.188568 0.230026 -0.265931
N15   N     N_R   0.158341 0.399586 0.867007 0.200288
O37   O     O_R   0.133168 0.285672 0.843298 -0.178664
O38   O     O_R   0.093059 0.508961 0.859108 -0.177748
N16   N     N_R   0.824951 0.406331 0.132082 0.200408
O39   O     O_R   0.848114 0.294052 0.156215 -0.177529
O40   O     O_R   0.892326 0.515970 0.139503 -0.179417
N17   N     N_R   0.174886 0.309432 0.963997 0.185070
O41   O     O_R   0.062797 0.336382 0.951668 -0.197362
O42   O     O_R   0.197868 0.208916 0.993861 -0.267843
N18   N     N_R   0.807415 0.313917 0.034841 0.184852
O43   O     O_R   0.919775 0.341894 0.047259 -0.200446
O44   O     O_R   0.783415 0.212896 0.004628 -0.267415
O45   O     O_3   0.176670 0.520842 0.022670 -0.655167
H5    H     H_    0.113912 0.550573 0.044673 0.391755
O46   O     O_3   0.807105 0.525427 0.977143 -0.655996
H6    H     H_    0.870456 0.555186 0.955335 0.391379
N19   N     N_R   0.120636 0.240322 0.502687 0.191366
O47   O     O_R   0.172854 0.201423 0.543141 -0.243679
O48   O     O_R   0.101632 0.149415 0.468412 -0.181349
N20   N     N_R   0.880373 0.758387 0.501104 0.185355
O49   O     O_R   0.831464 0.802291 0.460683 -0.258024
O50   O     O_R   0.897369 0.845041 0.536779 -0.182081
N21   N     N_R   0.872148 0.246418 0.483372 0.188190
O51   O     O_R   0.819902 0.226648 0.441052 -0.250680
O52   O     O_R   0.881626 0.143113 0.513013 -0.184634
N22   N     N_R   0.128849 0.750801 0.520971 0.185988
O53   O     O_R   0.184625 0.764834 0.562917 -0.268763
O54   O     O_R   0.121337 0.856409 0.492284 -0.185877

loop_
_geom_bond_atom_site_label_1
_geom_bond_atom_site_label_2
_geom_bond_distance
_ccdc_geom_bond_type
C35   N17   1.442694 S    
N20   O49   1.301512 A    
C49   N7    1.432339 S    
C13   C15   1.415191 A    
N5    O16   1.300487 A    
N5    O15   1.297719 A    
O3    C2    1.312184 A    
N1    C17   1.448855 S    
C44   N22   1.436488 S    
N14   O36   1.301192 A    
O31   H3    0.988130 S    
N19   O47   1.301437 A    
C39   O45   1.385098 S    
N9    O23   1.301508 A    
C5    N1    1.368023 A    
C19   C25   1.407776 A    
O1    C1    1.313075 A    
N6    O18   1.302132 A    
C2    C45   1.490363 S    
N1    C7    1.367931 A    
C10   C12   1.414741 A    
N21   O51   1.300676 A    
N2    C18   1.447948 S    
C7    O12   1.348082 S    
N19   O48   1.301001 A    
C41   N19   1.436747 S    
C42   C44   1.402923 A    
N18   O43   1.300929 A    
C44   C46   1.415357 A    
C10   N13   1.436764 S    
O7    Cu1   1.952971 S    
N16   O39   1.300873 A    
C4    C28   1.480698 S    
C11   O32   1.383265 S    
O32   H4    0.988140 S    
C31   C40   1.418557 A    
N22   O53   1.301458 A    
C35   C37   1.407805 A    
C32   C39   1.419129 A    
C36   C38   1.407491 A    
N15   O37   1.300895 A    
C15   N9    1.437026 S    
C13   O13   1.379469 S    
C6    N2    1.367335 A    
C42   C45   1.418548 A    
N9    O24   1.301092 A    
C25   C38   1.408803 A    
C47   C50   1.422468 A    
N13   O34   1.301182 A    
Cu1   Cu2   2.717638 S    
N15   O38   1.299731 A    
O2    C2    1.311673 A    
O6    Cu2   1.950227 S    
C5    C21   1.411433 A    
N14   O35   1.301547 A    
C29   C32   1.426411 A    
N13   O33   1.301499 A    
C8    O11   1.347920 S    
C31   C33   1.417318 A    
C32   C34   1.417276 A    
C43   C45   1.418444 A    
C23   N11   1.426538 S    
C48   N3    1.376899 A    
C41   C46   1.418117 A    
C50   N3    1.375339 A    
N6    O17   1.299208 A    
O8    Cu2   1.952971 S    
C11   C27   1.409526 A    
N11   O27   1.299814 A    
N7    O20   1.300812 A    
C29   C35   1.422575 A    
C47   N5    1.431518 S    
N11   O28   1.300757 A    
C9    C17   1.414024 A    
O5    C3    1.315714 A    
C10   C18   1.413102 A    
C50   N8    1.419596 S    
C13   C27   1.404640 A    
C9    N14   1.437047 S    
C7    C25   1.411836 A    
C38   N16   1.426864 S    
O6    C4    1.301094 A    
C49   N4    1.371447 A    
C8    C26   1.412833 A    
C24   N12   1.426418 S    
C48   N6    1.418394 S    
N12   O29   1.299869 A    
C6    O10   1.348446 S    
N12   O30   1.300805 A    
O46   H6    0.988905 S    
N22   O54   1.300359 A    
N10   O26   1.301115 A    
C42   N20   1.435432 S    
N8    O22   1.299556 A    
C20   C26   1.408463 A    
C14   O14   1.378373 S    
O1    Cu1   2.004628 S    
C16   N10   1.437157 S    
C30   C31   1.425340 A    
C12   C28   1.411330 A    
N17   O41   1.301070 A    
Cu1   N3    2.042286 S    
C30   C36   1.422374 A    
C5    O9    1.348312 S    
C47   N4    1.373405 A    
C43   N21   1.436665 S    
N20   O50   1.300348 A    
C21   C23   1.408088 A    
N2    C8    1.367362 A    
O4    C1    1.310153 A    
O3    Cu1   2.008476 S    
O45   H5    0.988923 S    
C14   C16   1.414587 A    
C26   C37   1.409300 A    
C40   O46   1.385256 S    
C22   C24   1.408388 A    
O14   H2    0.987337 S    
C15   C17   1.414646 A    
C48   C49   1.420941 A    
C16   C18   1.413793 A    
C14   C28   1.404565 A    
C19   C21   1.406320 A    
C20   C22   1.407254 A    
N18   O44   1.301610 A    
C1    C46   1.488948 S    
C3    C27   1.479914 S    
C36   N18   1.442750 S    
C9    C11   1.414492 A    
O4    Cu2   2.008476 S    
O13   H1    0.986847 S    
O2    Cu2   2.004628 S    
O7    C4    1.316802 A    
N16   O40   1.299682 A    
C41   C43   1.403176 A    
O8    C3    1.301798 A    
C12   O31   1.384415 S    
N7    O19   1.298552 A    
C23   C39   1.411493 A    
O5    Cu1   1.950227 S    
C24   C40   1.410364 A    
N10   O25   1.301506 A    
C37   N15   1.426853 S    
N8    O21   1.301285 A    
C19   C34   1.415897 A    
Cu2   N4    2.042287 S    
C20   C33   1.416407 A    
N17   O42   1.301597 A    
C29   C33   1.416205 A    
C6    C22   1.411061 A    
C30   C34   1.415498 A    
N21   O52   1.300722 A    
