data_mof_unit_21929.cif
_audit_creation_date              2013-03-05T15:45:11-0500
_audit_creation_method            fapswitch 2.2
_symmetry_space_group_name_H-M    P1
_symmetry_Int_Tables_number       1
_space_group_crystal_system       triclinic
_cell_length_a                    11.541687
_cell_length_b                    11.512148
_cell_length_c                    19.51881
_cell_angle_alpha                 90.420576
_cell_angle_beta                  89.881399
_cell_angle_gamma                 60.051462
_cell_volume                      2247.0533795

loop_
_atom_site_label
_atom_site_type_symbol
_atom_site_description
_atom_site_fract_x
_atom_site_fract_y
_atom_site_fract_z
_atom_type_partial_charge
O1    O     O_R   0.267740 0.231990 0.575440 -0.495992
O2    O     O_R   0.527280 0.186680 0.570530 -0.491710
C1    C     C_R   0.640415 0.117612 0.599175 0.551282
O3    O     O_R   0.728090 0.003480 0.576380 -0.494684
O4    O     O_R   0.682970 0.789220 0.570490 -0.484069
C2    C     C_R   0.612474 0.745684 0.598506 0.553782
O5    O     O_R   0.499290 0.771920 0.575530 -0.498252
O6    O     O_R   0.285330 0.030900 0.569730 -0.490116
C3    C     C_R   0.240360 0.145530 0.598039 0.550463
O7    O     O_R   0.270980 0.227040 0.423900 -0.497367
O8    O     O_R   0.530280 0.182090 0.430050 -0.504578
C4    C     C_R   0.644375 0.110525 0.401694 0.551829
O9    O     O_R   0.731330 0.998530 0.424830 -0.487160
O10   O     O_R   0.685970 0.784630 0.430010 -0.457289
C5    C     C_R   0.582649 0.801063 0.395485 0.534632
O11   O     O_R   0.502530 0.766960 0.423990 -0.453749
O12   O     O_R   0.288330 0.026310 0.429250 -0.463011
C6    C     C_R   0.245913 0.140616 0.399844 0.557097
Cr1   Cr    Cr6+3 0.404720 0.198220 0.499960 1.067409
Cr2   Cr    Cr6+3 0.698290 0.897110 0.500380 1.098985
Cr3   Cr    Cr6+3 0.396970 0.904720 0.499610 1.110739
O13   O     O_3   0.499990 0.000020 0.499980 -0.315875
C7    C     C_1   0.670660 0.646935 0.860169 0.013306
C8    C     C_1   0.654791 0.683472 0.728343 -0.028829
C9    C     C_1   0.663679 0.666879 0.799656 -0.027647
C10   C     C_1   0.641100 0.703503 0.667860 0.006417
C11   C     C_1   0.127263 0.198643 0.859390 0.011999
C12   C     C_1   0.171166 0.170255 0.727674 -0.028041
C13   C     C_1   0.150400 0.182125 0.798961 -0.027994
C14   C     C_1   0.194641 0.161024 0.667259 0.008516
C15   C     C_1   0.678650 0.191034 0.860868 0.012020
C16   C     C_1   0.658333 0.167542 0.729022 -0.027887
C17   C     C_1   0.665614 0.180856 0.800386 -0.027761
C18   C     C_1   0.652736 0.150142 0.668568 0.008491
C19   C     C_R   0.555222 0.843492 0.273962 -0.169776
H1    H     H_    0.486888 0.948663 0.284801 0.095279
C20   C     C_R   0.578244 0.798290 0.206910 -0.148741
H2    H     H_    0.526748 0.867963 0.165839 0.170018
C21   C     C_R   0.667095 0.663349 0.193162 0.011633
C22   C     C_R   0.733578 0.570521 0.246361 0.214162
C23   C     C_R   0.704215 0.615380 0.314273 0.096522
C24   C     C_R   0.616703 0.752510 0.326890 -0.008119
C25   C     C_R   0.206410 0.266254 0.289997 0.000040
C26   C     C_R   0.212290 0.259703 0.218423 -0.012093
C27   C     C_R   0.173808 0.176545 0.184721 -0.034880
C28   C     C_R   0.174928 0.068778 0.220314 0.015510
C29   C     C_R   0.185704 0.063886 0.292164 0.162689
C30   C     C_R   0.200879 0.162601 0.327664 -0.023667
C31   C     C_R   0.719882 0.031608 0.284826 -0.112419
H3    H     H_    0.763726 0.929541 0.303000 0.190178
C32   C     C_R   0.715393 0.054204 0.214872 0.031580
C33   C     C_R   0.657485 0.187897 0.191479 -0.004052
C34   C     C_R   0.585127 0.296954 0.238602 0.049843
C35   C     C_R   0.591507 0.269580 0.308216 -0.060762
H4    H     H_    0.539137 0.350446 0.345044 0.212606
C36   C     C_R   0.660233 0.138749 0.331333 -0.005703
O14   O     O_R   0.821500 0.119550 0.952820 -0.499441
O15   O     O_R   0.037130 0.162750 0.957360 -0.501513
C37   C     C_R   0.082308 0.231043 0.928706 0.544565
O16   O     O_R   0.056440 0.344950 0.951330 -0.508000
O17   O     O_R   0.797900 0.560570 0.957460 -0.500678
C38   C     C_R   0.683874 0.604960 0.929572 0.543594
O18   O     O_R   0.596140 0.579600 0.952720 -0.506980
O19   O     O_R   0.639070 0.321380 0.958660 -0.504302
C39   C     C_R   0.708343 0.206647 0.930201 0.549201
O20   O     O_R   0.821240 0.124490 0.104360 -0.453463
O21   O     O_R   0.036900 0.167320 0.097830 -0.460591
C40   C     C_R   0.092029 0.230283 0.122182 0.628957
O22   O     O_R   0.056190 0.349890 0.102870 -0.469795
O23   O     O_R   0.797670 0.565150 0.097930 -0.477556
C41   C     C_R   0.681649 0.615225 0.124165 0.589018
O24   O     O_R   0.595880 0.584540 0.104260 -0.465368
O25   O     O_R   0.638830 0.325960 0.099140 -0.455628
C42   C     C_R   0.703927 0.210637 0.125517 0.626562
Cr4   Cr    Cr6+3 0.926180 0.152240 0.028110 1.119023
Cr5   Cr    Cr6+3 0.921340 0.452070 0.027460 1.097313
Cr6   Cr    Cr6+3 0.626260 0.447120 0.028700 1.105734
O26   O     O_3   0.824590 0.350480 0.028090 -0.267882
C43   C     C_2   0.769543 0.936049 0.167733 0.596066
O27   O     O_2   0.725172 0.947598 0.109770 -0.517768
O28   O     O_R   0.868509 0.810308 0.190479 -0.638686
H5    H     H_    0.896056 0.737681 0.154153 0.358810
C44   C     C_2   0.501100 0.440651 0.219621 0.662293
O29   O     O_2   0.433486 0.472796 0.167803 -0.460340
O30   O     O_R   0.490670 0.540633 0.264439 -0.668906
H6    H     H_    0.430941 0.633931 0.245948 0.375217
N1    N     N_R   0.826971 0.431102 0.232155 0.073522
O31   O     O_R   0.927804 0.363340 0.272284 -0.336185
O32   O     O_R   0.805844 0.367248 0.183319 -0.341856
C45   C     C_2   0.752157 0.517386 0.371386 0.682309
O33   O     O_2   0.718866 0.432005 0.373733 -0.479600
O34   O     O_R   0.837337 0.520526 0.421184 -0.616043
H7    H     H_    0.863716 0.447760 0.456635 0.339593
C46   C     C_2   0.189405 0.390214 0.323780 0.674617
O35   O     O_2   0.087605 0.461743 0.356668 -0.416228
O36   O     O_R   0.289586 0.423987 0.318793 -0.685384
H8    H     H_    0.265864 0.510410 0.344036 0.370224
C47   C     C_2   0.249122 0.344707 0.177045 0.627867
O37   O     O_2   0.195562 0.465523 0.187546 -0.415406
O38   O     O_R   0.336545 0.286269 0.121403 -0.695412
H9    H     H_    0.344734 0.354265 0.092226 0.360649
C48   C     C_2   0.166722 0.960423 0.182587 0.634789
O39   O     O_2   0.092440 0.920459 0.202723 -0.403536
O40   O     O_R   0.243864 0.905116 0.123318 -0.702615
H10   H     H_    0.230307 0.832210 0.102028 0.348294
N2    N     N_R   0.175470 0.962101 0.329224 0.116528
O41   O     O_R   0.077939 0.995565 0.372675 -0.272012
O42   O     O_R   0.265102 0.836437 0.320962 -0.308380

loop_
_geom_bond_atom_site_label_1
_geom_bond_atom_site_label_2
_geom_bond_distance
_ccdc_geom_bond_type
N1    O31   1.297203 A    
O11   Cr3   2.051121 S    
C11   C13   1.201418 T    
C23   C24   1.405069 A    
C19   H1    1.083893 S    
O28   H5    1.013811 S    
O4    Cr2   1.920900 S    
Cr6   O26   1.983602 S    
C33   C34   1.432715 A    
C28   C48   1.487279 S    
O8    Cr1   1.927699 S    
C20   H2    1.083836 S    
Cr5   O26   1.979628 S    
C22   N1    1.442117 S    
C12   C13   1.405469 S    
C19   C20   1.380126 A    
C8    C10   1.200099 T    
C33   C42   1.468231 S    
O4    C2    1.273409 A    
N2    O41   1.301197 A    
C5    O11   1.297059 A    
O20   C42   1.279970 A    
C25   C46   1.488556 S    
O22   Cr5   2.044394 S    
O25   C42   1.268009 A    
C19   C24   1.394537 A    
O34   H7    1.013881 S    
O24   Cr6   2.051973 S    
C35   H4    1.084106 S    
C26   C47   1.488683 S    
C7    C38   1.424342 S    
C29   C30   1.410655 A    
C40   O22   1.284029 A    
C31   C32   1.388073 A    
C15   C17   1.202638 T    
O23   C41   1.268762 A    
C25   C30   1.434310 A    
C23   C45   1.489749 S    
C37   O16   1.266387 A    
Cr3   O13   1.979862 S    
C48   O39   1.223225 D    
O40   H10   1.013835 S    
O15   Cr4   1.926478 S    
O12   C6    1.292198 A    
O17   Cr5   1.926943 S    
C35   C36   1.385598 A    
O1    Cr1   2.046819 S    
O21   C40   1.269986 A    
O10   Cr2   1.934450 S    
Cr1   O13   1.977438 S    
O1    C3    1.266905 A    
C8    C9    1.403368 S    
C21   C22   1.417696 A    
C43   O28   1.399244 S    
O6    C3    1.272951 A    
C1    C18   1.428828 S    
O15   C37   1.271753 A    
O30   H6    1.013199 S    
O16   Cr5   2.050320 S    
O12   Cr3   1.923689 S    
C32   C33   1.417220 A    
C16   C18   1.202685 T    
C46   O36   1.395179 S    
C25   C26   1.398192 A    
C38   O18   1.268836 A    
C45   O34   1.396990 S    
C44   O29   1.220401 D    
O7    Cr1   2.049916 S    
C29   N2    1.435446 S    
O36   H8    1.013830 S    
C27   C40   1.482059 S    
O6    Cr3   1.933463 S    
C46   O35   1.222200 D    
C48   O40   1.398337 S    
C4    C36   1.445703 S    
C3    C14   1.426618 S    
C22   C23   1.397136 A    
C44   O30   1.396788 S    
Cr2   O13   1.983630 S    
C47   O37   1.222896 D    
C47   O38   1.398995 S    
N1    O32   1.295428 A    
O23   Cr5   1.932445 S    
O21   Cr4   1.933985 S    
C1    O3    1.269001 A    
C26   C27   1.401067 A    
O18   Cr6   2.037705 S    
C15   C39   1.428646 S    
C28   C29   1.407245 A    
C21   C41   1.429703 S    
O9    Cr2   2.037325 S    
O2    Cr1   1.933666 S    
C5    C24   1.423725 S    
O14   C39   1.267827 A    
C6    C30   1.481893 S    
O8    C4    1.275250 A    
C34   C35   1.390885 A    
C2    O5    1.268601 A    
C31   C36   1.397318 A    
C34   C44   1.490975 S    
C16   C17   1.407490 S    
O14   Cr4   2.052848 S    
C12   C14   1.201405 T    
O2    C1    1.273885 A    
C41   O24   1.266652 A    
C20   C21   1.392493 A    
O5    Cr3   2.041007 S    
O19   C39   1.274901 A    
C45   O33   1.222101 D    
C2    C10   1.424357 S    
N2    O42   1.300257 A    
O7    C6    1.255052 A    
O20   Cr4   2.042042 S    
O38   H9    1.013012 S    
C7    C9    1.200091 T    
O17   C38   1.274759 A    
Cr4   O26   1.977721 S    
C32   C43   1.489238 S    
C43   O27   1.223337 D    
O3    Cr2   2.052884 S    
C27   C28   1.420803 A    
C4    O9    1.261723 A    
C31   H3    1.084329 S    
O19   Cr6   1.934581 S    
O25   Cr6   1.919335 S    
O10   C5    1.300737 A    
C11   C37   1.426648 S    
