data_mof_unit_59509.cif
_audit_creation_date              2013-03-05T15:59:35-0500
_audit_creation_method            fapswitch 2.2
_symmetry_space_group_name_H-M    P1
_symmetry_Int_Tables_number       1
_space_group_crystal_system       triclinic
_cell_length_a                    12.58414
_cell_length_b                    13.17355
_cell_length_c                    15.734986
_cell_angle_alpha                 90.945026
_cell_angle_beta                  103.025816
_cell_angle_gamma                 81.60603
_cell_volume                      2513.8021743

loop_
_atom_site_label
_atom_site_type_symbol
_atom_site_description
_atom_site_fract_x
_atom_site_fract_y
_atom_site_fract_z
_atom_type_partial_charge
O1    O     O_R   0.366730 0.627160 0.478790 -0.569372
O2    O     O_R   0.544830 0.662520 0.507160 -0.583588
C1    C     C_R   0.437863 0.691734 0.486482 0.920315
O3    O     O_R   0.410960 0.482330 0.609040 -0.577950
O4    O     O_R   0.589060 0.517690 0.637410 -0.568087
C2    C     C_R   0.501025 0.500986 0.661857 0.919887
Zn1   Zn    Zn3+2 0.381080 0.476390 0.481050 1.024871
Zn2   Zn    Zn3+2 0.618920 0.523610 0.518950 0.993610
O5    O     O_R   0.455170 0.337480 0.492840 -0.620562
O6    O     O_R   0.633270 0.372840 0.521210 -0.636112
O7    O     O_R   0.410940 0.482310 0.362590 -0.599423
O8    O     O_R   0.589040 0.517670 0.390960 -0.648441
C3    C     C_R   0.561731 0.308704 0.509680 0.860285
C4    C     C_R   0.498960 0.499102 0.338093 0.849862
C5    C     C_3   0.406851 0.557403 0.012274 -0.201259
C6    C     C_3   0.497461 0.598274 0.975064 -0.271570
H1    H     H_    0.495919 0.678197 0.953044 0.184830
H2    H     H_    0.331236 0.604298 0.024603 0.190998
C7    C     C_1   0.502966 0.503173 0.751123 -0.063808
C8    C     C_1   0.497027 0.496839 0.248755 -0.147278
C9    C     C_3   0.409560 0.462636 0.951816 -0.176147
C10   C     C_3   0.500977 0.502830 0.916884 0.006862
C11   C     C_3   0.500464 0.402738 0.022905 0.190996
C12   C     C_3   0.497767 0.495716 0.082550 -0.039338
C13   C     C_3   0.590755 0.441424 0.987165 0.344795
C14   C     C_3   0.587253 0.535636 0.045536 0.377856
C15   C     C_1   0.502749 0.504062 0.826369 0.112524
C16   C     C_1   0.496834 0.495558 0.173385 0.091489
H3    H     H_    0.336940 0.432563 0.911343 0.214401
C17   C     C_R   0.719328 0.055072 0.471892 -0.187151
H4    H     H_    0.759217 0.208133 0.484237 0.189030
H5    H     H_    0.712311 0.868765 0.405156 0.144204
H6    H     H_    0.792691 0.025942 0.448791 0.167262
C18   C     C_R   0.599766 0.199141 0.511524 -0.072857
C19   C     C_R   0.300589 0.841442 0.507955 0.179529
C20   C     C_R   0.294432 0.934763 0.552132 0.161019
C21   C     C_R   0.382822 0.991807 0.563949 0.116463
C22   C     C_R   0.467364 0.965268 0.516490 -0.058480
C23   C     C_R   0.474101 0.869686 0.474890 0.048549
C24   C     C_R   0.545686 0.029885 0.508573 0.143691
C25   C     C_R   0.639135 0.992180 0.474748 0.158237
C26   C     C_R   0.645143 0.896601 0.436094 -0.220939
C27   C     C_R   0.559453 0.839820 0.430400 -0.077920
C28   C     C_R   0.525407 0.134595 0.521804 -0.180818
C29   C     C_R   0.700330 0.158674 0.491757 -0.168435
C30   C     C_R   0.398690 0.802928 0.481866 -0.269279
H7    H     H_    0.445833 0.168803 0.531002 0.186670
H8    H     H_    0.561735 0.770671 0.392273 0.147046
C31   C     C_R   0.099401 0.326945 0.394931 0.412467
H9    H     H_    0.264713 0.321758 0.376783 0.156643
N1    N     N_R   0.222180 0.444680 0.455580 -0.134370
C32   C     C_R   0.802762 0.628060 0.604841 0.288057
C33   C     C_R   0.912102 0.644801 0.634911 0.260024
C34   C     C_R   0.996263 0.580645 0.606968 0.187324
C35   C     C_R   0.967324 0.516176 0.534580 -0.128873
C36   C     C_R   0.856342 0.499274 0.508472 0.076935
C37   C     C_R   0.044749 0.465520 0.489132 -0.075799
C38   C     C_R   0.017531 0.382492 0.433178 -0.022016
C39   C     C_R   0.909440 0.358310 0.416044 0.453855
C40   C     C_R   0.829927 0.420232 0.450776 -0.271755
C41   C     C_R   0.147588 0.497743 0.494944 0.091254
C42   C     C_R   0.201309 0.361465 0.406631 -0.122175
N2    N     N_R   0.776980 0.554790 0.543960 -0.190208
H10   H     H_    0.170192 0.565016 0.530080 0.202553
H11   H     H_    0.748597 0.402008 0.435408 0.201718
N3    N     N_R   0.212043 0.781787 0.497416 0.237800
O9    O     O_R   0.174225 0.759974 0.564180 -0.366808
O10   O     O_R   0.167536 0.750814 0.420407 -0.405732
N4    N     N_R   0.391069 0.068881 0.629928 0.230418
O11   O     O_R   0.481473 0.066958 0.689883 -0.313747
O12   O     O_R   0.309188 0.141826 0.629730 -0.345793
N5    N     N_R   0.202570 0.967051 0.591137 0.260027
O13   O     O_R   0.102556 0.979021 0.543396 -0.401491
O14   O     O_R   0.217698 0.972916 0.675539 -0.294372
O15   O     O_3   0.885841 0.268406 0.373117 -0.577421
C43   C     C_3   0.793162 0.287027 0.302504 0.108203
H12   H     H_    0.796309 0.355372 0.262797 0.145158
H13   H     H_    0.715467 0.297364 0.326033 0.133835
C44   C     C_3   0.791285 0.193655 0.244441 -0.766213
H14   H     H_    0.790783 0.124029 0.283151 0.254490
H15   H     H_    0.715965 0.204318 0.191106 0.234208
H16   H     H_    0.865099 0.182658 0.215871 0.258009
O16   O     O_3   0.077970 0.243956 0.341937 -0.577748
C45   C     C_3   0.141107 0.153465 0.383790 0.135354
H17   H     H_    0.133691 0.147793 0.452813 0.197685
H18   H     H_    0.229485 0.150580 0.382358 0.112303
C46   C     C_3   0.099687 0.060682 0.335881 -0.696874
H19   H     H_    0.104095 0.064568 0.266337 0.242313
H20   H     H_    0.151379 0.989221 0.366148 0.218317
H21   H     H_    0.012985 0.058601 0.339681 0.273864
N6    N     N_R   0.721658 0.678358 0.648048 0.262109
O17   O     O_R   0.723466 0.648046 0.726696 -0.348105
O18   O     O_R   0.674395 0.770823 0.623278 -0.394566
N7    N     N_R   0.105717 0.566284 0.662505 0.229798
O19   O     O_R   0.158431 0.473854 0.680736 -0.360102
O20   O     O_R   0.146668 0.642565 0.704783 -0.309440
O21   O     O_3   0.937159 0.713383 0.701326 -0.536684
C47   C     C_3   0.936994 0.809869 0.663269 0.148932
H22   H     H_    0.853102 0.841583 0.625583 0.157739
H23   H     H_    0.995019 0.804456 0.618906 0.206952
C48   C     C_3   0.973202 0.884697 0.734875 -0.603103
H24   H     H_    0.057964 0.856206 0.772465 0.278270
H25   H     H_    0.972799 0.960883 0.705503 0.227924
H26   H     H_    0.915895 0.893198 0.779743 0.246394
O22   O     O_3   0.678962 0.570460 0.100922 -0.619718
C49   C     C_3   0.739897 0.615123 0.050430 0.116843
H27   H     H_    0.693883 0.689996 0.022171 0.164500
H28   H     H_    0.758485 0.564132 0.996870 0.187273
C50   C     C_3   0.848947 0.634026 0.108750 -0.772176
H29   H     H_    0.896967 0.560160 0.137317 0.252367
H30   H     H_    0.897635 0.669801 0.069929 0.223968
H31   H     H_    0.833818 0.686229 0.162287 0.262995
O23   O     O_3   0.685428 0.385094 0.966121 -0.592215
C51   C     C_3   0.750765 0.329253 0.039958 0.108132
H32   H     H_    0.719553 0.255548 0.045136 0.194161
H33   H     H_    0.752181 0.371959 0.101786 0.149482
C52   C     C_3   0.868802 0.305622 0.029019 -0.748334
H34   H     H_    0.902224 0.378246 0.023911 0.256441
H35   H     H_    0.920964 0.260475 0.086254 0.212359
H36   H     H_    0.871579 0.260499 0.969108 0.275344
N8    N     N_R   0.500300 0.296801 0.047993 0.201775
O24   O     O_R   0.500197 0.225285 0.990040 -0.330279
O25   O     O_R   0.495929 0.273652 0.127021 -0.416925

loop_
_geom_bond_atom_site_label_1
_geom_bond_atom_site_label_2
_geom_bond_distance
_ccdc_geom_bond_type
C5    H2    1.110113 S    
N3    O10   1.301141 A    
C35   C36   1.413502 A    
C48   H24   1.111094 S    
C21   N4    1.437668 S    
C25   C26   1.388774 A    
C17   C29   1.393524 A    
C19   C20   1.403149 A    
N1    C41   1.345227 A    
C43   C44   1.519855 S    
C46   H19   1.110485 S    
C44   H16   1.110266 S    
C51   H32   1.109972 S    
C11   N8    1.456998 S    
C33   C34   1.402001 A    
Zn1   O7    1.987647 S    
C2    C7    1.399185 S    
C20   C21   1.408088 A    
C12   C14   1.537051 S    
C50   H30   1.110471 S    
O4    C2    1.299920 A    
O7    C4    1.300473 A    
C49   H27   1.112445 S    
C5    C6    1.556744 S    
N4    O12   1.301815 A    
O5    C3    1.306473 A    
C6    H1    1.109951 S    
C10   C13   1.534016 S    
C11   C12   1.531836 S    
C45   C46   1.520677 S    
C17   C25   1.404498 A    
C7    C15   1.184489 T    
C27   H8    1.082897 S    
C28   H7    1.076199 S    
N3    O9    1.299204 A    
C39   C40   1.399567 A    
C48   H25   1.110702 S    
C9    C10   1.542204 S    
N7    O19   1.301874 A    
N1    C42   1.352394 A    
O3    Zn1   1.966067 S    
C14   O22   1.410625 S    
O21   C47   1.413493 S    
C6    C14   1.542868 S    
N8    O25   1.300222 A    
C4    C8    1.400347 S    
C18   C28   1.389185 A    
C43   H12   1.114754 S    
N5    O14   1.301108 A    
C52   H36   1.110651 S    
N6    O17   1.300918 A    
C44   H15   1.108546 S    
C52   H35   1.110354 S    
C23   C27   1.415979 A    
C8    C16   1.185240 T    
C19   N3    1.433442 S    
C33   O21   1.382486 S    
C38   C39   1.408109 A    
C9    H3    1.110268 S    
O6    C3    1.304079 A    
C31   C38   1.415607 A    
C36   C40   1.397417 A    
O1    C1    1.307544 A    
C41   H10   1.076338 S    
O15   C43   1.412887 S    
C21   C22   1.432720 A    
C13   O23   1.411139 S    
N6    O18   1.299633 A    
O16   C45   1.414048 S    
C24   C28   1.386703 A    
Zn2   O8    1.966066 S    
C36   N2    1.367024 A    
C18   C29   1.399100 A    
C45   H17   1.115459 S    
N7    O20   1.300974 A    
N8    O24   1.300229 A    
C23   C30   1.407057 A    
O3    C2    1.298319 A    
C5    C12   1.542735 S    
O8    C4    1.298459 A    
C40   H11   1.059175 S    
C48   H26   1.111012 S    
C47   H23   1.112868 S    
C10   C15   1.429834 S    
C35   C37   1.419351 A    
H9    C42   1.081560 S    
C50   H31   1.110755 S    
C26   C27   1.385671 A    
C39   O15   1.390330 S    
C32   C33   1.399087 A    
O23   C51   1.409962 S    
Zn1   O5    1.920282 S    
C34   C35   1.422212 A    
C24   C25   1.419780 A    
C6    C10   1.544339 S    
C31   C42   1.395123 A    
C17   H6    1.083948 S    
O1    Zn1   1.968118 S    
O2    Zn2   1.920282 S    
C12   C16   1.432026 S    
C43   H13   1.110944 S    
N5    O13   1.301157 A    
C32   N2    1.369473 A    
O4    Zn2   1.987646 S    
C51   H33   1.113708 S    
C37   C41   1.403250 A    
C47   C48   1.520489 S    
O22   C49   1.409662 S    
C1    C30   1.473267 S    
C31   O16   1.384890 S    
C9    C11   1.539880 S    
O2    C1    1.312015 A    
C13   C14   1.533147 S    
Zn1   N1    2.051998 S    
C3    C18   1.451393 S    
C50   H29   1.111035 S    
C22   C24   1.419629 A    
C37   C38   1.424962 A    
C22   C23   1.409892 A    
C49   H28   1.113789 S    
C11   C13   1.527593 S    
N4    O11   1.301331 A    
C34   N7    1.443403 S    
C51   C52   1.520334 S    
Zn2   N2    2.039671 S    
C44   H14   1.110944 S    
C5    C9    1.558109 S    
Zn2   O6    1.968118 S    
C47   H22   1.112609 S    
H4    C29   1.081987 S    
C46   H21   1.110385 S    
C46   H20   1.110191 S    
H5    C26   1.083981 S    
C45   H18   1.112560 S    
C32   N6    1.429480 S    
C52   H34   1.110813 S    
C19   C30   1.410209 A    
C20   N5    1.435831 S    
C49   C50   1.520499 S    
