data_mof_unit_5304.cif
_audit_creation_date              2012-12-11T17:02:16-0500
_audit_creation_method            fapswitch 2.2
_symmetry_space_group_name_H-M    P1
_symmetry_Int_Tables_number       1
_space_group_crystal_system       triclinic
_cell_length_a                    21.644289
_cell_length_b                    7.078077
_cell_length_c                    14.858139
_cell_angle_alpha                 90.000133
_cell_angle_beta                  106.826935
_cell_angle_gamma                 90.00006
_cell_volume                      2178.80435687

loop_
_atom_site_label
_atom_site_type_symbol
_atom_type_description
_atom_site_fract_x
_atom_site_fract_y
_atom_site_fract_z
_atom_type_partial_charge
O1    O     O_R   0.585850 0.505770 0.002130 -0.539189
O2    O     O_R   0.414150 0.005770 0.997870 -0.539189
O3    O     O_R   0.467530 0.173560 0.861970 -0.530470
O4    O     O_R   0.532470 0.673560 0.138030 -0.530469
C1    C     C_R   0.455797 0.345141 0.824939 0.686411
C2    C     C_R   0.544204 0.845141 0.175061 0.686412
O5    O     O_R   0.588690 0.175900 0.993250 -0.546873
O6    O     O_R   0.411310 0.675900 0.006750 -0.546873
O7    O     O_R   0.536170 0.007950 0.130090 -0.533397
O8    O     O_R   0.463830 0.507950 0.869910 -0.533397
C3    C     C_R   0.615015 0.344777 0.997667 0.703540
C4    C     C_R   0.384985 0.844777 0.002333 0.703540
O9    O     O_3   0.482630 0.339970 0.044740 -0.374441
O10   O     O_3   0.517370 0.839970 0.955260 -0.374441
V1    V     V_3+5 0.503220 0.064200 0.991700 1.469681
V2    V     V_3+5 0.496780 0.564200 0.008300 1.469682
C5    C     C_R   0.278573 0.015101 0.966159 0.079574
C6    C     C_R   0.721427 0.515102 0.033840 0.079575
C7    C     C_R   0.315833 0.853737 0.998882 -0.076870
C8    C     C_R   0.684167 0.353737 0.001117 -0.076870
C9    C     C_R   0.284816 0.699874 0.027393 -0.156773
C10   C     C_R   0.715183 0.199874 0.972606 -0.156775
H1    H     H_    0.311919 0.574418 0.055349 0.157439
H2    H     H_    0.688080 0.074418 0.944650 0.157439
C11   C     C_R   0.219625 0.711520 0.026282 -0.155588
C12   C     C_R   0.780375 0.211520 0.973718 -0.155591
H3    H     H_    0.198097 0.594751 0.052557 0.183002
H4    H     H_    0.801903 0.094751 0.947442 0.183002
C13   C     C_R   0.183543 0.877465 0.997885 -0.063519
C14   C     C_R   0.816457 0.377464 0.002115 -0.063519
C15   C     C_R   0.214581 0.028015 0.968129 0.048121
C16   C     C_R   0.785419 0.528015 0.031871 0.048120
C17   C     C_3   0.223961 0.225382 0.004629 0.223841
C18   C     C_3   0.776039 0.725382 0.995371 0.223842
C19   C     C_3   0.292650 0.213768 0.998393 -0.427931
C20   C     C_3   0.707350 0.713768 0.001606 -0.427932
H5    H     H_    0.193022 0.327681 0.954826 0.084832
H6    H     H_    0.806979 0.827681 0.045174 0.084832
H7    H     H_    0.330536 0.224048 0.067214 0.207233
H8    H     H_    0.669464 0.724047 0.932785 0.207232
H9    H     H_    0.301132 0.304429 0.942011 0.142089
H10   H     H_    0.698868 0.804430 0.057988 0.142089
C21   C     C_R   0.924612 0.870654 0.723369 -0.120773
C22   C     C_R   0.075388 0.370655 0.276631 -0.120772
C23   C     C_R   0.568847 0.859975 0.277685 -0.052018
C24   C     C_R   0.431154 0.359974 0.722315 -0.052020
C25   C     C_R   0.923201 0.668943 0.590199 0.501150
C26   C     C_R   0.076799 0.168952 0.409803 0.501165
C27   C     C_R   0.957106 0.764173 0.672822 -0.255553
C28   C     C_R   0.042893 0.264178 0.327179 -0.255550
C29   C     C_R   0.858674 0.904538 0.685865 -0.153545
C30   C     C_R   0.141326 0.404537 0.314134 -0.153546
C31   C     C_R   0.822558 0.818738 0.600482 -0.020089
C32   C     C_R   0.177442 0.318742 0.399517 -0.020093
C33   C     C_R   0.855078 0.690392 0.555816 -0.140399
C34   C     C_R   0.144921 0.190399 0.444184 -0.140395
C35   C     C_R   0.755091 0.853575 0.559242 -0.037416
C36   C     C_R   0.244909 0.353582 0.440758 -0.037414
C37   C     C_R   0.721985 0.766013 0.472092 -0.097596
C38   C     C_R   0.278016 0.266016 0.527907 -0.097595
C39   C     C_R   0.752297 0.611682 0.440825 0.263827
C40   C     C_R   0.247703 0.111684 0.559173 0.263825
C41   C     C_R   0.818116 0.575169 0.481912 0.430226
C42   C     C_R   0.181884 0.075174 0.518087 0.430227
C43   C     C_R   0.719659 0.974511 0.601769 -0.199702
C44   C     C_R   0.280340 0.474530 0.398234 -0.199694
C45   C     C_R   0.655143 0.019201 0.558099 0.433797
C46   C     C_R   0.344857 0.519220 0.441904 0.433801
C47   C     C_R   0.624348 0.948687 0.468120 0.034841
C48   C     C_R   0.375652 0.448698 0.531881 0.034835
C49   C     C_R   0.658782 0.830825 0.422022 0.075213
C50   C     C_R   0.341218 0.330828 0.577978 0.075213
C51   C     C_R   0.560637 0.003499 0.421288 -0.121760
C52   C     C_R   0.439363 0.503510 0.578714 -0.121772
C53   C     C_R   0.533133 0.958581 0.326987 -0.149506
C54   C     C_R   0.466867 0.458586 0.673014 -0.149503
C55   C     C_R   0.631242 0.798191 0.324595 -0.088557
C56   C     C_R   0.368759 0.298188 0.675404 -0.088563
H11   H     H_    0.659707 0.740643 0.282228 0.158087
H12   H     H_    0.340295 0.240637 0.717771 0.158091
H13   H     H_    0.485012 0.008934 0.291134 0.118167
H14   H     H_    0.514988 0.508940 0.708868 0.118166
H15   H     H_    0.008686 0.745679 0.702079 0.120537
H16   H     H_    0.991313 0.245689 0.297922 0.120531
H17   H     H_    0.836655 0.988304 0.728640 0.140255
H18   H     H_    0.163345 0.488297 0.271357 0.140262
H19   H     H_    0.740144 0.037351 0.669773 0.159645
H20   H     H_    0.259855 0.537381 0.330233 0.159642
H21   H     H_    0.532773 0.088387 0.456130 0.159657
H22   H     H_    0.467226 0.588405 0.543873 0.159654
O11   O     O_R   0.036080 0.231270 0.130120 -0.527342
O12   O     O_R   0.963920 0.731270 0.869880 -0.527342
O13   O     O_R   0.911300 0.558970 0.006750 -0.523344
O14   O     O_R   0.088700 0.058970 0.993250 -0.523345
C57   C     C_R   0.884682 0.390035 0.000862 0.716125
C58   C     C_R   0.115318 0.890035 0.999138 0.716125
O15   O     O_R   0.032450 0.561140 0.138040 -0.550344
O16   O     O_R   0.967550 0.061140 0.861960 -0.550345
O17   O     O_R   0.085870 0.728910 0.002130 -0.549957
O18   O     O_R   0.914130 0.228910 0.997870 -0.549957
C59   C     C_R   0.045490 0.391595 0.175202 0.745051
C60   C     C_R   0.954510 0.891594 0.824798 0.745052
O19   O     O_3   0.017320 0.394650 0.955270 -0.377402
O20   O     O_3   0.982680 0.894650 0.044730 -0.377401
V3    V     V_3+5 0.996780 0.670490 0.008300 1.465149
V4    V     V_3+5 0.003220 0.170490 0.991700 1.465148
O21   O     O_3   0.622436 0.135517 0.603768 -0.556213
C61   C     C_3   0.638517 0.325080 0.591251 -0.217004
H23   H     H_    0.610065 0.418464 0.624212 0.166203
H24   H     H_    0.626039 0.363175 0.515368 0.168956
H25   H     H_    0.690502 0.353635 0.626223 0.151897
O22   O     O_3   0.377562 0.635543 0.396236 -0.556211
C62   C     C_3   0.361489 0.825110 0.408775 -0.216957
H26   H     H_    0.389933 0.918495 0.375795 0.166203
H27   H     H_    0.373990 0.863191 0.484669 0.168952
H28   H     H_    0.309496 0.853685 0.373828 0.151882
O23   O     O_3   0.955307 0.562234 0.538864 -0.539926
C63   C     C_3   0.004577 0.448935 0.597166 -0.211707
H29   H     H_    0.991088 0.388780 0.658206 0.115667
H30   H     H_    0.050382 0.529892 0.620925 0.142989
H31   H     H_    0.013227 0.328236 0.555146 0.214127
O24   O     O_3   0.044693 0.062252 0.461143 -0.539928
C64   C     C_3   0.995413 0.948977 0.402846 -0.211733
H32   H     H_    0.008896 0.888794 0.341807 0.115687
H33   H     H_    0.949614 0.029966 0.379087 0.142990
H34   H     H_    0.986753 0.828296 0.444870 0.214116
Cl1   Cl    Cl    0.707713 0.435931 0.363584 -0.690623
Cl2   Cl    Cl    0.292287 0.935933 0.636412 -0.690633
Cl3   Cl    Cl    0.221297 0.241398 0.124083 -0.702593
Cl4   Cl    Cl    0.778704 0.741396 0.875917 -0.702597
O25   O     O_3   0.845760 0.423011 0.449302 -0.505200
C65   C     C_3   0.845447 0.265276 0.507490 -0.075776
H35   H     H_    0.872844 0.293033 0.582046 0.102332
H36   H     H_    0.869103 0.144956 0.482803 0.150025
H37   H     H_    0.795420 0.221349 0.503390 0.149700
O26   O     O_3   0.154239 0.923019 0.550697 -0.505200
C66   C     C_3   0.154549 0.765285 0.492509 -0.075757
H38   H     H_    0.127152 0.793044 0.417953 0.102332
H39   H     H_    0.130892 0.644965 0.517196 0.150036
H40   H     H_    0.204576 0.721353 0.496606 0.149693

loop_
_geom_bond_atom_site_label_1
_geom_bond_atom_site_label_2
_ccdc_geom_bond_type
C44   C46   A    
C42   O26   S    
C2    C23   S    
C31   C33   A    
C20   H10   S    
O1    C3    A    
O2    C4    A    
C29   H17   S    
C2    O7    A    
O20   V4    S    
C28   H16   S    
C64   H32   S    
C25   C27   A    
O5    C3    A    
C66   H39   S    
C52   C54   A    
C7    C9    A    
C26   O24   S    
C17   C19   S    
C56   H12   S    
C64   H33   S    
C38   C50   A    
C36   C38   A    
C58   O17   A    
C61   H23   S    
C38   C40   A    
C46   O22   S    
C47   C49   A    
C63   H29   S    
O20   V3    S    
C40   C42   A    
O13   V3    S    
C36   C44   A    
C65   H35   S    
C43   C45   A    
C33   C41   A    
C48   C52   A    
C50   C56   A    
O21   C61   S    
C34   C42   A    
C47   C51   A    
C41   O25   S    
C14   C16   A    
C18   C20   S    
O12   C60   A    
C62   H28   S    
O15   V3    S    
C22   C30   A    
O5    V1    S    
C66   H38   S    
O13   C57   A    
C51   C53   A    
O11   V4    S    
O11   C59   A    
C24   C54   A    
O22   C62   S    
C30   C32   A    
C43   H19   S    
C55   H11   S    
C11   C13   A    
O17   V3    S    
C66   H40   S    
C32   C34   A    
C3    C8    S    
C37   C39   A    
C20   H8    S    
O19   V3    S    
C54   H14   S    
C24   C56   A    
C31   C35   A    
C57   O18   A    
C53   H13   S    
C64   H34   S    
O16   C60   A    
C17   H5    S    
C29   C31   A    
C63   H31   S    
C16   C18   S    
O4    V2    S    
C19   H7    S    
C14   C57   S    
O6    C4    A    
C15   C17   S    
C39   Cl1   S    
O1    V2    S    
O14   C58   A    
O2    V1    S    
C65   H36   S    
C8    C10   A    
C12   C14   A    
C9    H1    S    
C5    C15   A    
C10   H2    S    
C40   Cl2   S    
O4    C2    A    
C6    C16   A    
O25   C65   S    
C49   C55   A    
O3    V1    S    
C25   C33   A    
C62   H26   S    
C32   C36   A    
C17   Cl3   S    
C26   C34   A    
C9    C11   A    
O14   V4    S    
C18   H6    S    
O18   V4    S    
C39   C41   A    
C21   C27   A    
C35   C43   A    
O26   C66   S    
O3    C1    A    
C13   C58   S    
C48   C50   A    
C22   C59   S    
C11   H3    S    
C1    C24   S    
C12   H4    S    
O16   V4    S    
C61   H25   S    
C23   C53   A    
C27   H15   S    
C30   H18   S    
O7    V1    S    
C21   C60   S    
C51   H21   S    
C1    O8    A    
C13   C15   A    
O8    V2    S    
O23   C63   S    
C44   H20   S    
C45   O21   S    
C21   C29   A    
C65   H37   S    
C52   H22   S    
C4    C7    S    
C26   C28   A    
C5    C7    A    
C61   H24   S    
O19   V4    S    
C6    C8    A    
C19   H9    S    
C63   H30   S    
C35   C37   A    
O12   V3    S    
C25   O23   S    
C18   Cl4   S    
C22   C28   A    
O6    V2    S    
C10   C12   A    
O9    V2    S    
C46   C48   A    
O10   V1    S    
C23   C55   A    
C5    C19   S    
C45   C47   A    
O24   C64   S    
C6    C20   S    
O15   C59   A    
C37   C49   A    
C62   H27   S    
