data_mof_unit_68021.cif
_audit_creation_date              2012-12-11T14:03:27-0500
_audit_creation_method            fapswitch 2.2
_symmetry_space_group_name_H-M    P1
_symmetry_Int_Tables_number       1
_space_group_crystal_system       triclinic
_cell_length_a                    7.03193
_cell_length_b                    11.479064
_cell_length_c                    19.120248
_cell_angle_alpha                 90.009553
_cell_angle_beta                  92.698441
_cell_angle_gamma                 89.922707
_cell_volume                      1541.67314652

loop_
_atom_site_label
_atom_site_type_symbol
_atom_type_description
_atom_site_fract_x
_atom_site_fract_y
_atom_site_fract_z
_atom_type_partial_charge
O1    O     O_R   0.330540 0.606360 0.598870 -0.547874
O2    O     O_R   0.669460 0.106360 0.401130 -0.544620
O3    O     O_R   0.026770 0.620470 0.750430 -0.555112
O4    O     O_R   0.973230 0.120470 0.249570 -0.550075
O5    O     O_R   0.856460 0.393640 0.750930 -0.548038
O6    O     O_R   0.143540 0.893640 0.249070 -0.547208
C1    C     C_R   0.197619 0.640186 0.776374 0.676483
C2    C     C_R   0.802304 0.140300 0.223738 0.678249
O7    O     O_R   0.000920 0.620350 0.599420 -0.539172
O8    O     O_R   0.999080 0.120350 0.400580 -0.542355
O9    O     O_R   0.830430 0.393520 0.598850 -0.548882
O10   O     O_R   0.169570 0.893520 0.401150 -0.549311
C3    C     C_R   0.167737 0.648160 0.575367 0.754866
C4    C     C_R   0.834291 0.143140 0.427252 0.733123
O11   O     O_R   0.356570 0.606480 0.750960 -0.551637
O12   O     O_R   0.643430 0.106480 0.249040 -0.552367
O13   O     O_3   0.176990 0.425580 0.674890 -0.384752
O14   O     O_3   0.823010 0.925580 0.325110 -0.380167
V1    V     V_3+5 0.902170 0.513810 0.674910 1.340829
V2    V     V_3+5 0.097830 0.013810 0.325090 1.354976
O15   O     O_R   0.500800 0.379530 0.599380 -0.550138
O16   O     O_R   0.499200 0.879530 0.400620 -0.551504
C5    C     C_R   0.670201 0.348409 0.577131 0.745891
C6    C     C_R   0.331955 0.851821 0.424849 0.747108
O17   O     O_R   0.526650 0.379650 0.750390 -0.558905
O18   O     O_R   0.473350 0.879650 0.249610 -0.558786
C7    C     C_R   0.697251 0.366894 0.779419 0.681585
C8    C     C_R   0.302832 0.866726 0.220641 0.685268
V3    V     V_3+5 0.402160 0.486190 0.674900 1.333371
V4    V     V_3+5 0.597840 0.986190 0.325100 1.340680
O19   O     O_3   0.677210 0.574420 0.674910 -0.387484
O20   O     O_3   0.322790 0.074420 0.325090 -0.384084
C9    C     C_R   0.688596 0.096177 0.880752 -0.175581
C10   C     C_R   0.312138 0.595647 0.119583 -0.175910
H1    H     H_    0.694524 0.956570 0.981176 0.126842
H2    H     H_    0.304360 0.455695 0.019123 0.127118
C11   C     C_R   0.710697 0.293570 0.841423 -0.017822
C12   C     C_R   0.289722 0.793209 0.158753 -0.020248
C13   C     C_R   0.828348 0.334561 0.184992 -0.145707
C14   C     C_R   0.172592 0.834472 0.815725 -0.149994
C15   C     C_R   0.881825 0.412793 0.135832 -0.141245
C16   C     C_R   0.117774 0.912437 0.864843 -0.141220
C17   C     C_R   0.878298 0.380336 0.066370 -0.195809
C18   C     C_R   0.119982 0.879493 0.934154 -0.195106
C19   C     C_R   0.799525 0.273540 0.041695 0.034744
C20   C     C_R   0.199465 0.772761 0.958693 0.034680
C21   C     C_R   0.780355 0.183664 0.093722 0.022590
C22   C     C_R   0.219030 0.683006 0.906605 0.023009
C23   C     C_R   0.758620 0.249555 0.968078 0.013005
C24   C     C_R   0.240774 0.748826 0.032240 0.014078
C25   C     C_R   0.722120 0.131110 0.950039 0.099280
C26   C     C_R   0.277569 0.630387 0.050292 0.098503
C27   C     C_R   0.721657 0.043759 0.000131 -0.223277
C28   C     C_R   0.277549 0.542961 0.000179 -0.223370
C29   C     C_R   0.757116 0.064228 0.071483 0.025202
C30   C     C_R   0.242392 0.563567 0.928785 0.024709
C31   C     C_R   0.741565 0.335931 0.911758 0.023744
C32   C     C_R   0.258103 0.835372 0.088429 0.022868
C33   C     C_R   0.687584 0.175552 0.827474 -0.232885
C34   C     C_R   0.313794 0.675249 0.172819 -0.230015
C35   C     C_R   0.792149 0.219367 0.165683 -0.056543
C36   C     C_R   0.207695 0.718977 0.834685 -0.053849
C37   C     C_2   0.839200 0.229204 0.486473 -0.130447
C38   C     C_2   0.175925 0.746695 0.524213 -0.111918
C39   C     C_2   0.687191 0.244587 0.529648 -0.117189
C40   C     C_2   0.321896 0.754949 0.477134 -0.138877
H3    H     H_    0.664142 0.144323 0.774263 0.118527
H4    H     H_    0.338527 0.644385 0.226119 0.115965
C41   C     C_3   0.552028 0.141964 0.540368 -0.375067
C42   C     C_3   0.456016 0.143274 0.611683 -0.262674
C43   C     C_3   0.391960 0.024261 0.635470 -0.863882
H5    H     H_    0.353373 0.968133 0.589796 0.243570
H6    H     H_    0.504815 0.982319 0.668555 0.234391
H7    H     H_    0.269878 0.035279 0.669588 0.218312
H8    H     H_    0.555160 0.177466 0.653721 0.191150
H9    H     H_    0.328039 0.199958 0.607518 0.203272
H10   H     H_    0.441198 0.139474 0.497227 0.182477
H11   H     H_    0.635980 0.059955 0.537907 0.189590
C44   C     C_3   0.469462 0.655967 0.472909 -0.371015
C45   C     C_3   0.588390 0.650810 0.407127 -0.276457
C46   C     C_3   0.695772 0.536399 0.401976 -0.855063
H12   H     H_    0.747645 0.507521 0.454830 0.239521
H13   H     H_    0.604528 0.467830 0.377719 0.233328
H14   H     H_    0.818455 0.548784 0.368214 0.219763
H15   H     H_    0.496125 0.662348 0.358771 0.192150
H16   H     H_    0.699131 0.719588 0.410351 0.219602
H17   H     H_    0.570813 0.661830 0.519170 0.201277
H18   H     H_    0.392005 0.572061 0.474704 0.198131
H19   H     H_    0.664474 0.005420 0.867168 0.127386
H20   H     H_    0.336797 0.504919 0.133177 0.128277
C47   C     C_3   0.744364 0.467872 0.928839 -0.447872
C48   C     C_3   0.696717 0.563602 0.874845 -0.304557
C49   C     C_3   0.697887 0.684009 0.909116 -0.767828
H21   H     H_    0.594714 0.688328 0.951001 0.235243
H22   H     H_    0.839907 0.702948 0.933283 0.235135
H23   H     H_    0.661346 0.751812 0.869272 0.224618
H24   H     H_    0.802068 0.565266 0.834239 0.213330
H25   H     H_    0.558388 0.550561 0.849353 0.215068
H26   H     H_    0.652647 0.482471 0.973682 0.215553
H27   H     H_    0.890871 0.491179 0.942517 0.201488
C50   C     C_3   0.255430 0.967295 0.071167 -0.447786
C51   C     C_3   0.302834 0.063195 0.125049 -0.304612
C52   C     C_3   0.301341 0.183476 0.090621 -0.766676
H28   H     H_    0.404348 0.187523 0.048681 0.235090
H29   H     H_    0.159195 0.202509 0.066501 0.234835
H30   H     H_    0.337945 0.251394 0.130358 0.225004
H31   H     H_    0.197456 0.065098 0.165635 0.212779
H32   H     H_    0.441125 0.050160 0.150618 0.214664
H33   H     H_    0.347257 0.981525 0.026334 0.215408
H34   H     H_    0.109074 0.990949 0.057367 0.201780
H35   H     H_    0.838670 0.360290 0.239684 0.102158
H36   H     H_    0.164058 0.860855 0.761328 0.103666
H37   H     H_    0.960577 0.435584 0.036030 0.129106
H38   H     H_    0.036212 0.934094 0.964452 0.128573
H39   H     H_    0.939816 0.496118 0.152330 0.133514
H40   H     H_    0.059797 0.995865 0.848375 0.133206
C53   C     C_3   0.784817 0.956659 0.120147 -0.354239
C54   C     C_3   0.762348 0.835241 0.085902 -0.341506
C55   C     C_3   0.783812 0.736142 0.138742 -0.713774
H41   H     H_    0.930696 0.731291 0.161299 0.234108
H42   H     H_    0.687588 0.747816 0.182224 0.246088
H43   H     H_    0.748093 0.652830 0.111850 0.216830
H44   H     H_    0.619472 0.827266 0.059782 0.209915
H45   H     H_    0.869233 0.822664 0.046047 0.198321
H46   H     H_    0.926984 0.960436 0.146516 0.183463
H47   H     H_    0.686146 0.956750 0.162238 0.196521
C56   C     C_3   0.215204 0.456243 0.879958 -0.353719
C57   C     C_3   0.237341 0.334732 0.914100 -0.341005
C58   C     C_3   0.216532 0.235815 0.861100 -0.713992
H48   H     H_    0.069923 0.231289 0.838266 0.233896
H49   H     H_    0.313362 0.247441 0.817812 0.246873
H50   H     H_    0.251916 0.152366 0.887934 0.216973
H51   H     H_    0.379991 0.326502 0.940399 0.209831
H52   H     H_    0.130003 0.322289 0.953808 0.198478
H53   H     H_    0.073239 0.460317 0.853414 0.184155
H54   H     H_    0.314377 0.456407 0.838021 0.196977
C59   C     C_3   0.035391 0.288080 0.496886 -0.306994
C60   C     C_3   0.074219 0.375494 0.438354 -0.312010
C61   C     C_3   0.270465 0.359323 0.409547 -0.770555
H55   H     H_    0.382248 0.369605 0.451950 0.226332
H56   H     H_    0.283797 0.271801 0.385952 0.262194
H57   H     H_    0.289788 0.425343 0.368112 0.208693
H58   H     H_    0.968390 0.365748 0.393768 0.198812
H59   H     H_    0.065183 0.465370 0.459406 0.180217
H60   H     H_    0.075575 0.326060 0.548021 0.194845
H61   H     H_    0.142654 0.217327 0.497371 0.167990
C62   C     C_3   0.013521 0.835918 0.530710 -0.334890
C63   C     C_3   0.998166 0.884550 0.605625 -0.358532
C64   C     C_3   0.812463 0.854531 0.638888 -0.721452
H62   H     H_    0.689898 0.868422 0.601151 0.219576
H63   H     H_    0.813139 0.763698 0.656836 0.275894
H64   H     H_    0.798542 0.909719 0.686050 0.194000
H65   H     H_    0.117395 0.853352 0.640755 0.193909
H66   H     H_    0.004700 0.981316 0.603480 0.191270
H67   H     H_    0.024849 0.914216 0.498406 0.177440
H68   H     H_    0.878547 0.793197 0.512485 0.182335

loop_
_geom_bond_atom_site_label_1
_geom_bond_atom_site_label_2
_ccdc_geom_bond_type
C37   C39   D    
C49   H21   S    
H1    C27   S    
C53   C54   S    
O13   V3    S    
C27   C29   A    
C41   H10   S    
C62   C63   S    
O4    C2    A    
V1    O19   S    
C57   C58   S    
C44   H17   S    
C46   H12   S    
C48   H25   S    
C13   C15   A    
C40   C44   S    
O9    V1    S    
C50   C51   S    
C63   H66   S    
C59   H60   S    
C56   H53   S    
O3    C1    A    
C60   H58   S    
C64   H63   S    
V2    O20   S    
C61   H57   S    
C50   H33   S    
C14   C36   A    
C30   C56   S    
O7    C3    A    
C54   C55   S    
C45   H16   S    
C33   H3    S    
O5    C7    A    
O7    V1    S    
O6    C8    A    
C18   C20   A    
C23   C25   A    
C24   C26   A    
O3    V1    S    
C42   C43   S    
O14   V4    S    
C19   C23   A    
C47   H27   S    
C14   C16   A    
C62   H67   S    
C53   H47   S    
C6    C40   S    
C2    C35   S    
C58   H50   S    
C55   H42   S    
C37   C59   S    
C18   H38   S    
C9    C33   A    
C12   C32   A    
C10   C34   A    
C15   C17   A    
C41   H11   S    
C41   C42   S    
C16   C18   A    
C15   H39   S    
C44   H18   S    
C46   H13   S    
C26   C28   A    
C48   H24   S    
O11   V3    S    
C20   C22   A    
C19   C21   A    
O17   V3    S    
C13   C35   A    
C28   C30   A    
C24   C32   A    
C59   H61   S    
C56   H54   S    
C14   H36   S    
O8    C4    A    
C64   H64   S    
O8    V2    S    
C47   C48   S    
C43   H6    S    
C9    H19   S    
C1    O11   A    
C50   H34   S    
O15   V3    S    
C9    C25   A    
C25   C27   A    
C38   C40   D    
C10   H20   S    
C1    C36   S    
C45   H15   S    
C57   H52   S    
C43   H7    S    
C22   C36   A    
C8    C12   S    
C55   H41   S    
O10   V2    S    
O1    V3    S    
C51   H31   S    
C52   H29   S    
C32   C50   S    
C54   H45   S    
C63   C64   S    
C51   H32   S    
C62   H68   S    
C17   C19   A    
C11   C33   A    
C12   C34   A    
C16   H40   S    
O18   V4    S    
C49   H23   S    
O15   C5    A    
C38   C62   S    
C42   H9    S    
O16   C6    A    
O1    C3    A    
C63   H65   S    
C56   C57   S    
C52   H28   S    
C46   H14   S    
C21   C29   A    
C58   H48   S    
C29   C53   S    
C55   H43   S    
C22   C30   A    
O10   C6    A    
O16   V4    S    
O18   C8    A    
C45   C46   S    
C21   C35   A    
C23   C31   A    
C61   H55   S    
O5    V1    S    
O17   C7    A    
O6    V2    S    
C59   C60   S    
C20   C24   A    
C10   C26   A    
O2    V4    S    
C5    C39   S    
C43   H5    S    
V3    O19   S    
C60   H59   S    
C64   H62   S    
C17   H37   S    
V4    O20   S    
C13   H35   S    
C61   H56   S    
C49   H22   S    
C3    C38   S    
C53   H46   S    
C7    C11   S    
C39   C41   S    
C4    C37   S    
O9    C5    A    
C48   C49   S    
O13   V1    S    
C52   H30   S    
O14   V2    S    
C54   H44   S    
C51   C52   S    
O2    C4    A    
H2    C28   S    
C60   C61   S    
C44   C45   S    
O4    V2    S    
C34   H4    S    
C2    O12   A    
C42   H8    S    
C31   C47   S    
C47   H26   S    
C57   H51   S    
O12   V4    S    
C11   C31   A    
C58   H49   S    
