data_mof_unit_55851.cif
_audit_creation_date              2012-12-10T16:57:05-0500
_audit_creation_method            fapswitch 2.2
_symmetry_space_group_name_H-M    P1
_symmetry_Int_Tables_number       1
_space_group_crystal_system       triclinic
_cell_length_a                    7.784405
_cell_length_b                    8.571414
_cell_length_c                    16.631764
_cell_angle_alpha                 91.666501
_cell_angle_beta                  80.995815
_cell_angle_gamma                 93.685545
_cell_volume                      1093.58139271

loop_
_atom_site_label
_atom_site_type_symbol
_atom_type_description
_atom_site_fract_x
_atom_site_fract_y
_atom_site_fract_z
_atom_type_partial_charge
C1    C     C_R   0.546101 0.794703 0.497942 0.963218
C2    C     C_R   0.453893 0.205303 0.502134 0.974571
C3    C     C_2   0.570356 0.958203 0.496851 -0.375466
C4    C     C_2   0.429625 0.041797 0.503359 -0.377618
C5    C     C_R   0.480666 0.514433 0.653948 0.904716
C6    C     C_R   0.521305 0.496391 0.345424 0.897001
C7    C     C_R   0.484988 0.575555 0.736401 -0.091687
C8    C     C_R   0.527821 0.496314 0.257406 -0.111050
C9    C     C_R   0.645262 0.634830 0.756714 -0.287985
C10   C     C_R   0.375437 0.523144 0.226286 -0.306300
C11   C     C_R   0.655515 0.697943 0.834002 0.437780
C12   C     C_R   0.378376 0.534815 0.142897 0.439785
C13   C     C_R   0.503704 0.699446 0.891360 0.119959
C14   C     C_R   0.535112 0.516475 0.090451 -0.068480
C15   C     C_R   0.339110 0.657582 0.868959 0.155723
C16   C     C_R   0.686223 0.479915 0.120185 0.131894
C17   C     C_R   0.331274 0.593375 0.791285 -0.258408
C18   C     C_R   0.683133 0.473391 0.204333 -0.244881
C19   C     C_2   0.523850 0.688200 0.976464 0.479198
C20   C     C_2   0.541581 0.543187 0.003595 0.366299
H1    H     H_    0.763724 0.629837 0.713025 0.151568
H2    H     H_    0.254328 0.539250 0.266761 0.160722
H3    H     H_    0.801492 0.453005 0.228020 0.164591
H4    H     H_    0.206176 0.554972 0.774425 0.163558
H5    H     H_    0.703254 0.009240 0.490673 0.180557
H6    H     H_    0.296727 0.990754 0.509552 0.180490
H7    H     H_    0.022548 0.380634 0.439384 0.188387
H8    H     H_    0.977474 0.619433 0.560583 0.184752
N1    N     N_2   0.953500 0.457650 0.478520 -0.174407
N2    N     N_2   0.046500 0.542350 0.521480 -0.173188
O1    O     O_R   0.388470 0.738640 0.505270 -0.612229
O2    O     O_R   0.611530 0.261360 0.494730 -0.608767
O3    O     O_R   0.679650 0.711510 0.491500 -0.631442
O4    O     O_R   0.320350 0.288490 0.508500 -0.625187
O5    O     O_R   0.337210 0.515200 0.623500 -0.618234
O6    O     O_R   0.662790 0.484800 0.376500 -0.621807
O7    O     O_R   0.628380 0.488060 0.609730 -0.622255
O8    O     O_R   0.371620 0.511940 0.390270 -0.627274
Zn1   Zn    Zn3+2 0.305580 0.518120 0.509190 0.941098
Zn2   Zn    Zn3+2 0.694420 0.481880 0.490810 0.939625
O9    O     O_3   0.555722 0.417466 0.949136 -0.770322
H9    H     H_    0.560548 0.320986 0.980031 0.357823
O10   O     O_3   0.520733 0.823798 0.023978 -0.783542
H10   H     H_    0.562034 0.804491 0.075915 0.322970
N3    N     N_2   0.183741 0.665294 0.926818 -0.286503
H11   H     H_    0.075359 0.601179 0.912701 0.260701
C21   C     C_3   0.148239 0.816744 0.965037 -0.654680
H12   H     H_    0.138656 0.807629 0.031957 0.268218
H13   H     H_    0.022624 0.855238 0.951614 0.259274
H14   H     H_    0.251356 0.908457 0.943412 0.250208
N4    N     N_2   0.843297 0.463329 0.065151 -0.300142
H15   H     H_    0.931200 0.557739 0.066786 0.262560
C22   C     C_3   0.919278 0.313777 0.065352 -0.668743
H16   H     H_    0.030977 0.308793 0.015039 0.258613
H17   H     H_    0.821644 0.217452 0.055681 0.243532
H18   H     H_    0.967480 0.297532 0.123790 0.227586
O11   O     O_3   0.231411 0.567523 0.111302 -0.787701
H19   H     H_    0.135010 0.583489 0.156781 0.318177
O12   O     O_3   0.813351 0.746795 0.857104 -0.794235
H20   H     H_    0.907288 0.736870 0.809850 0.327377

loop_
_geom_bond_atom_site_label_1
_geom_bond_atom_site_label_2
_ccdc_geom_bond_type
C4    H6    S    
O10   H10   S    
C6    O8    A    
C15   C17   A    
N1    N2    D    
C5    O7    A    
O7    Zn2   S    
C11   C13   A    
O9    H9    S    
C2    C4    S    
C19   C20   D    
O1    Zn1   S    
C16   N4    S    
C1    O1    A    
C2    O4    A    
C22   H17   S    
C20   O9    S    
C12   C14   A    
C1    O3    A    
O12   H20   S    
C21   H13   S    
C16   C18   A    
C22   H16   S    
C10   H2    S    
C9    C11   A    
C9    H1    S    
O11   H19   S    
C10   C12   A    
C3    H5    S    
C11   O12   S    
C12   O11   S    
C5    O5    A    
N1    Zn2   S    
C8    C10   A    
C6    O6    A    
N2    Zn1   S    
C21   H14   S    
C5    C7    S    
O2    Zn2   S    
N3    C21   S    
C13   C15   A    
O8    Zn1   S    
C14   C16   A    
O3    Zn2   S    
H7    N1    S    
C13   C19   S    
C18   H3    S    
C17   H4    S    
C21   H12   S    
C14   C20   S    
O6    Zn2   S    
O5    Zn1   S    
C2    O2    A    
C22   H18   S    
C7    C9    A    
C15   N3    S    
C6    C8    S    
C1    C3    S    
N3    H11   S    
O4    Zn1   S    
C8    C18   A    
C3    C4    D    
N4    H15   S    
C19   O10   S    
H8    N2    S    
N4    C22   S    
C7    C17   A    
