data_mof_unit_63231.cif
_audit_creation_date              2012-12-11T15:03:47-0500
_audit_creation_method            fapswitch 2.2
_symmetry_space_group_name_H-M    P1
_symmetry_Int_Tables_number       1
_space_group_crystal_system       triclinic
_cell_length_a                    8.264548
_cell_length_b                    15.040746
_cell_length_c                    18.792108
_cell_angle_alpha                 100.674658
_cell_angle_beta                  91.435051
_cell_angle_gamma                 99.301893
_cell_volume                      2261.69890084

loop_
_atom_site_label
_atom_site_type_symbol
_atom_type_description
_atom_site_fract_x
_atom_site_fract_y
_atom_site_fract_z
_atom_type_partial_charge
Ba1   Ba    Ba6+2 0.854120 0.540280 0.465540 1.912144
Ba2   Ba    Ba6+2 0.335710 0.459790 0.534460 1.968831
C1    C     C_3   0.714586 0.865554 0.295563 1.132097
C2    C     C_3   0.620530 0.767608 0.276786 0.833951
C3    C     C_3   0.479726 0.305635 0.309841 0.807997
C4    C     C_3   0.473978 0.271343 0.228319 0.479978
C5    C     C_3   0.067928 0.281131 0.732759 0.296439
C6    C     C_3   0.082750 0.258075 0.807847 -0.262210
C7    C     C_3   0.549618 0.229013 0.698326 1.003772
C8    C     C_3   0.557302 0.148317 0.735903 0.675360
C9    C     C_R   0.995468 0.455485 0.047010 0.009320
C10   C     C_R   0.893822 0.410405 0.093122 -0.069410
C11   C     C_R   0.733279 0.368673 0.068123 -0.100669
C12   C     C_3   0.152187 0.732559 0.273822 0.913585
C13   C     C_R   0.672643 0.372611 0.998837 0.586235
C14   C     C_R   0.773723 0.416343 0.951957 -0.062165
C15   C     C_R   0.936188 0.457495 0.975779 -0.016829
C16   C     C_R   0.715468 0.418206 0.881541 -0.089027
C17   C     C_R   0.818125 0.457463 0.832594 -0.034942
C18   C     C_R   0.981235 0.500451 0.856518 -0.040488
C19   C     C_R   0.038955 0.500666 0.928626 0.051675
C20   C     C_R   0.763176 0.453541 0.759991 0.023742
C21   C     C_R   0.871832 0.487882 0.711796 -0.238292
C22   C     C_R   0.029965 0.535138 0.734473 -0.033190
C23   C     C_3   0.160355 0.765805 0.201983 0.605213
C24   C     C_R   0.085591 0.544154 0.809052 -0.162564
C25   C     C_R   0.156556 0.497477 0.071761 0.060682
C26   C     C_R   0.213489 0.499103 0.144205 0.043191
C27   C     C_R   0.108402 0.457021 0.192096 -0.000223
C28   C     C_R   0.952426 0.408559 0.163784 0.027191
C29   C     C_R   0.241027 0.594155 0.838391 0.676295
C30   C     C_R   0.302994 0.587652 0.907556 -0.136311
C31   C     C_R   0.200773 0.541939 0.953234 -0.120815
C32   C     C_R   0.259874 0.539411 0.024352 0.052014
C33   C     C_R   0.466643 0.625958 0.932168 0.674613
C34   C     C_3   0.276829 0.749906 0.640522 0.811617
C35   C     C_R   0.525628 0.620704 0.001223 -0.134928
C36   C     C_R   0.422746 0.579169 0.048061 -0.046831
C37   C     C_R   0.376054 0.542377 0.168195 -0.004536
C38   C     C_R   0.480563 0.578486 0.118566 -0.005625
C39   C     C_R   0.428952 0.549369 0.241347 -0.005847
C40   C     C_R   0.320271 0.514459 0.289590 -0.174111
C41   C     C_R   0.162528 0.466168 0.266552 0.146667
C42   C     C_R   0.752032 0.237051 0.532667 0.336707
C43   C     C_R   0.844784 0.179600 0.559386 -0.019136
C44   C     C_R   0.781426 0.085712 0.551862 -0.222498
C45   C     C_3   0.342281 0.848308 0.678976 1.094233
C46   C     C_R   0.634592 0.046264 0.508648 0.047956
C47   C     C_R   0.561584 0.104597 0.471128 0.643373
C48   C     C_R   0.612328 0.199485 0.487560 -0.110658
C49   C     C_R   0.397703 0.911820 0.472724 0.673077
C50   C     C_R   0.339708 0.817599 0.454378 -0.060445
C51   C     C_R   0.586503 0.787908 0.509841 0.023329
C52   C     C_R   0.655882 0.880989 0.518049 -0.057165
C53   C     C_R   0.563589 0.945343 0.498469 0.042871
C54   C     C_R   0.434542 0.755726 0.472710 -0.299810
C55   C     C_3   0.930601 0.250725 0.365721 0.728867
C56   C     C_3   0.907002 0.146866 0.339074 1.514962
C57   C     C_3   0.760357 0.684603 0.686407 0.902838
C58   C     C_3   0.829690 0.732353 0.762227 0.635477
H1    H     H_    0.422787 0.847555 0.727016 0.016302
H2    H     H_    0.581858 0.364361 0.324759 -0.068841
H3    H     H_    0.377896 0.209379 0.212469 0.111806
H4    H     H_    0.209773 0.247769 0.819986 0.205800
H5    H     H_    0.589814 0.387330 0.865159 0.144398
H6    H     H_    0.872719 0.370914 0.196663 0.072397
H7    H     H_    0.652063 0.650466 0.018444 0.135476
H8    H     H_    0.384037 0.683291 0.463646 0.069235
O1    O     O_2   0.871030 0.438240 0.324420 -0.518635
O2    O     O_3   0.697696 0.748477 0.652914 -0.646462
O3    O     O_3   0.099928 0.799274 0.326827 -0.558555
O4    O     O_2   0.318670 0.561790 0.675630 -0.357198
O5    O     O_3   0.069120 0.554770 0.586270 -0.459491
O6    O     O_3   0.526680 0.394150 0.629950 -0.404122
O7    O     O_3   0.183399 0.707547 0.689419 -0.663122
O8    O     O_3   0.607620 0.388570 0.462320 -0.446288
O9    O     O_3   0.103380 0.345110 0.593380 -0.432571
O10   O     O_2   0.177843 0.180089 0.544897 -0.317303
O11   O     O_3   0.106341 0.208529 0.680933 -0.534085
O12   O     O_3   0.120590 0.445310 0.413740 -0.404247
O13   O     O_3   0.582100 0.611510 0.537680 -0.477855
O14   O     O_2   0.334040 0.276520 0.462890 -0.321559
O15   O     O_3   0.500777 0.233657 0.344939 -0.628123
O16   O     O_2   0.427760 0.464247 0.757931 -0.461958
O17   O     O_3   0.478500 0.295698 0.743813 -0.645885
O18   O     O_3   0.663040 0.605930 0.370050 -0.497633
O19   O     O_2   0.758745 0.533034 0.243647 -0.425197
O20   O     O_3   0.002245 0.292294 0.310887 -0.622242
O21   O     O_3   0.731021 0.705747 0.260122 -0.554586
O22   O     O_2   0.855660 0.723510 0.537160 -0.414827
O23   O     O_3   0.086340 0.654970 0.406630 -0.478730
O24   O     O_2   0.004047 0.817937 0.458620 -0.341481
P1    P     P_3+3 0.038110 0.412300 0.335300 1.141163
P2    P     P_3+3 0.679950 0.711710 0.558590 1.076337
P3    P     P_3+3 0.132544 0.773419 0.412677 1.233425
P4    P     P_3+3 0.151600 0.587780 0.664700 1.100287
P5    P     P_3+3 0.057481 0.227480 0.594421 1.206741
P6    P     P_3+3 0.642534 0.598041 0.276927 1.069185
P7    P     P_3+3 0.514590 0.273182 0.439024 1.198182
P8    P     P_3+3 0.550342 0.403769 0.723622 1.060736
H9    H     H_    0.547899 0.755389 0.324167 -0.246897
F1    F     F_    0.432095 0.896484 0.633527 -0.755853
F2    F     F_    0.213139 0.892660 0.701776 -0.627882
H10   H     H_    0.811141 0.272175 0.376815 0.438068
F3    F     F_    0.030289 0.273789 0.428576 -0.669437
F4    F     F_    0.784563 0.120438 0.284145 -0.686369
F5    F     F_    0.864251 0.101422 0.394881 -0.702213
F6    F     F_    0.051649 0.122115 0.312829 -0.606680
H11   H     H_    0.859464 0.656688 0.655920 -0.224120
F7    F     F_    0.635919 0.613719 0.692028 -0.688110
F8    F     F_    0.809518 0.877667 0.359215 -0.675040
H12   H     H_    0.939787 0.784008 0.758413 0.007516
H13   H     H_    0.865203 0.681632 0.793010 -0.045408
F9    F     F_    0.713595 0.776517 0.799210 -0.584099
F10   F     F_    0.517021 0.760685 0.216482 -0.795966
F11   F     F_    0.604992 0.926676 0.304673 -0.638276
F12   F     F_    0.334083 0.333985 0.327831 -0.720331
F13   F     F_    0.437227 0.338699 0.192640 -0.751274
H14   H     H_    0.594820 0.253547 0.212071 -0.037171
H15   H     H_    0.795154 0.880164 0.251270 0.078038
H16   H     H_    0.205660 0.714584 0.160219 -0.009724
H17   H     H_    0.154527 0.345350 0.731498 0.058119
H18   H     H_    0.940629 0.292522 0.723296 -0.068363
H19   H     H_    0.053155 0.314945 0.849322 0.051515
H20   H     H_    0.995766 0.194469 0.810643 0.133982
H21   H     H_    0.676601 0.255237 0.685453 -0.452575
F14   F     F_    0.454440 0.198337 0.634363 -0.690194
H22   H     H_    0.613589 0.095378 0.700401 -0.016043
F15   F     F_    0.400983 0.109839 0.750501 -0.599596
F16   F     F_    0.042606 0.651193 0.264305 -0.707736
H23   H     H_    0.633544 0.171969 0.787538 -0.102360
H24   H     H_    0.653852 0.333233 0.102448 0.165868
F17   F     F_    0.515405 0.332499 0.977437 -0.689072
H25   H     H_    0.829222 0.481768 0.655929 0.126058
F18   F     F_    0.331396 0.652810 0.802212 -0.608229
F19   F     F_    0.572478 0.666416 0.889044 -0.594050
H26   H     H_    0.606771 0.609020 0.134629 0.126998
H27   H     H_    0.275218 0.719555 0.289160 -0.226964
H28   H     H_    0.362360 0.520923 0.345581 0.039530
F20   F     F_    0.286184 0.968876 0.472625 -0.597955
H29   H     H_    0.851355 0.045086 0.578058 0.125459
H30   H     H_    0.778238 0.901894 0.543003 0.122345
F21   F     F_    0.456097 0.070033 0.412355 -0.574273
F22   F     F_    0.805436 0.328922 0.545203 -0.709593
F23   F     F_    0.006299 0.777252 0.178760 -0.673615
H31   H     H_    0.245416 0.832329 0.208498 0.071776
H32   H     H_    0.380873 0.714567 0.623907 -0.132849
F24   F     F_    0.178117 0.750850 0.580504 -0.725011

loop_
_geom_bond_atom_site_label_1
_geom_bond_atom_site_label_2
_ccdc_geom_bond_type
C46   C53   S    
C55   F3    S    
Ba1   O22   S    
C39   C40   A    
Ba1   Ba2   S    
C2    F10   S    
C58   F9    S    
C17   C18   A    
C5    C6    S    
C37   C39   A    
C43   C44   A    
C16   H5    S    
C48   P7    S    
C7    F14   S    
C34   C45   S    
C26   C27   A    
O2    P2    S    
C35   C36   A    
C22   C24   A    
C56   F5    S    
O1    P1    D    
C1    F11   S    
C22   P4    S    
O14   P7    D    
C3    C4    S    
C3    O15   S    
Ba2   O4    S    
O3    P3    S    
Ba1   O13   S    
C13   C14   A    
C47   F21   S    
C57   F7    S    
C50   P3    S    
C16   C17   A    
C12   O3    S    
C8    H23   S    
C42   C48   A    
C7    O17   S    
O20   P1    S    
C34   F24   S    
C12   H27   S    
C1    F8    S    
C14   C15   A    
C21   C22   A    
O9    P5    S    
C23   H31   S    
C7    C8    S    
C49   C53   A    
Ba2   O6    S    
O19   P6    D    
C10   C28   A    
C49   F20   S    
C40   H28   S    
C57   C58   S    
Ba1   O23   S    
C45   F1    S    
O15   P7    S    
C27   C41   A    
C58   H13   S    
C8    H22   S    
O7    P4    S    
O22   P2    D    
C44   H29   S    
C20   C21   A    
C25   C32   A    
C44   C46   A    
C45   F2    S    
C49   C50   A    
O16   P8    D    
C30   C33   A    
C17   C20   A    
C20   P8    S    
C29   F18   S    
C37   C38   A    
C6    H19   S    
O6    P8    S    
C26   C37   A    
C54   H8    S    
O24   P3    D    
C15   C19   A    
C3    F12   S    
C56   F4    S    
C4    H3    S    
C45   H1    S    
C27   C28   A    
C58   H12   S    
C34   O7    S    
C34   H32   S    
C29   C30   A    
C9    C25   A    
C42   F22   S    
C2    H9    S    
O10   P5    D    
C31   C32   A    
C10   C11   A    
C28   H6    S    
Ba2   O5    S    
C6    H4    S    
C38   H26   S    
C14   C16   A    
C46   C47   A    
C52   H30   S    
C11   C13   A    
Ba2   O14   S    
C40   C41   A    
C5    H17   S    
C1    C2    S    
C4    H14   S    
Ba2   O8    S    
C42   C43   A    
C5    O11   S    
C2    O21   S    
C12   F16   S    
C51   C54   A    
O8    P7    S    
Ba1   O18   S    
C55   H10   S    
C52   C53   A    
C9    C15   A    
C21   H25   S    
C33   C35   A    
C51   P2    S    
C32   C36   A    
Ba1   O8    S    
O11   P5    S    
C5    H18   S    
C33   F19   S    
Ba1   P2    S    
C9    C10   A    
C51   C52   A    
C13   F17   S    
C7    H21   S    
C55   O20   S    
O21   P6    S    
C41   P1    S    
Ba1   O5    S    
C30   C31   A    
Ba2   P4    S    
C8    F15   S    
Ba2   O9    S    
C43   P5    S    
C36   C38   A    
O13   P2    S    
C55   C56   S    
C18   C24   A    
C35   H7    S    
C57   H11   S    
C11   H24   S    
C3    H2    S    
C56   F6    S    
C12   C23   S    
O18   P6    S    
Ba1   O1    S    
Ba2   O12   S    
C1    H15   S    
C57   O2    S    
O23   P3    S    
O4    P4    D    
C6    H20   S    
C24   C29   A    
C19   C31   A    
C18   C19   A    
Ba1   P1    S    
C47   C48   A    
C25   C26   A    
O17   P8    S    
Ba1   O12   S    
C39   P6    S    
Ba2   O13   S    
C23   F23   S    
O5    P4    S    
O12   P1    S    
C23   H16   S    
C4    F13   S    
C50   C54   A    
