data_mof_unit_67362.cif
_audit_creation_date              2013-03-05T16:08:13-0500
_audit_creation_method            fapswitch 2.2
_symmetry_space_group_name_H-M    P1
_symmetry_Int_Tables_number       1
_space_group_crystal_system       triclinic
_cell_length_a                    19.922359
_cell_length_b                    23.120838
_cell_length_c                    8.910497
_cell_angle_alpha                 89.832101
_cell_angle_beta                  104.123248
_cell_angle_gamma                 90.53892
_cell_volume                      3980.12840974

loop_
_atom_site_label
_atom_site_type_symbol
_atom_site_description
_atom_site_fract_x
_atom_site_fract_y
_atom_site_fract_z
_atom_type_partial_charge
P1    P     P_3+3 0.853370 0.434890 0.996520 0.680580
P2    P     P_3+3 0.853370 0.565110 0.496520 0.691749
P3    P     P_3+3 0.353370 0.934890 0.996520 0.683086
P4    P     P_3+3 0.353370 0.065110 0.496520 0.690971
O1    O     O_2   0.860260 0.414960 0.826400 -0.307191
O2    O     O_2   0.860260 0.585040 0.326400 -0.302233
O3    O     O_2   0.360260 0.914960 0.826400 -0.306945
O4    O     O_2   0.360260 0.085040 0.326400 -0.302465
O5    O     O_3   0.918600 0.470180 0.098890 -0.280355
O6    O     O_3   0.918600 0.529820 0.598890 -0.279303
O7    O     O_3   0.418600 0.970180 0.098890 -0.280466
O8    O     O_3   0.418600 0.029820 0.598890 -0.279130
O9    O     O_3   0.975750 0.362410 0.628650 -0.355691
O10   O     O_3   0.975750 0.637590 0.128650 -0.297193
O11   O     O_3   0.475750 0.862410 0.628650 -0.348887
O12   O     O_3   0.475750 0.137590 0.128650 -0.296990
O13   O     O_2   0.863476 0.317786 0.680658 -0.317625
O14   O     O_2   0.866534 0.683703 0.182481 -0.318566
O15   O     O_2   0.362831 0.818447 0.680671 -0.307241
O16   O     O_2   0.366166 0.183313 0.181578 -0.318179
O17   O     O_3   0.769420 0.467426 0.967451 -0.565551
O18   O     O_3   0.769006 0.531598 0.461321 -0.551244
O19   O     O_3   0.269558 0.967451 0.967294 -0.564437
O20   O     O_3   0.269012 0.031586 0.461562 -0.552958
O21   O     O_3   0.949239 0.244426 0.620012 -0.542837
O22   O     O_3   0.952615 0.757643 0.120557 -0.549765
O23   O     O_3   0.449917 0.745677 0.627466 -0.542563
O24   O     O_3   0.452519 0.257581 0.122560 -0.550748
C1    C     C_3   0.008551 0.207167 0.432672 -0.161268
C2    C     C_3   0.003689 0.833883 0.999734 -0.026275
C3    C     C_3   0.501534 0.705063 0.431839 -0.194332
C4    C     C_3   0.505131 0.333844 0.005682 -0.020808
P5    P     P_3+3 0.146350 0.434230 0.693140 0.691896
P6    P     P_3+3 0.146350 0.565770 0.193140 0.702479
P7    P     P_3+3 0.646350 0.934230 0.693140 0.692878
P8    P     P_3+3 0.646350 0.065770 0.193140 0.703583
P9    P     P_3+3 0.082024 0.305771 0.122824 0.636112
P10   P     P_3+3 0.086965 0.691199 0.618935 0.661632
P11   P     P_3+3 0.583343 0.806724 0.120989 0.642687
P12   P     P_3+3 0.586093 0.191915 0.619708 0.665031
O25   O     O_2   0.139400 0.414340 0.863230 -0.306410
O26   O     O_2   0.139400 0.585660 0.363230 -0.280545
O27   O     O_2   0.639400 0.914340 0.863230 -0.303187
O28   O     O_2   0.639400 0.085660 0.363230 -0.280739
O29   O     O_3   0.023740 0.362300 0.060930 -0.342934
O30   O     O_3   0.023740 0.637700 0.560930 -0.335858
O31   O     O_3   0.523740 0.862300 0.060930 -0.337497
O32   O     O_3   0.523740 0.137700 0.560930 -0.335336
O33   O     O_2   0.129339 0.307024 0.008293 -0.268053
O34   O     O_2   0.140416 0.678976 0.523607 -0.224851
O35   O     O_2   0.633079 0.812117 0.012502 -0.259029
O36   O     O_2   0.639908 0.180446 0.524839 -0.221729
O37   O     O_3   0.232418 0.463222 0.730922 -0.581202
O38   O     O_3   0.231211 0.535849 0.226799 -0.594337
O39   O     O_3   0.732234 0.963510 0.730671 -0.580091
O40   O     O_3   0.731587 0.036600 0.227865 -0.596162
O41   O     O_3   0.031712 0.242323 0.075309 -0.471998
O42   O     O_3   0.047204 0.754252 0.531473 -0.445249
O43   O     O_3   0.535637 0.743379 0.056771 -0.453090
O44   O     O_3   0.545264 0.254583 0.532086 -0.444937
C5    C     C_3   0.961591 0.256664 0.018669 0.416304
C6    C     C_3   0.975565 0.751224 0.516547 0.366507
C7    C     C_3   0.464466 0.753189 0.038164 0.379051
C8    C     C_3   0.473635 0.250592 0.516678 0.370147
C9    C     C_3   0.916692 0.202176 0.988070 -0.707064
C10   C     C_3   0.944368 0.809473 0.458727 -0.571279
C11   C     C_3   0.424935 0.696027 0.006684 -0.712179
C12   C     C_3   0.441346 0.308497 0.458927 -0.572776
C13   C     C_3   0.249466 0.477768 0.265984 0.952059
C14   C     C_3   0.251612 0.521296 0.769447 0.936198
C15   C     C_3   0.750394 0.978676 0.267219 0.950323
C16   C     C_3   0.750860 0.021730 0.768675 0.933523
C17   C     C_3   0.327121 0.473617 0.268114 -0.747642
C18   C     C_3   0.330006 0.525567 0.778709 -0.698934
C19   C     C_3   0.828289 0.975235 0.271095 -0.745497
C20   C     C_3   0.829060 0.026645 0.776048 -0.692195
H1    H     H_    0.357395 0.506195 0.349233 0.256184
H2    H     H_    0.358714 0.496775 0.871461 0.255476
H3    H     H_    0.857916 0.007862 0.353112 0.250292
H4    H     H_    0.858469 0.997722 0.867595 0.257243
Ba1   Ba    Ba6+2 0.999900 0.457470 0.844900 1.902404
Ba2   Ba    Ba6+2 0.999900 0.542530 0.344900 1.919731
Ba3   Ba    Ba6+2 0.499900 0.957470 0.844900 1.906680
Ba4   Ba    Ba6+2 0.499900 0.042530 0.344900 1.919720
C21   C     C_3   0.750699 0.525034 0.918317 0.704976
C22   C     C_3   0.749176 0.473600 0.415832 0.708585
C23   C     C_3   0.250688 0.024980 0.917855 0.711123
C24   C     C_3   0.249418 0.973608 0.415493 0.712863
C25   C     C_3   0.669762 0.529348 0.913989 0.229075
C26   C     C_3   0.667922 0.469729 0.404109 0.250127
C27   C     C_3   0.169781 0.028883 0.913407 0.227635
C28   C     C_3   0.168178 0.969319 0.403181 0.244094
O45   O     O_3   0.081330 0.529680 0.090830 -0.267554
O46   O     O_3   0.081330 0.470320 0.590830 -0.261637
O47   O     O_3   0.581330 0.029680 0.090830 -0.267201
O48   O     O_3   0.581330 0.970320 0.590830 -0.262835
P13   P     P_3+3 0.912321 0.690315 0.066206 0.606720
P14   P     P_3+3 0.909997 0.311234 0.566222 0.559935
P15   P     P_3+3 0.412359 0.190351 0.066302 0.606603
P16   P     P_3+3 0.409868 0.811389 0.567580 0.572121
C29   C     C_3   0.013978 0.241299 0.583183 0.608457
C30   C     C_3   0.005818 0.769421 0.045006 0.519881
C31   C     C_3   0.512471 0.740655 0.582099 0.617182
C32   C     C_3   0.506767 0.269354 0.050154 0.516338
C33   C     C_R   0.134955 0.692689 0.833900 0.053883
C34   C     C_R   0.134806 0.307411 0.334613 0.101526
C35   C     C_R   0.633758 0.193491 0.835089 0.057189
C36   C     C_R   0.634136 0.806944 0.334892 0.077801
C37   C     C_R   0.188056 0.734170 0.900021 -0.201834
C38   C     C_R   0.186412 0.265292 0.401523 -0.234399
C39   C     C_R   0.686307 0.235297 0.901670 -0.211186
C40   C     C_R   0.685371 0.764626 0.402369 -0.221942
C41   C     C_R   0.793053 0.318300 0.037424 -0.114127
C42   C     C_R   0.791789 0.682018 0.538271 -0.114602
C43   C     C_R   0.293924 0.817709 0.037596 -0.109387
C44   C     C_R   0.292529 0.182459 0.537745 -0.118863
C45   C     C_R   0.752861 0.324151 0.887736 -0.092180
C46   C     C_R   0.752705 0.677159 0.387238 -0.081050
C47   C     C_R   0.254833 0.822970 0.886873 -0.092826
C48   C     C_R   0.253602 0.177688 0.386584 -0.088902
C49   C     C_R   0.202268 0.784435 0.820824 0.362132
C50   C     C_R   0.198882 0.214359 0.323184 0.371210
C51   C     C_R   0.698985 0.286384 0.823960 0.370864
C52   C     C_R   0.697882 0.713769 0.324042 0.384364
C53   C     C_R   0.842095 0.362735 0.102976 0.185634
C54   C     C_R   0.840707 0.637580 0.603269 0.184636
C55   C     C_R   0.342466 0.862426 0.103358 0.182511
C56   C     C_R   0.340988 0.137741 0.603102 0.184869
C57   C     C_R   0.868933 0.359566 0.264388 -0.182250
C58   C     C_R   0.867481 0.640993 0.764755 -0.209730
C59   C     C_R   0.368972 0.859174 0.264927 -0.178250
C60   C     C_R   0.367493 0.141101 0.764690 -0.205425
C61   C     C_R   0.158656 0.637246 0.082955 0.165897
C62   C     C_R   0.158204 0.362221 0.584726 0.103010
C63   C     C_R   0.658540 0.137393 0.083255 0.168875
C64   C     C_R   0.657983 0.862059 0.584878 0.104987
C65   C     C_R   0.213471 0.677879 0.142614 -0.036467
C66   C     C_R   0.212407 0.321425 0.645113 -0.040363
C67   C     C_R   0.713349 0.178150 0.142898 -0.030029
C68   C     C_R   0.711778 0.820970 0.645665 -0.044913
C69   C     C_R   0.227206 0.726744 0.055598 0.081831
C70   C     C_R   0.225839 0.272760 0.557244 0.073736
C71   C     C_R   0.726431 0.227338 0.056095 0.077424
C72   C     C_R   0.724834 0.772107 0.558093 0.073348
C73   C     C_R   0.253785 0.671559 0.291650 -0.089657
C74   C     C_R   0.251128 0.326326 0.796748 -0.046087
C75   C     C_R   0.753446 0.172298 0.292584 -0.106880
C76   C     C_R   0.750639 0.825916 0.797193 -0.041226
C77   C     C_R   0.796980 0.215983 0.368904 0.354899
C78   C     C_R   0.794195 0.782402 0.872799 0.408896
C79   C     C_R   0.299077 0.714140 0.367455 0.347741
C80   C     C_R   0.294801 0.282873 0.872197 0.411385
C81   C     C_R   0.812125 0.265951 0.287446 -0.186384
C82   C     C_R   0.810015 0.733313 0.789955 -0.125890
C83   C     C_R   0.313284 0.764915 0.287385 -0.192417
C84   C     C_R   0.310644 0.233767 0.789423 -0.123829
C85   C     C_R   0.778338 0.270060 0.126673 0.064671
C86   C     C_R   0.776353 0.729435 0.628742 0.081080
C87   C     C_R   0.279039 0.769473 0.126762 0.066541
C88   C     C_R   0.277218 0.229992 0.628056 0.079222
C89   C     C_R   0.858256 0.311922 0.357131 0.213804
C90   C     C_R   0.857664 0.688508 0.858172 0.207642
C91   C     C_R   0.359072 0.811106 0.357416 0.197656
C92   C     C_R   0.357990 0.188788 0.857912 0.209535
C93   C     C_R   0.119820 0.647132 0.929460 0.107934
C94   C     C_R   0.120091 0.352730 0.430175 0.098736
C95   C     C_R   0.619316 0.147482 0.930083 0.104667
C96   C     C_R   0.619962 0.852627 0.430171 0.105765
H5    H     H_    0.898875 0.396030 0.320513 0.206604
H6    H     H_    0.896893 0.604651 0.820358 0.209544
H7    H     H_    0.398221 0.895888 0.321397 0.207129
H8    H     H_    0.396627 0.104651 0.820509 0.208522
N1    N     N_R   0.063534 0.215063 0.711677 0.266358
O49   O     O_R   0.041703 0.184387 0.812985 -0.215084
O50   O     O_R   0.127062 0.233869 0.746192 -0.388508
N2    N     N_R   0.072562 0.756460 0.151412 0.209425
O51   O     O_R   0.078732 0.710370 0.236697 -0.340567
O52   O     O_R   0.124827 0.792199 0.170853 -0.363473
N3    N     N_R   0.562424 0.713966 0.708719 0.273581
O53   O     O_R   0.540358 0.678786 0.800646 -0.216310
O54   O     O_R   0.624041 0.736402 0.753857 -0.374996
N4    N     N_R   0.572783 0.256167 0.159053 0.209877
O55   O     O_R   0.578851 0.208644 0.238448 -0.345273
O56   O     O_R   0.624716 0.292405 0.184751 -0.357822
H9    H     H_    0.348294 0.430172 0.305386 0.264964
H10   H     H_    0.350416 0.570190 0.806428 0.260683
H11   H     H_    0.849804 0.931874 0.308162 0.264482
H12   H     H_    0.849166 0.071311 0.804348 0.263048
H13   H     H_    0.335104 0.482111 0.151036 0.247263
H14   H     H_    0.340889 0.512594 0.667199 0.258193
H15   H     H_    0.836735 0.984162 0.154597 0.250830
H16   H     H_    0.839465 0.014246 0.663664 0.253571
N5    N     N_R   0.762587 0.533043 0.766938 0.173813
O57   O     O_R   0.732091 0.574543 0.678497 -0.403761
O58   O     O_R   0.822479 0.516912 0.753038 -0.392573
N6    N     N_R   0.762942 0.462818 0.268274 0.179253
O59   O     O_R   0.737218 0.416389 0.193461 -0.404016
O60   O     O_R   0.822306 0.481463 0.254257 -0.387700
N7    N     N_R   0.262690 0.033132 0.766641 0.175629
O61   O     O_R   0.232765 0.075127 0.679280 -0.416094
O62   O     O_R   0.322543 0.016828 0.752914 -0.390936
N8    N     N_R   0.263287 0.963049 0.267881 0.178162
O63   O     O_R   0.237142 0.916966 0.191765 -0.404686
O64   O     O_R   0.322806 0.981505 0.254438 -0.387830
N9    N     N_R   0.792649 0.568511 0.018599 0.226575
O65   O     O_R   0.859355 0.564875 0.045574 -0.338142
O66   O     O_R   0.767512 0.619915 0.021918 -0.341500
N10   N     N_R   0.788193 0.431072 0.521592 0.221997
O67   O     O_R   0.760517 0.380159 0.524106 -0.341316
O68   O     O_R   0.855076 0.433637 0.547471 -0.333293
N11   N     N_R   0.292249 0.068655 0.017902 0.226242
O69   O     O_R   0.358991 0.065013 0.046004 -0.338382
O70   O     O_R   0.266942 0.120141 0.018383 -0.339826
N12   N     N_R   0.288469 0.931032 0.520910 0.222660
O71   O     O_R   0.260820 0.880085 0.522722 -0.341351
O72   O     O_R   0.355358 0.933718 0.547432 -0.334449
H17   H     H_    0.646996 0.486520 0.872929 0.142363
H18   H     H_    0.645461 0.509835 0.345889 0.155622
H19   H     H_    0.147535 0.985554 0.875581 0.141919
H20   H     H_    0.145490 0.009539 0.345830 0.150470
N13   N     N_R   0.631108 0.572191 0.807444 0.288444
O73   O     O_R   0.565027 0.563565 0.752387 -0.213696
O74   O     O_R   0.654535 0.624801 0.812090 -0.208012
N14   N     N_R   0.630903 0.421422 0.311578 0.273302
O75   O     O_R   0.600727 0.382126 0.377362 -0.233979
O76   O     O_R   0.608475 0.427931 0.162903 -0.350223
N15   N     N_R   0.130731 0.070463 0.803525 0.277132
O77   O     O_R   0.065479 0.059919 0.744303 -0.218752
O78   O     O_R   0.151898 0.123711 0.808788 -0.216016
N16   N     N_R   0.132164 0.921070 0.309068 0.272625
O79   O     O_R   0.108084 0.878075 0.375068 -0.223485
O80   O     O_R   0.106199 0.929087 0.161977 -0.351397
N17   N     N_R   0.653115 0.538200 0.063093 0.245282
O81   O     O_R   0.588269 0.535648 0.067260 -0.256118
O82   O     O_R   0.695741 0.564872 0.174713 -0.395356
N18   N     N_R   0.649928 0.470646 0.553296 0.240025
O83   O     O_R   0.681412 0.436680 0.663686 -0.381617
O84   O     O_R   0.587743 0.487044 0.553660 -0.268520
N19   N     N_R   0.152949 0.039206 0.061804 0.247566
O85   O     O_R   0.088068 0.037582 0.065915 -0.242351
O86   O     O_R   0.196385 0.064620 0.174535 -0.398501
N20   N     N_R   0.149476 0.969181 0.551675 0.239080
O87   O     O_R   0.183690 0.937667 0.664802 -0.383361
O88   O     O_R   0.085777 0.981609 0.549879 -0.277121
H21   H     H_    0.035767 0.284080 0.565525 -0.012854
H22   H     H_    0.000591 0.744181 0.937408 0.000596
H23   H     H_    0.534762 0.782852 0.560433 -0.014942
H24   H     H_    0.502502 0.244191 0.942740 0.004407
H25   H     H_    0.970440 0.228809 0.338510 0.069506
H26   H     H_    0.047590 0.844327 0.947325 0.152678
H27   H     H_    0.448602 0.712437 0.359205 0.088076
H28   H     H_    0.549835 0.344374 0.956153 0.157967
H29   H     H_    0.059541 0.209374 0.404266 0.117237
H30   H     H_    0.008692 0.860007 0.106190 0.202682
H31   H     H_    0.538073 0.720782 0.364647 0.094568
H32   H     H_    0.508960 0.359847 0.111899 0.202093
H33   H     H_    0.862518 0.214031 0.931781 0.214160
H34   H     H_    0.887286 0.807863 0.442457 0.220815
H35   H     H_    0.369324 0.703010 0.000223 0.193311
H36   H     H_    0.384344 0.306252 0.443676 0.218093
H37   H     H_    0.758198 0.361563 0.820238 0.224800
H38   H     H_    0.760545 0.641471 0.317916 0.228409
H39   H     H_    0.260301 0.860238 0.819046 0.224438
H40   H     H_    0.261119 0.141798 0.317530 0.229880
N21   N     N_R   0.158445 0.803273 0.680067 0.264719
O89   O     O_R   0.177252 0.795202 0.551960 -0.206614
O90   O     O_R   0.111482 0.841463 0.685283 -0.319072
N22   N     N_R   0.151389 0.192667 0.188964 0.265769
O91   O     O_R   0.106485 0.153778 0.207329 -0.271332
O92   O     O_R   0.168450 0.194756 0.057602 -0.190517
N23   N     N_R   0.652397 0.306693 0.688494 0.263990
O93   O     O_R   0.669051 0.302356 0.556870 -0.194250
O94   O     O_R   0.604360 0.342597 0.702437 -0.333136
N24   N     N_R   0.650793 0.692598 0.188690 0.265001
O95   O     O_R   0.604415 0.654646 0.204440 -0.281459
O96   O     O_R   0.668261 0.695183 0.057848 -0.193667
N25   N     N_R   0.817645 0.209510 0.532904 0.269751
O97   O     O_R   0.778116 0.231206 0.614105 -0.328224
O98   O     O_R   0.854363 0.164823 0.589235 -0.320210
N26   N     N_R   0.816589 0.788975 0.036823 0.258232
O99   O     O_R   0.777840 0.766862 0.120309 -0.336029
O100  O     O_R   0.854096 0.833938 0.091990 -0.359816
N27   N     N_R   0.326230 0.703617 0.528542 0.265063
O101  O     O_R   0.291440 0.722139 0.624298 -0.323568
O102  O     O_R   0.364783 0.658302 0.568735 -0.329982
N28   N     N_R   0.317161 0.289505 0.036143 0.257497
O103  O     O_R   0.278536 0.267126 0.119555 -0.334306
O104  O     O_R   0.354037 0.334844 0.090920 -0.365340
H41   H     H_    0.248264 0.633750 0.356840 0.213552
H42   H     H_    0.244477 0.362950 0.864766 0.205248
H43   H     H_    0.747490 0.134895 0.358884 0.214370
H44   H     H_    0.744294 0.862719 0.864760 0.206554
N29   N     N_R   0.056902 0.616732 0.875923 0.226416
O105  O     O_R   0.002278 0.648098 0.842437 -0.555129
O106  O     O_R   0.055745 0.567335 0.807091 -0.273856
N30   N     N_R   0.056238 0.381164 0.378195 0.224339
O107  O     O_R   0.002411 0.347942 0.344646 -0.571275
O108  O     O_R   0.053409 0.431265 0.311538 -0.274112
N31   N     N_R   0.556388 0.117084 0.876768 0.226282
O109  O     O_R   0.501867 0.148546 0.842315 -0.556224
O110  O     O_R   0.555200 0.067557 0.808607 -0.274478
N32   N     N_R   0.556783 0.881892 0.377415 0.224720
O111  O     O_R   0.502368 0.849416 0.344545 -0.574869
O112  O     O_R   0.554907 0.931824 0.310217 -0.272933
N33   N     N_R   0.988456 0.146269 0.438335 0.294407
O113  O     O_R   0.971018 0.124206 0.557605 -0.230107
O114  O     O_R   0.986960 0.113326 0.319540 -0.284568
N34   N     N_R   0.939812 0.849647 0.889249 0.264923
O115  O     O_R   0.913910 0.900558 0.897650 -0.319431
O116  O     O_R   0.917006 0.819070 0.765311 -0.487206
N35   N     N_R   0.512188 0.643197 0.459615 0.321669
O117  O     O_R   0.459916 0.607549 0.421857 -0.286204
O118  O     O_R   0.574597 0.622824 0.485572 -0.249190
N36   N     N_R   0.442072 0.349719 0.892720 0.266772
O119  O     O_R   0.417296 0.401298 0.896990 -0.319706
O120  O     O_R   0.419249 0.318274 0.770463 -0.486834
H45   H     H_    0.954749 0.280824 0.908625 0.152228
H46   H     H_    0.951828 0.717982 0.429960 0.134501
H47   H     H_    0.444848 0.782249 0.938088 0.142103
H48   H     H_    0.450611 0.217204 0.429903 0.133010
H49   H     H_    0.943237 0.282934 0.104229 0.024760
H50   H     H_    0.963662 0.740763 0.629096 0.069306
H51   H     H_    0.453964 0.772357 0.143893 0.024650
H52   H     H_    0.461754 0.239694 0.628974 0.071120
H53   H     H_    0.935171 0.172152 0.910553 0.320792
H54   H     H_    0.956533 0.820815 0.347485 0.270876
H55   H     H_    0.429281 0.677600 0.894806 0.313307
H56   H     H_    0.452944 0.320024 0.347294 0.271389
H57   H     H_    0.917054 0.179673 0.098166 0.245171
H58   H     H_    0.966770 0.844122 0.542355 0.282994
H59   H     H_    0.445652 0.664588 0.100559 0.271139
H60   H     H_    0.463449 0.343431 0.541823 0.286884
N37   N     N_R   0.240368 0.465084 0.416875 0.164758
O121  O     O_R   0.274946 0.422929 0.496383 -0.440029
O122  O     O_R   0.180222 0.477722 0.436175 -0.395294
N38   N     N_R   0.240196 0.535273 0.917450 0.161784
O123  O     O_R   0.274280 0.578387 0.995261 -0.470090
O124  O     O_R   0.179433 0.522374 0.934396 -0.391635
N39   N     N_R   0.740749 0.965492 0.417468 0.163661
O125  O     O_R   0.775025 0.923033 0.496205 -0.437865
O126  O     O_R   0.680435 0.977902 0.436129 -0.395699
N40   N     N_R   0.740011 0.035432 0.917311 0.162426
O127  O     O_R   0.774127 0.078548 0.995036 -0.468205
O128  O     O_R   0.679416 0.022363 0.934970 -0.391738
N41   N     N_R   0.209151 0.435823 0.158164 0.213921
O129  O     O_R   0.239368 0.389739 0.125179 -0.390515
O130  O     O_R   0.143016 0.432764 0.144292 -0.306432
N42   N     N_R   0.213581 0.562146 0.657155 0.217584
O131  O     O_R   0.147918 0.567936 0.645453 -0.308541
O132  O     O_R   0.246630 0.604398 0.610366 -0.391891
N43   N     N_R   0.710884 0.936755 0.158364 0.215775
O133  O     O_R   0.742007 0.891578 0.123182 -0.388412
O134  O     O_R   0.644797 0.932764 0.144431 -0.306311
N44   N     N_R   0.711916 0.062433 0.657106 0.216847
O135  O     O_R   0.646216 0.067543 0.645814 -0.306927
O136  O     O_R   0.744148 0.105460 0.611732 -0.392560

loop_
_geom_bond_atom_site_label_1
_geom_bond_atom_site_label_2
_geom_bond_distance
_ccdc_geom_bond_type
C61   C65   1.434609 A    
Ba2   O46   2.918196 S    
C23   C27   1.606049 S    
C30   H22   1.106355 S    
C64   C68   1.441309 A    
C75   H43   1.067827 S    
N37   O121  1.302619 A    
C63   C67   1.436363 A    
C59   H7    1.078622 S    
C34   C94   1.428886 A    
C40   C52   1.423761 A    
C80   N28   1.427743 S    
N23   O93   1.298806 A    
O12   Ba4   2.884037 S    
N24   O95   1.300275 A    
C77   C81   1.431089 A    
N4    O55   1.295592 A    
C18   H14   1.110116 S    
C14   N42   1.450954 S    
C80   C84   1.434559 A    
P6    O26   1.623376 D    
C14   C18   1.545955 S    
N20   O88   1.300077 A    
C4    C32   1.540309 S    
O31   Ba3   2.884689 S    
P4    O8    1.619777 S    
O13   P14   1.544803 D    
C20   H12   1.111311 S    
C47   C49   1.386221 A    
N7    O61   1.297742 A    
C96   N32   1.410126 S    
C11   H55   1.108203 S    
C35   C95   1.427815 A    
N8    O63   1.299203 A    
C22   C26   1.598181 S    
C49   N21   1.412281 S    
C12   H36   1.111041 S    
N40   O127  1.302686 A    
N6    O59   1.298652 A    
N36   O119  1.299130 A    
C31   H23   1.104049 S    
C81   C89   1.437674 A    
C9    H33   1.110007 S    
O32   Ba4   2.886479 S    
O24   C32   1.411411 S    
N15   O77   1.299166 A    
P4    Ba4   3.546426 S    
C4    N36   1.454485 S    
C2    C30   1.541151 S    
C3    H27   1.108894 S    
C46   C52   1.393171 A    
N16   O80   1.299720 A    
P12   C35   1.922657 S    
N30   O107  1.287938 A    
N22   O92   1.296711 A    
P6    O38   1.788880 S    
P3    Ba3   3.537163 S    
P1    O1    1.623518 D    
P8    O28   1.623376 D    
P9    O29   1.752846 S    
P8    C63   1.964422 S    
P11   O31   1.749881 S    
P12   O32   1.745195 S    
C8    H48   1.108109 S    
O29   Ba1   2.884689 S    
N38   O123  1.302688 A    
O41   C5    1.407061 S    
C10   H54   1.106597 S    
O7    Ba4   2.909405 S    
O43   C7    1.407288 S    
O44   C8    1.402062 S    
C83   C91   1.438695 A    
O22   C30   1.411568 S    
N28   O104  1.300145 A    
C37   C49   1.419614 A    
O16   P15   1.544639 D    
N42   O131  1.294883 A    
P16   C91   1.898980 S    
C55   C59   1.409343 A    
P3    O7    1.610128 S    
C5    C9    1.524256 S    
N5    O57   1.297567 A    
C82   C86   1.432047 A    
C17   H1    1.111522 S    
C60   H8    1.077191 S    
C24   N8    1.430546 S    
P1    Ba1   3.537163 S    
P9    O41   1.762063 S    
O3    Ba3   2.908300 S    
P12   O44   1.753920 S    
O27   Ba3   2.928229 S    
C29   N1    1.452283 S    
N43   O133  1.297210 A    
P5    O46   1.626304 S    
C21   N9    1.460285 S    
P7    O48   1.626304 S    
C5    H45   1.106836 S    
N13   O73   1.301550 A    
C8    C12   1.523703 S    
C76   C78   1.395059 A    
C25   N13   1.458634 S    
C42   C54   1.442481 A    
N12   O72   1.296287 A    
N18   O83   1.296677 A    
C25   N17   1.461144 S    
C2    N34   1.454911 S    
C22   N6    1.430121 S    
O30   Ba2   2.886479 S    
C67   C71   1.430790 A    
C69   C87   1.452372 A    
C33   C93   1.428110 A    
N33   O114  1.300166 A    
C16   N40   1.429901 S    
C77   N25   1.426052 S    
P7    O27   1.620120 D    
N17   O81   1.302232 A    
C39   C71   1.425030 A    
C58   C90   1.423684 A    
N2    O52   1.301393 A    
C36   C96   1.429686 A    
N25   O97   1.297272 A    
C9    H53   1.107351 S    
N34   O116  1.295946 A    
N1    O50   1.298429 A    
P11   C36   1.927554 S    
N32   O112  1.295609 A    
C6    C10   1.523473 S    
C83   C87   1.431398 A    
C84   C88   1.432096 A    
N26   O99   1.296666 A    
C93   N29   1.409403 S    
C3    N35   1.459577 S    
C44   C48   1.384661 A    
C73   C79   1.389033 A    
Ba4   O47   3.106538 S    
C1    H25   1.106630 S    
C19   H15   1.109861 S    
P2    O18   1.800896 S    
N29   O105  1.286212 A    
C20   H16   1.109976 S    
C53   C57   1.408785 A    
N31   O110  1.295088 A    
Ba3   Ba4   4.864733 S    
C62   C94   1.417570 A    
C57   C89   1.420437 A    
N19   O86   1.293364 A    
C16   N44   1.451800 S    
N21   O90   1.301628 A    
P9    O33   1.549081 D    
C41   C45   1.385003 A    
O24   P15   1.758715 S    
N15   O78   1.294863 A    
C1    H29   1.105916 S    
N35   O118  1.300493 A    
C26   N18   1.459091 S    
C8    H52   1.110732 S    
C9    H57   1.107595 S    
C51   N23   1.413183 S    
C33   C37   1.437420 A    
N39   O126  1.287659 A    
C35   C39   1.436490 A    
C82   C90   1.441185 A    
C20   H4    1.107616 S    
C10   H34   1.111037 S    
C17   H9    1.111243 S    
C43   C47   1.383966 A    
C79   C83   1.433443 A    
C3    H31   1.107642 S    
C41   C85   1.436936 A    
P10   C33   1.920995 S    
Ba1   O46   3.102349 S    
P8    O47   1.616515 S    
C19   H3    1.111684 S    
C66   C74   1.387124 A    
Ba3   O48   3.102349 S    
N24   O96   1.296579 A    
N4    O56   1.301590 A    
P10   O30   1.743697 S    
O22   P13   1.758794 S    
N44   O135  1.294559 A    
N27   O101  1.299282 A    
C63   C95   1.417360 A    
C37   C69   1.425834 A    
P6    Ba2   3.538580 S    
C11   H35   1.108616 S    
C10   H58   1.109374 S    
O42   C6    1.401814 S    
C32   N4    1.465346 S    
P11   O35   1.547965 D    
N19   O85   1.302198 A    
C23   N7    1.436318 S    
O11   P16   1.742542 S    
C12   H56   1.106023 S    
C29   H21   1.102697 S    
N14   O75   1.299637 A    
C94   N30   1.411163 S    
N8    O64   1.289176 A    
C7    H47   1.109364 S    
C65   C73   1.382208 A    
C75   C77   1.390876 A    
C44   C88   1.442119 A    
P3    O3    1.623518 D    
P4    O20   1.801031 S    
N40   O128  1.287993 A    
C54   C58   1.409445 A    
N36   O120  1.295670 A    
C76   H44   1.069903 S    
O9    Ba1   2.885745 S    
C42   C86   1.441823 A    
P10   O42   1.753256 S    
P5    C62   1.972072 S    
N10   O67   1.297627 A    
C32   H24   1.106518 S    
C2    H30   1.109341 S    
C13   C17   1.546435 S    
O14   P13   1.544858 D    
N41   O130  1.294246 A    
C16   C20   1.546338 S    
O5    Ba2   2.909405 S    
C45   H37   1.071293 S    
N30   O108  1.295628 A    
Ba2   O45   3.106538 S    
C23   N11   1.459208 S    
O37   C14   1.412772 S    
N37   O122  1.287717 A    
O17   C21   1.425171 S    
O23   P16   1.743547 S    
P4    C56   1.978441 S    
C50   N22   1.421070 S    
C5    H49   1.107615 S    
P1    O5    1.610128 S    
N38   O124  1.288144 A    
C66   C70   1.436570 A    
C22   N10   1.452788 S    
P7    Ba3   3.548107 S    
O11   Ba3   2.885745 S    
N1    O49   1.299664 A    
C39   C51   1.418940 A    
C36   C40   1.441019 A    
O8    Ba3   2.919519 S    
C43   C87   1.437553 A    
N31   O109  1.286094 A    
C60   C92   1.423914 A    
C26   N14   1.471150 S    
P8    O40   1.788337 S    
C61   C93   1.416536 A    
O1    Ba1   2.908300 S    
C13   N37   1.429048 S    
N39   O125  1.302694 A    
C59   C91   1.422341 A    
O40   C15   1.414039 S    
O25   Ba1   2.928229 S    
C4    H32   1.109178 S    
N42   O132  1.296574 A    
N20   O87   1.296650 A    
C1    C29   1.538475 S    
O20   C24   1.425824 S    
C73   H41   1.067748 S    
N6    O60   1.289321 A    
P2    Ba2   3.546426 S    
C15   N43   1.455471 S    
O10   Ba2   2.884037 S    
P14   C89   1.896547 S    
C65   C69   1.430056 A    
C21   C25   1.607500 S    
C27   N15   1.457704 S    
O4    Ba4   2.925608 S    
C19   H11   1.111305 S    
C68   C72   1.436177 A    
N26   O100  1.299949 A    
O28   Ba4   2.910699 S    
O15   P16   1.544311 D    
N43   O134  1.294369 A    
O6    Ba1   2.919519 S    
P5    O25   1.620120 D    
C38   C50   1.425044 A    
O21   C29   1.408835 S    
O38   C13   1.414914 S    
C58   H6    1.077030 S    
C13   N41   1.456987 S    
O23   C31   1.406714 S    
N18   O84   1.299746 A    
C31   N3    1.450382 S    
O18   C22   1.426050 S    
C81   C85   1.429743 A    
N16   O79   1.299808 A    
C78   N26   1.428300 S    
N3    O53   1.300333 A    
C11   H59   1.109956 S    
N22   O91   1.300388 A    
N13   O74   1.295879 A    
N33   O113  1.297691 A    
C18   H2    1.107502 S    
N7    O62   1.287956 A    
C17   H13   1.109662 S    
C18   H10   1.111469 S    
N35   O117  1.300564 A    
P1    O17   1.800364 S    
O2    Ba2   2.925608 S    
N27   O102  1.301774 A    
P3    O19   1.798032 S    
O26   Ba2   2.910699 S    
P6    O45   1.616515 S    
P4    O4    1.620262 D    
C68   C76   1.387292 A    
Ba1   Ba2   4.864733 S    
N9    O65   1.294992 A    
C67   C75   1.384343 A    
C24   N12   1.452238 S    
C57   H5    1.078969 S    
P1    C53   1.954765 S    
N28   O103  1.296766 A    
P3    C55   1.960917 S    
C41   C53   1.434360 A    
C30   N2    1.465424 S    
C43   C55   1.433791 A    
C38   C70   1.427954 A    
Ba4   O48   2.918196 S    
O9    P14   1.744854 S    
C28   H20   1.105716 S    
C52   N24   1.420182 S    
C47   H39   1.070939 S    
C24   C28   1.597417 S    
N5    O58   1.287977 A    
C12   H60   1.109031 S    
N21   O89   1.299797 A    
O39   C16   1.412890 S    
P11   O43   1.757579 S    
C6    H46   1.108241 S    
O19   C23   1.424686 S    
P2    O2    1.620262 D    
C28   N20   1.459497 S    
C56   C60   1.409544 A    
C48   C50   1.393004 A    
C71   C85   1.451768 A    
C7    H51   1.108197 S    
P5    O37   1.789069 S    
C7    C11   1.523297 S    
C26   H18   1.104958 S    
P7    O39   1.788294 S    
N12   O71   1.297393 A    
C64   C96   1.417992 A    
P6    C61   1.963520 S    
C48   H40   1.067665 S    
P12   O36   1.543804 D    
C14   N38   1.430253 S    
C2    H26   1.111768 S    
C3    C31   1.542077 S    
N11   O69   1.295104 A    
C79   N27   1.426049 S    
Ba1   O45   2.908065 S    
C46   H38   1.067368 S    
C28   N16   1.469441 S    
Ba3   O47   2.908065 S    
C1    N33   1.464288 S    
N17   O82   1.293145 A    
C42   C46   1.384879 A    
C74   C80   1.394761 A    
P2    C54   1.977450 S    
N2    O51   1.296266 A    
N11   O70   1.297544 A    
N44   O136  1.295300 A    
N25   O98   1.298685 A    
C78   C82   1.434423 A    
C72   C86   1.457139 A    
P2    O6    1.619777 S    
N34   O115  1.299332 A    
O10   P13   1.753388 S    
C34   C38   1.441214 A    
N23   O94   1.301530 A    
N32   O111  1.286774 A    
C95   N31   1.409279 S    
C70   C88   1.457333 A    
N14   O76   1.299435 A    
P7    C64   1.973447 S    
C62   C66   1.441495 A    
O12   P15   1.753365 S    
P10   O34   1.543955 D    
C4    H28   1.110993 S    
C40   C72   1.428235 A    
C45   C51   1.387477 A    
P9    C34   1.923465 S    
N29   O106  1.295283 A    
C15   C19   1.546576 S    
C74   H42   1.070621 S    
C21   N5    1.436465 S    
P8    Ba4   3.538580 S    
C15   N39   1.429778 S    
C27   H19   1.111031 S    
C6    H50   1.110865 S    
C25   H17   1.110325 S    
P15   C92   1.908028 S    
O21   P14   1.749985 S    
C84   C92   1.441342 A    
N10   O68   1.296453 A    
P13   C90   1.907392 S    
C44   C56   1.442589 A    
C27   N19   1.462056 S    
N41   O129  1.297824 A    
N9    O66   1.297236 A    
P5    Ba1   3.548107 S    
N3    O54   1.298494 A    
