data_mof_unit_28988.cif
_audit_creation_date              2012-12-11T15:56:03-0500
_audit_creation_method            fapswitch 2.2
_symmetry_space_group_name_H-M    P1
_symmetry_Int_Tables_number       1
_space_group_crystal_system       triclinic
_cell_length_a                    11.128418
_cell_length_b                    11.118041
_cell_length_c                    18.636953
_cell_angle_alpha                 90.46629
_cell_angle_beta                  90.902482
_cell_angle_gamma                 59.494134
_cell_volume                      1986.44672765

loop_
_atom_site_label
_atom_site_type_symbol
_atom_type_description
_atom_site_fract_x
_atom_site_fract_y
_atom_site_fract_z
_atom_type_partial_charge
C1    C     C_R   0.353531 0.779052 0.400628 0.525446
C2    C     C_R   0.642882 0.091459 0.166482 0.036609
C3    C     C_R   0.393824 0.323638 0.153816 -0.001733
C4    C     C_R   0.492643 0.228005 0.270734 -0.156974
C5    C     C_R   0.505412 0.213787 0.195697 -0.061949
C6    C     C_R   0.122283 0.682167 0.313130 -0.002320
C7    C     C_R   0.988602 0.787602 0.331232 -0.118346
C8    C     C_R   0.654689 0.989355 0.115690 -0.071553
C9    C     C_R   0.781731 0.885867 0.089041 -0.147304
C10   C     C_R   0.311528 0.452071 0.185258 -0.004891
C11   C     C_R   0.284969 0.455959 0.258752 -0.067985
C12   C     C_R   0.391777 0.358051 0.384145 0.560876
C13   C     C_R   0.875016 0.778027 0.307299 -0.135296
C14   C     C_R   0.896147 0.663486 0.265948 -0.091668
C15   C     C_R   0.030386 0.559831 0.249911 -0.046338
C16   C     C_R   0.144529 0.561413 0.280390 0.065834
C17   C     C_R   0.379210 0.344153 0.304223 -0.015462
C18   C     C_R   0.929972 0.307827 0.192487 -0.000085
C19   C     C_R   0.797642 0.333841 0.208099 0.040648
C20   C     C_R   0.754978 0.348992 0.278185 -0.108711
C21   C     C_R   0.977852 0.310353 0.321193 0.246436
C22   C     C_R   0.023273 0.288480 0.249362 -0.183621
C23   C     C_R   0.780118 0.377076 0.404732 0.582789
C24   C     C_3   0.660028 0.449747 0.181867 0.174132
C25   C     C_3   0.615701 0.470446 0.259466 -0.206204
C26   C     C_R   0.842101 0.339156 0.334889 0.034063
C27   C     C_R   0.297538 0.935355 0.189332 0.030613
C28   C     C_R   0.429384 0.853365 0.220140 0.018890
C29   C     C_R   0.441663 0.819162 0.292553 0.045129
C30   C     C_R   0.195048 0.938863 0.304583 -0.174477
C31   C     C_R   0.181217 0.978730 0.232879 -0.133590
C32   C     C_3   0.535266 0.894946 0.232693 -0.244742
C33   C     C_3   0.548681 0.854317 0.310498 0.130906
C34   C     C_R   0.342596 0.772187 0.603023 0.541553
C35   C     C_R   0.327937 0.854798 0.334228 0.039749
C36   C     C_R   0.297253 0.304173 0.807343 0.018981
C37   C     C_R   0.401591 0.191465 0.769563 0.042452
C38   C     C_R   0.412771 0.195330 0.696999 0.021463
C39   C     C_R   0.198592 0.417953 0.693209 -0.167875
C40   C     C_R   0.187624 0.412763 0.767999 -0.169840
C41   C     C_3   0.555553 0.111445 0.782570 -0.271123
C42   C     C_3   0.569583 0.113877 0.702379 -0.271599
C43   C     C_R   0.320566 0.316103 0.658899 0.017149
C44   C     C_R   0.807964 0.332544 0.837594 0.015141
C45   C     C_R   0.369280 0.348423 0.594286 0.545917
C46   C     C_R   0.746989 0.463448 0.804297 0.019438
C47   C     C_R   0.739189 0.472697 0.730962 0.045758
C48   C     C_R   0.826445 0.226615 0.720095 -0.173960
C49   C     C_R   0.835749 0.215531 0.795127 -0.164785
C50   C     C_3   0.775256 0.582185 0.809705 -0.272726
C51   C     C_3   0.770241 0.588082 0.728784 -0.267247
C52   C     C_R   0.788045 0.354821 0.687509 0.023680
C53   C     C_R   0.289420 0.869185 0.820511 0.021278
C54   C     C_R   0.180040 0.873869 0.781315 0.025729
C55   C     C_R   0.187768 0.860016 0.707871 0.024491
C56   C     C_R   0.760309 0.378546 0.611239 0.549546
C57   C     C_R   0.397770 0.871858 0.708194 -0.159522
C58   C     C_R   0.393193 0.879509 0.782810 -0.147668
C59   C     C_3   0.114268 0.786973 0.789516 -0.283546
C60   C     C_3   0.123513 0.769819 0.708858 -0.265287
C61   C     C_R   0.304102 0.845081 0.671086 0.019484
C62   C     C_R   0.972072 0.290305 0.118272 0.527541
C63   C     C_R   0.334767 0.292664 0.090018 0.586210
C64   C     C_R   0.272828 0.961266 0.112071 0.537716
C65   C     C_R   0.879583 0.310746 0.906121 0.551617
C66   C     C_R   0.292444 0.285240 0.883856 0.561782
C67   C     C_R   0.903770 0.867558 0.118885 -0.066268
C68   C     C_R   0.272212 0.899961 0.896510 0.547501
C69   C     C_R   0.897288 0.949403 0.176872 -0.078380
C70   C     C_R   0.769860 0.061492 0.199550 -0.124380
Cr1   Cr    Cr6+3 0.601740 0.606840 0.505840 0.995101
Cr2   Cr    Cr6+3 0.291500 0.601560 0.495070 1.014214
Cr3   Cr    Cr6+3 0.606780 0.291630 0.499130 0.984159
Cr4   Cr    Cr6+3 0.062440 0.063060 0.008240 1.005791
Cr5   Cr    Cr6+3 0.062950 0.375000 0.998920 1.010599
Cr6   Cr    Cr6+3 0.374550 0.061770 0.992470 0.967651
H1    H     H_    0.573669 0.145887 0.303229 0.176458
H2    H     H_    0.772701 0.866354 0.314740 0.125028
H3    H     H_    0.811697 0.654781 0.243166 0.146961
H4    H     H_    0.045635 0.486014 0.208417 0.125006
H5    H     H_    0.128387 0.263834 0.237493 0.092355
H6    H     H_    0.603993 0.410577 0.147479 0.115710
H7    H     H_    0.604454 0.565591 0.284357 0.154996
H8    H     H_    0.529639 0.452113 0.270084 0.111235
H9    H     H_    0.103081 0.972859 0.336311 0.104184
H10   H     H_    0.785302 0.812239 0.049482 0.099839
H11   H     H_    0.078991 0.042936 0.210374 0.118022
H12   H     H_    0.485035 0.007898 0.224794 0.159962
H13   H     H_    0.628963 0.828417 0.201163 0.124901
H14   H     H_    0.646429 0.758567 0.326956 0.117936
H15   H     H_    0.119763 0.508053 0.663974 0.122827
H16   H     H_    0.099083 0.496539 0.794917 0.117905
H17   H     H_    0.594361 0.004952 0.803960 0.130410
H18   H     H_    0.593296 0.173437 0.812207 0.146725
H19   H     H_    0.618983 0.174634 0.686933 0.175154
H20   H     H_    0.971344 0.881300 0.358102 0.100281
H21   H     H_    0.615088 0.008904 0.677274 0.118776
H22   H     H_    0.855198 0.134573 0.687899 0.122803
H23   H     H_    0.879013 0.113006 0.818890 0.140119
H24   H     H_    0.879868 0.554351 0.830591 0.165127
H25   H     H_    0.687933 0.675972 0.835069 0.123066
H26   H     H_    0.682734 0.685911 0.706983 0.141619
H27   H     H_    0.873082 0.555226 0.704534 0.136811
H28   H     H_    0.480843 0.874613 0.680392 0.114886
H29   H     H_    0.472378 0.890921 0.810874 0.131845
H30   H     H_    0.005277 0.848742 0.808733 0.132876
H31   H     H_    0.001898 0.782265 0.100927 0.168311
H32   H     H_    0.182071 0.688183 0.819217 0.143282
H33   H     H_    0.198429 0.661213 0.692357 0.168800
H34   H     H_    0.019923 0.819579 0.681365 0.128203
H35   H     H_    0.990165 0.917806 0.207602 0.158533
H36   H     H_    0.770828 0.117697 0.246518 0.103444
H37   H     H_    0.208369 0.698102 0.313053 0.173811
H38   H     H_    0.571592 0.971246 0.102569 0.176541
O1    O     O_R   0.748670 0.497520 0.427970 -0.498691
O2    O     O_R   0.300170 0.471020 0.567120 -0.502552
O3    O     O_R   0.491630 0.259030 0.574940 -0.534443
O4    O     O_R   0.718640 0.304340 0.577850 -0.511782
O5    O     O_3   0.500010 0.500010 0.500020 -0.255484
O6    O     O_R   0.186620 0.923750 0.087000 -0.493209
O7    O     O_R   0.957350 0.194160 0.084660 -0.512442
O8    O     O_R   0.935120 0.407280 0.085350 -0.485430
O9    O     O_R   0.203800 0.365060 0.067090 -0.484565
O10   O     O_R   0.417470 0.174910 0.067830 -0.554625
O11   O     O_R   0.375160 0.946380 0.070880 -0.544505
O12   O     O_R   0.476470 0.723930 0.429450 -0.511711
O13   O     O_R   0.160500 0.919670 0.926690 -0.517836
O14   O     O_R   0.933140 0.190380 0.936050 -0.498954
O15   O     O_R   0.909010 0.403210 0.925030 -0.532119
O16   O     O_R   0.179590 0.361290 0.918480 -0.497021
O17   O     O_R   0.391360 0.170840 0.907510 -0.518920
O18   O     O_R   0.350950 0.942600 0.922260 -0.513947
O19   O     O_3   0.166650 0.166610 0.999880 -0.293608
O20   O     O_R   0.264730 0.744140 0.416740 -0.552975
O21   O     O_R   0.309440 0.472410 0.418220 -0.483987
O22   O     O_R   0.501630 0.260530 0.414310 -0.531791
O23   O     O_R   0.727920 0.305730 0.428950 -0.520219
O24   O     O_R   0.738670 0.496020 0.588600 -0.516535
O25   O     O_R   0.467190 0.722540 0.578350 -0.513604
O26   O     O_R   0.254720 0.742640 0.577370 -0.523929
O27   O     O_3   0.052050 0.332182 0.374947 -0.559340
C71   C     C_3   0.173525 0.205593 0.392178 -0.094441
H39   H     H_    0.243279 0.162085 0.345364 0.174909
H40   H     H_    0.147057 0.129402 0.414190 0.110901
H41   H     H_    0.231711 0.225824 0.434809 0.158943
O28   O     O_3   0.669840 0.563678 0.155906 -0.572489
C72   C     C_3   0.604057 0.604878 0.088080 -0.079096
H42   H     H_    0.617364 0.690831 0.067766 0.144895
H43   H     H_    0.490394 0.644525 0.092102 0.164090
H44   H     H_    0.652473 0.517602 0.048755 0.140007
O29   O     O_3   0.496524 0.972523 0.356260 -0.599647
C73   C     C_3   0.574362 0.942584 0.421003 -0.104290
H45   H     H_    0.624103 0.832161 0.438843 0.132622
H46   H     H_    0.502910 0.007910 0.464148 0.143787
H47   H     H_    0.655267 0.972053 0.416156 0.121010
C74   C     C_2   0.263694 0.580809 0.141856 0.535295
O30   O     O_2   0.226511 0.691956 0.171861 -0.556630
O31   O     O_R   0.273393 0.573401 0.066995 -0.711380
H48   H     H_    0.242708 0.667068 0.043964 0.344384

loop_
_geom_bond_atom_site_label_1
_geom_bond_atom_site_label_2
_ccdc_geom_bond_type
C44   C49   A    
C7    C13   A    
C21   C26   A    
Cr3   O5    S    
C2    C70   A    
C63   O9    A    
Cr5   O8    S    
C69   H35   S    
C41   C42   S    
C19   C20   A    
C9    C67   A    
C63   O10   A    
C66   O17   A    
C41   H18   S    
C53   C54   A    
C51   H26   S    
C7    H20   S    
C20   C26   A    
C30   C35   A    
Cr5   O9    S    
C21   C22   A    
C28   C29   A    
C72   H43   S    
C38   C42   S    
C30   C31   A    
Cr6   O17   S    
C36   C66   S    
C20   C25   S    
C51   H27   S    
C15   C16   A    
C32   H12   S    
Cr4   O19   S    
C29   C33   S    
C34   O25   A    
C18   C19   A    
C23   C26   S    
C68   O18   A    
C53   C68   S    
C24   H6    S    
C60   H33   S    
C72   H42   S    
C54   C55   A    
C71   H39   S    
C41   H17   S    
Cr4   O13   S    
C8    C9    A    
C12   O21   A    
C12   C17   S    
C25   H8    S    
O29   C73   S    
C73   H47   S    
Cr1   O12   S    
C33   H14   S    
Cr5   O16   S    
C8    H38   S    
C59   C60   S    
C13   C14   A    
Cr6   O11   S    
C71   H41   S    
C44   C65   S    
C39   H15   S    
C44   C46   A    
C46   C50   S    
Cr1   O24   S    
C54   C59   S    
Cr4   O14   S    
C59   H30   S    
Cr3   O3    S    
C27   C31   A    
C42   H19   S    
Cr6   O10   S    
C65   O14   A    
C36   C40   A    
C72   H44   S    
C31   H11   S    
C1    O12   A    
C33   O29   S    
C42   H21   S    
C10   C74   S    
C39   C40   A    
C18   C62   S    
Cr2   O21   S    
C39   C43   A    
C6    C16   A    
C34   C61   S    
C40   H16   S    
C67   C69   A    
C22   H5    S    
C6    H37   S    
C37   C38   A    
C65   O15   A    
C47   C51   S    
C9    H10   S    
C49   H23   S    
C56   O24   A    
C11   C16   S    
Cr2   O20   S    
C15   H4    S    
Cr3   O22   S    
C28   C32   S    
C53   C58   A    
C50   C51   S    
Cr1   O1    S    
C14   H3    S    
C24   C25   S    
C30   H9    S    
C43   C45   S    
C68   O13   A    
C47   C52   A    
C70   H36   S    
C4    C17   A    
C48   C49   A    
C73   H46   S    
C10   C11   A    
C32   H13   S    
O31   H48   S    
C71   H40   S    
C2    C5    S    
Cr2   O26   S    
C1    O20   A    
C62   O8    A    
Cr4   O6    S    
C1    C35   S    
O28   C72   S    
C45   O3    A    
C57   H28   S    
C29   C35   A    
C46   C47   A    
C74   O30   D    
Cr3   O4    S    
C18   C22   A    
C56   O4    A    
C23   O23   A    
C2    C8    A    
C4    C5    A    
C3    C5    A    
C11   C17   A    
Cr1   O25   S    
Cr6   O19   S    
Cr5   O19   S    
C57   C61   A    
C6    C7    A    
C3    C63   S    
C48   H22   S    
Cr2   O2    S    
C50   H24   S    
C59   H32   S    
C64   O6    A    
Cr1   O5    S    
C58   H29   S    
C32   C33   S    
C74   O31   S    
C19   C24   S    
C21   O27   S    
C38   C43   A    
C3    C10   A    
C24   O28   S    
O27   C71   S    
Cr6   O18   S    
C45   O2    A    
C67   H31   S    
C57   C58   A    
Cr3   O23   S    
C55   C61   A    
Cr2   O5    S    
C34   O26   A    
C37   C41   S    
C69   C70   A    
C60   H34   S    
C27   C64   S    
C13   H2    S    
C23   O1    A    
Cr5   O15   S    
C4    H1    S    
C48   C52   A    
Cr4   O7    S    
C73   H45   S    
C50   H25   S    
C36   C37   A    
C64   O11   A    
C12   O22   A    
C27   C28   A    
C25   H7    S    
C14   C15   A    
C55   C60   S    
C62   O7    A    
C52   C56   S    
C66   O16   A    
