data_mof_unit_40618.cif
_audit_creation_date              2012-12-11T15:55:51-0500
_audit_creation_method            fapswitch 2.2
_symmetry_space_group_name_H-M    P1
_symmetry_Int_Tables_number       1
_space_group_crystal_system       triclinic
_cell_length_a                    6.924653
_cell_length_b                    14.549569
_cell_length_c                    16.094223
_cell_angle_alpha                 90.01408
_cell_angle_beta                  89.989242
_cell_angle_gamma                 89.876872
_cell_volume                      1621.50067888

loop_
_atom_site_label
_atom_site_type_symbol
_atom_type_description
_atom_site_fract_x
_atom_site_fract_y
_atom_site_fract_z
_atom_type_partial_charge
O1    O     O_R   0.505680 0.583900 0.413320 -0.543637
O2    O     O_R   0.176010 0.594950 0.586080 -0.510114
O3    O     O_R   0.005680 0.416100 0.586680 -0.535846
C1    C     C_R   0.344671 0.618116 0.614408 0.718424
O4    O     O_R   0.175960 0.594930 0.413930 -0.545141
O5    O     O_R   0.005640 0.416080 0.413300 -0.542692
C2    C     C_R   0.344999 0.617424 0.385152 0.676199
O6    O     O_R   0.505720 0.583920 0.586700 -0.543465
O7    O     O_3   0.339190 0.441320 0.500000 -0.373090
V1    V     V_3+5 0.064350 0.510890 0.500000 1.431938
O8    O     O_R   0.675920 0.405050 0.413920 -0.544942
C3    C     C_R   0.845076 0.382762 0.384973 0.679065
O9    O     O_R   0.675960 0.405070 0.586070 -0.545008
C4    C     C_R   0.845298 0.382392 0.614400 0.729482
V2    V     V_3+5 0.564340 0.489110 0.500000 1.394897
O10   O     O_3   0.839370 0.558680 0.500000 -0.367506
C5    C     C_R   0.030597 0.292358 0.721361 0.109273
C6    C     C_R   0.858062 0.309590 0.678643 -0.174861
C7    C     C_R   0.700229 0.251963 0.696410 -0.281289
H1    H     H_    0.566622 0.259397 0.662034 0.154104
C8    C     C_R   0.710414 0.185126 0.760238 0.395137
C9    C     C_R   0.878579 0.178061 0.810741 -0.220514
C10   C     C_R   0.039980 0.229030 0.785884 0.089092
C11   C     C_3   0.171703 0.288571 0.835678 -0.375487
C12   C     C_3   0.162530 0.357590 0.764835 -0.406524
H2    H     H_    0.317039 0.257472 0.843725 0.217377
H3    H     H_    0.103327 0.313853 0.893910 0.156227
H4    H     H_    0.302340 0.365552 0.731685 0.175459
H5    H     H_    0.089924 0.423134 0.782071 0.166010
C13   C     C_R   0.047024 0.224730 0.217323 -0.158823
H6    H     H_    0.187896 0.206319 0.193236 0.116364
C14   C     C_R   0.036011 0.288272 0.282549 -0.153715
H7    H     H_    0.168905 0.317010 0.306529 0.118381
C15   C     C_R   0.856289 0.314415 0.316161 -0.045041
C16   C     C_R   0.687890 0.275229 0.282659 -0.158346
H8    H     H_    0.547019 0.293641 0.306744 0.116478
C17   C     C_R   0.698903 0.211685 0.217434 -0.153359
H9    H     H_    0.566010 0.182945 0.193455 0.117889
C18   C     C_R   0.878624 0.185552 0.183814 -0.044804
C19   C     C_R   0.193189 0.742920 0.704142 0.419038
C20   C     C_R   0.205446 0.803797 0.771702 -0.240587
H10   H     H_    0.078745 0.843629 0.788224 0.130957
C21   C     C_R   0.378903 0.815329 0.815766 -0.110387
C22   C     C_R   0.540535 0.763163 0.792020 -0.157775
H11   H     H_    0.676718 0.770523 0.824404 0.140823
C23   C     C_R   0.527696 0.699483 0.727058 -0.204819
H12   H     H_    0.654452 0.659119 0.711879 0.182365
C24   C     C_R   0.354336 0.687642 0.682518 -0.158610
C25   C     C_R   0.187909 0.725227 0.282795 -0.160066
H13   H     H_    0.046962 0.706871 0.306652 0.115757
C26   C     C_R   0.199136 0.788671 0.217533 -0.152337
H14   H     H_    0.066227 0.817381 0.193292 0.118094
C27   C     C_R   0.379009 0.814688 0.184153 -0.044433
C28   C     C_R   0.547370 0.775670 0.218108 -0.158314
H15   H     H_    0.688325 0.794095 0.194314 0.115961
C29   C     C_R   0.536147 0.712226 0.283374 -0.153612
H16   H     H_    0.669060 0.683584 0.307684 0.117816
C30   C     C_R   0.356234 0.685983 0.316556 -0.045328
O11   O     O_R   0.229200 0.915950 0.913350 -0.543822
O12   O     O_R   0.559090 0.905000 0.086080 -0.546081
O13   O     O_R   0.729280 0.083880 0.086680 -0.542780
C31   C     C_R   0.390128 0.882789 0.115149 0.678303
O14   O     O_R   0.558920 0.904980 0.913920 -0.544254
O15   O     O_R   0.729110 0.083860 0.913300 -0.510169
C32   C     C_R   0.390037 0.882642 0.885139 0.720294
O16   O     O_R   0.229360 0.915970 0.086730 -0.542719
O17   O     O_3   0.395680 0.058580 0.000030 -0.359293
V3    V     V_3+5 0.670570 0.989070 0.999990 1.425904
O18   O     O_R   0.058820 0.094950 0.913870 -0.538278
C33   C     C_R   0.889573 0.115521 0.883783 0.725968
O19   O     O_R   0.058990 0.094970 0.086020 -0.545841
C34   C     C_R   0.889837 0.117225 0.114987 0.677324
V4    V     V_3+5 0.170560 0.010930 0.999930 1.418251
O20   O     O_3   0.895590 0.941310 0.999960 -0.376654
O21   O     O_3   0.020405 0.736008 0.661508 -0.552798
C35   C     C_3   0.009353 0.808995 0.603787 0.098584
H17   H     H_    0.126544 0.802892 0.556613 0.104322
H18   H     H_    0.019793 0.877018 0.635283 0.101416
C36   C     C_3   0.816035 0.805590 0.559000 -0.705152
H19   H     H_    0.696483 0.816495 0.603908 0.213062
H20   H     H_    0.809814 0.860585 0.511244 0.162407
H21   H     H_    0.797313 0.738092 0.528005 0.239556
O22   O     O_3   0.548619 0.132806 0.776704 -0.547864
C37   C     C_3   0.539190 0.059111 0.719540 0.114962
H22   H     H_    0.616644 0.998769 0.745885 0.119809
H23   H     H_    0.603034 0.075077 0.657456 0.095533
C38   C     C_3   0.328742 0.033695 0.705555 -0.732675
H24   H     H_    0.252011 0.091371 0.674584 0.212143
H25   H     H_    0.320120 0.971820 0.665361 0.162786
H26   H     H_    0.256884 0.019083 0.765714 0.225621

loop_
_geom_bond_atom_site_label_1
_geom_bond_atom_site_label_2
_ccdc_geom_bond_type
C38   H24   S    
O14   C32   A    
C20   H10   S    
C4    C6    S    
C7    H1    S    
C37   C38   S    
C1    O6    A    
C27   C28   A    
C12   H4    S    
C5    C10   A    
O15   V3    S    
C7    C8    A    
C11   H2    S    
C6    C7    A    
O5    C3    A    
C13   H6    S    
V3    O20   S    
V2    O10   S    
C29   H16   S    
O12   C31   A    
C15   C16   A    
V4    O20   S    
C28   H15   S    
O8    V2    S    
C8    O22   S    
C25   C26   A    
C18   C34   S    
C35   C36   S    
O18   V4    S    
O17   V4    S    
O15   C33   A    
O7    V1    S    
O11   V4    S    
C2    C30   S    
C8    C9    A    
C20   C21   A    
C22   C23   A    
C28   C29   A    
C35   H17   S    
C12   H5    S    
C23   C24   A    
C31   O16   A    
C26   H14   S    
C11   C12   S    
O4    C2    A    
O16   V4    S    
C25   C30   A    
O17   V3    S    
C26   C27   A    
C16   H8    S    
C14   C15   A    
O2    C1    A    
O21   C35   S    
C17   H9    S    
C27   C31   S    
O22   C37   S    
C21   C32   S    
C11   H3    S    
C5    C6    A    
C37   H22   S    
O3    C4    A    
O1    V2    S    
O13   C34   A    
C19   C20   A    
O6    V2    S    
O9    V2    S    
C21   C22   A    
C3    C15   S    
O2    V1    S    
C22   H11   S    
O19   V4    S    
C1    C24   S    
C19   C24   A    
C23   H12   S    
C16   C17   A    
O1    C2    A    
C35   H18   S    
O5    V1    S    
C36   H21   S    
O8    C3    A    
O14   V3    S    
C36   H20   S    
C19   O21   S    
C5    C12   S    
C14   H7    S    
C38   H25   S    
O7    V2    S    
O4    V1    S    
C17   C18   A    
O3    V1    S    
V1    O10   S    
O11   C32   A    
C13   C14   A    
O13   V3    S    
C29   C30   A    
C13   C18   A    
O18   C33   A    
C10   C11   S    
C36   H19   S    
O19   C34   A    
O12   V3    S    
C25   H13   S    
C38   H26   S    
C9    C10   A    
C37   H23   S    
O9    C4    A    
C9    C33   S    
