data_mof_unit_22355.cif
_audit_creation_date              2012-12-10T19:46:45-0500
_audit_creation_method            fapswitch 2.2
_symmetry_space_group_name_H-M    P1
_symmetry_Int_Tables_number       1
_space_group_crystal_system       triclinic
_cell_length_a                    28.67812
_cell_length_b                    18.247619
_cell_length_c                    21.677149
_cell_angle_alpha                 89.999921
_cell_angle_beta                  140.470092
_cell_angle_gamma                 90.000029
_cell_volume                      7220.12026517

loop_
_atom_site_label
_atom_site_type_symbol
_atom_type_description
_atom_site_fract_x
_atom_site_fract_y
_atom_site_fract_z
_atom_type_partial_charge
C1    C     C_R   0.858746 0.500037 0.859537 0.956823
C2    C     C_R   0.967089 0.556290 0.247008 0.353376
C3    C     C_3   0.326023 0.675231 0.689846 -0.310873
C4    C     C_3   0.367349 0.623465 0.774967 -0.958090
C5    C     C_3   0.623298 0.733842 0.285135 0.124547
C6    C     C_3   0.673970 0.675220 0.310156 -0.310870
C7    C     C_3   0.632639 0.623438 0.225047 -0.958091
C8    C     C_3   0.848443 0.272418 0.469875 0.116141
C9    C     C_3   0.805907 0.205199 0.404493 -0.339274
C10   C     C_3   0.775804 0.216100 0.308755 -0.930208
C11   C     C_3   0.151558 0.272420 0.530130 0.116151
C12   C     C_3   0.194097 0.205204 0.595517 -0.339288
C13   C     C_R   0.532915 0.056290 0.752995 0.353376
C14   C     C_3   0.224195 0.216106 0.691251 -0.930200
C15   C     C_3   0.348447 0.772419 0.469880 0.116061
C16   C     C_3   0.305902 0.705206 0.404489 -0.339233
C17   C     C_3   0.275811 0.716105 0.308760 -0.930207
C18   C     C_3   0.651557 0.772418 0.530121 0.116068
C19   C     C_3   0.694096 0.705201 0.595506 -0.339231
C20   C     C_3   0.724195 0.716101 0.691240 -0.930213
C21   C     C_R   0.467088 0.056292 0.247008 0.353376
C22   C     C_R   0.003034 0.497218 0.689305 -0.165059
C23   C     C_R   0.996966 0.497218 0.310695 -0.165058
C24   C     C_R   0.503033 0.997219 0.689304 -0.165068
C25   C     C_R   0.496966 0.997219 0.310696 -0.165065
C26   C     C_1   0.782300 0.500209 0.784142 -0.204222
C27   C     C_1   0.217700 0.500209 0.215858 -0.204220
C28   C     C_1   0.282300 0.000208 0.784140 -0.204231
C29   C     C_R   0.141254 0.500037 0.140463 0.956817
C30   C     C_1   0.717700 0.000208 0.215860 -0.204232
C31   C     C_1   0.717499 0.500306 0.719399 -0.191956
C32   C     C_1   0.282501 0.500306 0.280601 -0.191956
C33   C     C_1   0.217499 0.000306 0.719399 -0.191968
C34   C     C_1   0.782501 0.000306 0.280601 -0.191967
C35   C     C_R   1.000000 0.641269 0.500000 1.053480
C36   C     C_R   0.000000 0.358718 0.500000 0.879440
C37   C     C_R   0.500000 0.141269 0.500000 1.053472
C38   C     C_R   0.500000 0.858718 0.500000 0.879448
C39   C     C_R   0.001038 0.500806 0.621269 0.958515
C40   C     C_R   0.358746 0.000037 0.859536 0.956898
C41   C     C_R   0.998961 0.500806 0.378731 0.958515
C42   C     C_R   0.501038 0.000806 0.621269 0.958519
C43   C     C_R   0.498961 0.000806 0.378731 0.958522
C44   C     C_R   0.500000 0.640972 0.500000 0.922061
C45   C     C_R   0.500000 0.359032 0.500000 0.921512
C46   C     C_R   1.000000 0.140972 0.500000 0.922076
C47   C     C_R   1.000000 0.859032 0.500000 0.921517
C48   C     C_R   0.640996 0.500235 0.641655 0.925690
C49   C     C_R   0.359004 0.500235 0.358345 0.925692
C50   C     C_R   0.140996 0.000235 0.641655 0.925704
C51   C     C_R   0.641254 0.000037 0.140464 0.956892
C52   C     C_R   0.859004 0.000234 0.358345 0.925705
C53   C     C_1   1.000000 0.717759 0.500000 -0.060004
C54   C     C_1   1.000000 0.282240 0.500000 -0.225872
C55   C     C_1   0.500000 0.217759 0.500000 -0.059997
C56   C     C_1   0.500000 0.782240 0.500000 -0.225864
C57   C     C_R   0.994503 0.499932 0.874089 0.968580
C58   C     C_R   0.005497 0.499932 0.125911 0.968576
C59   C     C_R   0.494505 0.999933 0.874091 0.968671
C60   C     C_R   0.505495 0.999933 0.125909 0.968665
C61   C     C_1   0.500000 0.282558 0.500000 -0.129824
C62   C     C_R   0.028060 0.555473 0.811470 -0.291438
C63   C     C_1   0.500000 0.717435 0.500000 -0.184369
C64   C     C_1   1.000000 0.782559 0.500000 -0.129839
C65   C     C_1   1.000000 0.217435 0.500000 -0.184369
C66   C     C_R   0.902980 0.394152 0.707600 0.324935
C67   C     C_R   0.097023 0.394153 0.292403 0.324996
C68   C     C_R   0.402976 0.894162 0.707600 0.324484
C69   C     C_R   0.597020 0.894158 0.292397 0.324513
C70   C     C_R   0.882326 0.330019 0.654387 0.319610
C71   C     C_R   0.117679 0.330023 0.345620 0.319599
C72   C     C_R   0.382326 0.830020 0.654396 0.319722
C73   C     C_R   0.971939 0.555472 0.188528 -0.291432
C74   C     C_R   0.617669 0.830016 0.345600 0.319708
C75   C     C_R   0.901596 0.321144 0.612119 0.406918
C76   C     C_R   0.098409 0.321146 0.387887 0.406863
C77   C     C_R   0.401585 0.821149 0.612116 0.407317
C78   C     C_R   0.598407 0.821146 0.387878 0.407295
C79   C     C_R   0.944214 0.375444 0.626823 -0.367665
C80   C     C_R   0.055789 0.375445 0.373180 -0.367645
C81   C     C_R   0.444202 0.875450 0.626815 -0.367850
C82   C     C_R   0.555792 0.875448 0.373180 -0.367830
C83   C     C_R   0.967650 0.438317 0.683260 -0.060737
C84   C     C_R   0.528065 0.055473 0.811476 -0.291491
C85   C     C_R   0.032352 0.438317 0.316741 -0.060733
C86   C     C_R   0.467644 0.938321 0.683256 -0.060730
C87   C     C_R   0.532353 0.938319 0.316741 -0.060737
C88   C     C_R   0.954233 0.443371 0.733155 -0.061807
C89   C     C_R   0.045768 0.443371 0.266847 -0.061837
C90   C     C_R   0.454230 0.943376 0.733153 -0.061597
C91   C     C_R   0.545767 0.943374 0.266845 -0.061608
C92   C     C_R   0.989783 0.499999 0.802793 -0.136982
C93   C     C_R   0.010217 0.499998 0.197207 -0.136986
C94   C     C_R   0.489784 0.000001 0.802795 -0.136969
C95   C     C_R   0.471937 0.055474 0.188526 -0.291487
C96   C     C_R   0.510216 0.000001 0.197205 -0.136970
C97   C     C_3   0.795875 0.435734 0.641092 0.116964
C98   C     C_3   0.794178 0.517058 0.621092 -0.420358
C99   C     C_3   0.716757 0.541243 0.525068 -0.920384
C100  C     C_3   0.204124 0.435738 0.358905 0.116986
C101  C     C_3   0.205818 0.517062 0.378899 -0.420386
C102  C     C_3   0.283238 0.541251 0.474923 -0.920375
C103  C     C_3   0.295862 0.935751 0.641063 0.116830
C104  C     C_3   0.294160 0.017074 0.621061 -0.420126
C105  C     C_3   0.216739 0.041255 0.525030 -0.920523
C106  C     C_R   0.032910 0.556292 0.752990 0.353376
C107  C     C_3   0.704135 0.935743 0.358933 0.116833
C108  C     C_3   0.705838 0.017065 0.378939 -0.420140
C109  C     C_3   0.783260 0.041245 0.474968 -0.920508
C110  C     C_3   0.876755 0.233632 0.714677 0.124678
C111  C     C_3   0.826037 0.175118 0.689717 -0.310860
C112  C     C_3   0.867449 0.123043 0.774598 -0.958206
C113  C     C_3   0.123245 0.233603 0.285359 0.124703
C114  C     C_3   0.173970 0.175104 0.310315 -0.310847
C115  C     C_3   0.132546 0.122983 0.225470 -0.958214
C116  C     C_3   0.376692 0.733858 0.714869 0.124535
H1    H     H_    0.054431 0.598623 0.864548 0.210348
H2    H     H_    0.767512 0.402156 0.576461 0.167963
H3    H     H_    0.814707 0.551016 0.680929 0.230940
H4    H     H_    0.829945 0.526644 0.616988 0.234666
H5    H     H_    0.695488 0.507784 0.464479 0.263944
H6    H     H_    0.717353 0.599490 0.510981 0.277616
H7    H     H_    0.679673 0.535320 0.527430 0.283633
H8    H     H_    0.236659 0.428515 0.349334 0.174234
H9    H     H_    0.232490 0.402162 0.423540 0.167966
H10   H     H_    0.185290 0.551018 0.319060 0.230941
H11   H     H_    0.170049 0.526649 0.382999 0.234669
H12   H     H_    0.945566 0.598621 0.135449 0.210347
H13   H     H_    0.304505 0.507795 0.535513 0.263941
H14   H     H_    0.282640 0.599499 0.489005 0.277624
H15   H     H_    0.320324 0.535325 0.472565 0.283631
H16   H     H_    0.263319 0.928524 0.650621 0.174235
H17   H     H_    0.267510 0.902169 0.576439 0.167932
H18   H     H_    0.314681 0.051032 0.680893 0.230930
H19   H     H_    0.329933 0.026664 0.616966 0.234651
H20   H     H_    0.195482 0.007804 0.464445 0.263976
H21   H     H_    0.217331 0.099507 0.510951 0.277575
H22   H     H_    0.179648 0.035317 0.527380 0.283637
H23   H     H_    0.554441 0.098620 0.864558 0.210349
H24   H     H_    0.736676 0.928518 0.349373 0.174235
H25   H     H_    0.732487 0.902159 0.423556 0.167935
H26   H     H_    0.685315 0.051025 0.319107 0.230931
H27   H     H_    0.670067 0.026654 0.383038 0.234651
H28   H     H_    0.804521 0.007790 0.535554 0.263972
H29   H     H_    0.782669 0.099495 0.489053 0.277576
H30   H     H_    0.820348 0.035311 0.472613 0.283638
H31   H     H_    0.901014 0.265643 0.778171 0.158899
H32   H     H_    0.921366 0.205845 0.733905 0.146766
H33   H     H_    0.781290 0.202040 0.670464 0.238250
H34   H     H_    0.445564 0.098623 0.135447 0.210350
H35   H     H_    0.801087 0.143067 0.626029 0.234782
H36   H     H_    0.911579 0.094423 0.793839 0.267277
H37   H     H_    0.829036 0.081398 0.754079 0.272080
H38   H     H_    0.891876 0.153761 0.838699 0.266660
H39   H     H_    0.098937 0.265587 0.221822 0.158821
H40   H     H_    0.078669 0.205803 0.266203 0.146817
H41   H     H_    0.218676 0.202037 0.329486 0.238240
H42   H     H_    0.198977 0.143088 0.374055 0.234787
H43   H     H_    0.088460 0.094349 0.206315 0.267278
H44   H     H_    0.170966 0.081351 0.245984 0.272077
H45   H     H_    0.960651 0.367701 0.596201 0.162294
H46   H     H_    0.108061 0.153664 0.161316 0.266658
H47   H     H_    0.400611 0.766047 0.778058 0.159427
H48   H     H_    0.421560 0.706160 0.734600 0.146371
H49   H     H_    0.280984 0.702060 0.670008 0.238279
H50   H     H_    0.301463 0.642956 0.626511 0.234732
H51   H     H_    0.411789 0.594954 0.794821 0.267232
H52   H     H_    0.328977 0.581715 0.754384 0.272087
H53   H     H_    0.391362 0.654406 0.838702 0.266673
H54   H     H_    0.599364 0.766023 0.221932 0.159398
H55   H     H_    0.578442 0.706141 0.265427 0.146390
H56   H     H_    0.039351 0.367701 0.403801 0.162292
H57   H     H_    0.718994 0.702053 0.329965 0.238274
H58   H     H_    0.698550 0.642957 0.373510 0.234731
H59   H     H_    0.588213 0.594923 0.205223 0.267233
H60   H     H_    0.671013 0.581692 0.245628 0.272087
H61   H     H_    0.608605 0.654367 0.161293 0.266672
H62   H     H_    0.892050 0.283790 0.480120 0.155795
H63   H     H_    0.809983 0.319881 0.433054 0.135629
H64   H     H_    0.842694 0.156657 0.442075 0.243372
H65   H     H_    0.759550 0.194697 0.389205 0.234693
H66   H     H_    0.738772 0.264373 0.269566 0.267634
H67   H     H_    0.460635 0.867706 0.596188 0.162300
H68   H     H_    0.744291 0.166805 0.262574 0.275793
H69   H     H_    0.821391 0.224284 0.322016 0.267758
H70   H     H_    0.107947 0.283788 0.519878 0.155796
H71   H     H_    0.190014 0.319887 0.566951 0.135636
H72   H     H_    0.157313 0.156660 0.557936 0.243369
H73   H     H_    0.240457 0.194706 0.610810 0.234693
H74   H     H_    0.261225 0.264380 0.730441 0.267633
H75   H     H_    0.255709 0.166812 0.737435 0.275793
H76   H     H_    0.178606 0.224289 0.677985 0.267758
H77   H     H_    0.392065 0.783774 0.480142 0.155785
H78   H     H_    0.539358 0.867704 0.403806 0.162302
H79   H     H_    0.309998 0.819892 0.433056 0.135611
H80   H     H_    0.342680 0.656658 0.442069 0.243367
H81   H     H_    0.259538 0.694717 0.389189 0.234706
H82   H     H_    0.238788 0.764385 0.269571 0.267636
H83   H     H_    0.244292 0.666815 0.262572 0.275793
H84   H     H_    0.321405 0.724278 0.322032 0.267758
H85   H     H_    0.607949 0.783786 0.519873 0.155788
H86   H     H_    0.690014 0.819884 0.566942 0.135605
H87   H     H_    0.657312 0.656658 0.557924 0.243372
H88   H     H_    0.740455 0.694704 0.610798 0.234701
H89   H     H_    0.763340 0.428512 0.650663 0.174234
H90   H     H_    0.761222 0.764377 0.730428 0.267636
H91   H     H_    0.755711 0.666808 0.737424 0.275794
H92   H     H_    0.678605 0.724279 0.677975 0.267759
H93   H     H_    0.179627 0.580647 0.856573 0.344883
H94   H     H_    0.820370 0.580644 0.143421 0.344884
H95   H     H_    0.679636 0.080633 0.856586 0.344880
H96   H     H_    0.320368 0.080643 0.143420 0.344882
O1    O     O_R   0.892670 0.439420 0.892670 -0.595415
O2    O     O_R   0.000010 0.560580 0.091620 -0.639455
O3    O     O_R   0.000010 0.439420 0.091620 -0.595639
O4    O     O_R   0.999990 0.560580 0.908380 -0.639455
O5    O     O_R   0.499990 0.939420 0.908380 -0.595718
O6    O     O_R   0.500010 0.060580 0.091620 -0.639446
O7    O     O_R   0.500010 0.939420 0.091620 -0.595711
O8    O     O_R   0.499990 0.060580 0.908380 -0.639446
O9    O     O_R   0.060590 0.607350 0.560620 -0.595193
O10   O     O_R   0.939410 0.392650 0.439380 -0.637779
O11   O     O_R   0.939410 0.607350 0.439380 -0.595192
O12   O     O_R   0.107330 0.560580 0.107330 -0.632976
O13   O     O_R   0.060590 0.392650 0.560620 -0.637780
O14   O     O_R   0.560590 0.107350 0.560620 -0.595190
O15   O     O_R   0.439410 0.892650 0.439380 -0.637776
O16   O     O_R   0.439410 0.107350 0.439380 -0.595192
O17   O     O_R   0.560590 0.892650 0.560620 -0.637777
O18   O     O_R   0.060610 0.500000 0.652240 -0.581473
O19   O     O_R   0.939390 0.500000 0.347760 -0.581472
O20   O     O_R   0.560610 0.000000 0.652240 -0.581465
O21   O     O_R   0.439390 0.000000 0.347760 -0.581469
O22   O     O_R   0.939430 0.500000 0.531050 -0.637364
O23   O     O_R   0.107330 0.439420 0.107330 -0.595403
O24   O     O_R   0.060570 0.500000 0.468950 -0.637365
O25   O     O_R   0.439430 0.000000 0.531050 -0.637366
O26   O     O_R   0.560570 0.000000 0.468950 -0.637366
O27   O     O_R   0.500010 0.607330 0.448300 -0.616918
O28   O     O_R   0.499990 0.392670 0.551700 -0.601776
O29   O     O_R   0.499990 0.607330 0.551700 -0.616919
O30   O     O_R   0.500010 0.392670 0.448300 -0.601775
O31   O     O_R   0.000010 0.107330 0.448300 -0.616935
O32   O     O_R   0.999990 0.892670 0.551700 -0.601778
O33   O     O_R   0.999990 0.107330 0.551700 -0.616931
O34   O     O_R   0.892670 0.560580 0.892670 -0.632974
O35   O     O_R   0.000010 0.892670 0.448300 -0.601779
O36   O     O_R   0.607330 0.500000 0.555630 -0.644174
O37   O     O_R   0.392670 0.500000 0.444370 -0.644172
O38   O     O_R   0.107330 0.000000 0.555630 -0.644177
O39   O     O_R   0.892670 0.000000 0.444370 -0.644177
O40   O     O_R   0.607340 0.500000 0.659080 -0.604655
O41   O     O_R   0.392660 0.500000 0.340920 -0.604656
O42   O     O_R   0.107340 0.000000 0.659080 -0.604658
O43   O     O_R   0.892660 0.000000 0.340920 -0.604660
O44   O     O_3   0.868406 0.411602 0.727331 -0.627324
O45   O     O_R   0.392670 0.939420 0.892670 -0.595489
O46   O     O_3   0.131594 0.411602 0.272669 -0.627291
O47   O     O_3   0.368393 0.911630 0.727314 -0.627563
O48   O     O_3   0.631603 0.911623 0.272682 -0.627549
O49   O     O_3   0.835592 0.279689 0.633560 -0.619345
O50   O     O_3   0.164416 0.279696 0.366449 -0.619347
O51   O     O_3   0.335599 0.779674 0.633568 -0.619324
O52   O     O_3   0.664395 0.779669 0.366428 -0.619330
O53   O     O_3   0.880117 0.257180 0.560349 -0.614260
O54   O     O_3   0.119891 0.257183 0.439661 -0.614290
O55   O     O_3   0.380103 0.757186 0.560344 -0.614058
O56   O     O_R   0.607330 0.060580 0.107330 -0.632962
O57   O     O_3   0.619886 0.757182 0.439648 -0.614067
O58   O     O_2   0.020103 0.667596 0.660535 -0.308106
O59   O     O_2   0.097159 0.689489 0.829387 -0.287725
O60   O     O_3   0.148484 0.606858 0.794571 -0.510307
O61   O     O_2   0.979892 0.667595 0.339460 -0.308105
O62   O     O_2   0.902837 0.689487 0.170608 -0.287726
O63   O     O_3   0.851512 0.606855 0.205423 -0.510306
O64   O     O_2   0.520119 0.167593 0.660549 -0.308098
O65   O     O_2   0.597173 0.189483 0.829401 -0.287722
O66   O     O_3   0.648496 0.106846 0.794586 -0.510302
O67   O     O_R   0.607330 0.939420 0.107330 -0.595484
O68   O     O_2   0.479890 0.167595 0.339459 -0.308099
O69   O     O_2   0.402835 0.189487 0.170607 -0.287722
O70   O     O_3   0.351510 0.106853 0.205422 -0.510304
O71   O     O_R   0.392670 0.060580 0.892670 -0.632963
O72   O     O_R   0.999990 0.439420 0.908380 -0.595647
S1    S     S_3+6 0.074337 0.633255 0.759188 0.031558
S2    S     S_3+6 0.925659 0.633253 0.240808 0.031559
S3    S     S_3+6 0.574350 0.133250 0.759200 0.031567
S4    S     S_3+6 0.425657 0.133253 0.240807 0.031564
Zn1   Zn    Zn3+2 0.000000 0.419100 0.000000 1.002658
Zn2   Zn    Zn3+2 0.500000 0.500000 0.569060 0.995177
Zn3   Zn    Zn3+2 0.000000 0.000000 0.430940 0.995108
Zn4   Zn    Zn3+2 0.000000 0.000000 0.569060 0.995118
Zn5   Zn    Zn3+2 0.000000 0.580900 0.000000 0.976880
Zn6   Zn    Zn3+2 0.500000 0.919100 0.000000 1.002304
Zn7   Zn    Zn3+2 0.500000 0.080900 0.000000 0.976882
Zn8   Zn    Zn3+2 0.080920 0.500000 0.580940 1.016306
Zn9   Zn    Zn3+2 0.919080 0.500000 0.419060 1.016310
Zn10  Zn    Zn3+2 0.580920 1.000000 0.580940 1.016325
Zn11  Zn    Zn3+2 0.419080 0.000000 0.419060 1.016322
Zn12  Zn    Zn3+2 0.500000 0.500000 0.430940 0.995176

loop_
_geom_bond_atom_site_label_1
_geom_bond_atom_site_label_2
_ccdc_geom_bond_type
C38   C56   S    
C70   O49   S    
C30   C51   S    
C40   O71   A    
O70   S4    S    
C36   O13   A    
O39   Zn4   S    
C104  H19   S    
C87   C91   A    
C27   C29   S    
C11   H70   S    
C10   H68   S    
C116  H47   S    
C95   C96   A    
O8    Zn7   S    
C102  H13   S    
C20   H90   S    
C37   C55   S    
C25   C43   S    
C108  H26   S    
C114  C115  S    
C38   O15   A    
C98   H3    S    
C54   C65   T    
C86   C90   A    
O30   Zn12  S    
C12   H73   S    
O11   Zn9   S    
C13   C84   A    
C101  C102  S    
C104  H18   S    
C100  C101  S    
C11   H71   S    
C77   O55   S    
C99   H7    S    
C57   C92   S    
C52   O43   A    
C113  H39   S    
C113  C114  S    
C76   O54   S    
C1    O34   A    
C35   O9    A    
C66   C88   A    
C5    C6    S    
C53   C64   T    
O42   Zn4   S    
C35   C53   S    
C28   C40   S    
C82   C87   A    
C12   H72   S    
C67   C89   A    
C10   H69   S    
C24   C42   S    
C108  C109  S    
C7    H61   S    
C17   H84   S    
C24   C86   A    
C18   C19   S    
H94   O63   S    
C78   O57   S    
C107  H24   S    
O41   Zn12  S    
C110  C111  S    
C114  H42   S    
C110  O49   S    
O18   Zn8   S    
C34   C52   S    
C72   C77   A    
C101  H11   S    
O29   Zn2   S    
H96   O70   S    
C13   S3    S    
H93   O60   S    
C29   O23   A    
C41   O19   A    
O9    Zn8   S    
O71   Zn7   S    
C16   C17   S    
C62   H1    S    
C81   H67   S    
C62   C92   A    
C5    O52   S    
C68   C90   A    
C5    H54   S    
C112  H36   S    
O59   S1    D    
O62   S2    D    
C59   C94   S    
C73   C93   A    
C113  H40   S    
C107  H25   S    
O13   Zn8   S    
C103  H16   S    
O40   Zn2   S    
C81   C86   A    
C50   O38   A    
O64   S3    D    
C91   C96   A    
C2    S2    S    
C14   H76   S    
C58   O3    A    
C71   O50   S    
C83   C88   A    
C105  H22   S    
C26   C31   T    
C44   C63   S    
C112  H38   S    
C7    H60   S    
O16   Zn11  S    
O61   S2    D    
C46   O31   A    
C79   H45   S    
C110  H32   S    
C111  H33   S    
C106  S1    S    
C47   O35   A    
C104  C105  S    
C52   O39   A    
C42   O25   A    
O32   Zn4   S    
C44   O29   A    
C97   C98   S    
C38   O17   A    
C2    C23   A    
C37   O16   A    
O33   Zn4   S    
O31   Zn3   S    
C32   C49   S    
C100  O46   S    
C90   C94   A    
C4    H53   S    
C30   C34   T    
C100  H9    S    
O14   Zn10  S    
C88   C92   A    
O17   Zn10  S    
C36   C54   S    
C102  H15   S    
C84   H23   S    
C46   C65   S    
O65   S3    D    
C22   C39   S    
O66   S3    S    
C60   O7    A    
O43   Zn3   S    
C47   C64   S    
O19   Zn9   S    
C85   C89   A    
C8    C9    S    
C6    H58   S    
C41   O24   A    
C33   C50   S    
C22   C106  A    
C15   C16   S    
O38   Zn3   S    
C4    H52   S    
C13   C24   A    
C7    H59   S    
C107  O48   S    
C100  H8    S    
C3    C4    S    
C15   H77   S    
O56   Zn7   S    
C48   O40   A    
O68   S4    D    
C114  H41   S    
C80   C85   A    
C50   O42   A    
C43   O26   A    
C35   O11   A    
O6    Zn7   S    
C68   O47   S    
O1    Zn1   S    
C109  H28   S    
C78   C82   A    
O7    Zn6   S    
C57   O4    A    
C77   C81   A    
C68   C72   A    
C51   O56   A    
C17   H82   S    
C19   H87   S    
C101  H10   S    
C5    H55   S    
C56   C63   T    
C51   O67   A    
C69   C74   A    
C18   H86   S    
C95   H34   S    
C84   C94   A    
C9    H64   S    
C103  H17   S    
C97   H2    S    
C2    C73   A    
O45   Zn6   S    
C39   O18   A    
C99   H6    S    
C14   H75   S    
C58   O2    A    
C19   H88   S    
C37   O14   A    
O3    Zn1   S    
C66   O44   S    
C28   C33   T    
C98   C99   S    
C31   C48   S    
C105  H20   S    
O10   Zn9   S    
C43   O21   A    
C1    C26   S    
C10   H66   S    
O22   Zn9   S    
C76   C80   A    
C20   H92   S    
C107  C108  S    
O35   Zn3   S    
C110  H31   S    
O67   Zn6   S    
C44   O27   A    
O26   Zn10  S    
C71   C76   A    
C70   C75   A    
O28   Zn2   S    
C3    H49   S    
O20   Zn10  S    
O27   Zn12  S    
C75   O53   S    
C97   O44   S    
C59   O5    A    
C21   C25   A    
C60   O6    A    
C72   O51   S    
O21   Zn11  S    
C111  C112  S    
C27   C32   T    
C36   O10   A    
C103  O47   S    
C58   C93   S    
C109  H29   S    
O23   Zn1   S    
C46   O33   A    
C12   C14   S    
C8    O53   S    
C111  H35   S    
C49   O41   A    
O72   Zn1   S    
C39   O22   A    
C11   C12   S    
C98   H4    S    
C6    C7    S    
C62   C106  A    
C6    H57   S    
C73   H12   S    
C21   C95   A    
C3    C116  S    
C74   C78   A    
O34   Zn5   S    
C15   O55   S    
C23   C41   S    
C4    H51   S    
C99   H5    S    
C115  H44   S    
C112  H37   S    
H95   O66   S    
C22   C83   A    
C19   C20   S    
O60   S1    S    
C45   O28   A    
C15   H79   S    
C48   O36   A    
C116  O51   S    
C69   C91   A    
C79   C83   A    
O63   S2    S    
C8    H63   S    
C66   C70   A    
O2    Zn5   S    
O69   S4    D    
C115  H46   S    
O37   Zn2   S    
C55   C61   T    
C74   O52   S    
C45   C61   S    
C16   H80   S    
C57   O72   A    
C11   O54   S    
C9    C10   S    
C18   H85   S    
C67   C71   A    
C113  O50   S    
C108  H27   S    
C89   C93   A    
C21   S4    S    
C116  H48   S    
O5    Zn6   S    
C82   H78   S    
C67   O46   S    
C9    H65   S    
C29   O12   A    
C105  H21   S    
C20   H91   S    
C14   H74   S    
C25   C87   A    
C8    H62   S    
O15   Zn11  S    
O4    Zn5   S    
C23   C85   A    
C115  H43   S    
C103  C104  S    
C80   H56   S    
O12   Zn5   S    
O36   Zn12  S    
C40   O45   A    
C69   O48   S    
C60   C96   S    
O58   S1    D    
C49   O37   A    
C97   H89   S    
O24   Zn8   S    
C17   H83   S    
C75   C79   A    
C45   O30   A    
C109  H30   S    
C18   O57   S    
C47   O32   A    
C16   H81   S    
O25   Zn11  S    
C3    H50   S    
C42   O20   A    
C59   O8    A    
C1    O1    A    
C102  H14   S    
