data_mof_unit_6757.cif
_audit_creation_date              2013-03-05T16:09:56-0500
_audit_creation_method            fapswitch 2.2
_symmetry_space_group_name_H-M    P1
_symmetry_Int_Tables_number       1
_space_group_crystal_system       triclinic
_cell_length_a                    10.800391
_cell_length_b                    9.87079
_cell_length_c                    10.844768
_cell_angle_alpha                 89.419275
_cell_angle_beta                  88.897834
_cell_angle_gamma                 90.040192
_cell_volume                      1155.86953112

loop_
_atom_site_label
_atom_site_type_symbol
_atom_site_description
_atom_site_fract_x
_atom_site_fract_y
_atom_site_fract_z
_atom_type_partial_charge
O1    O     O_R   0.316770 0.614620 0.499990 -0.576050
O2    O     O_R   0.683230 0.614620 0.500010 -0.585049
O3    O     O_R   0.316800 0.385290 0.500000 -0.588690
O4    O     O_R   0.683200 0.385290 0.500000 -0.610438
C1    C     C_R   0.260079 0.500008 0.494264 0.955847
C2    C     C_R   0.740051 0.499210 0.492193 0.946841
O5    O     O_R   0.500010 0.614690 0.316770 -0.649319
O6    O     O_R   0.499990 0.614690 0.683230 -0.639039
O7    O     O_R   0.500040 0.385360 0.316770 -0.582995
O8    O     O_R   0.499960 0.385360 0.683230 -0.571817
C3    C     C_R   0.499001 0.501399 0.259270 0.907526
C4    C     C_R   0.510788 0.499059 0.739085 0.914833
Zn1   Zn    Zn3+2 0.500000 0.653120 0.500000 0.953594
Zn2   Zn    Zn3+2 0.500000 0.346880 0.500000 0.971231
C5    C     C_R   0.494646 0.758685 0.102766 -0.123431
C6    C     C_R   0.613295 0.730428 0.875985 -0.123330
C7    C     C_R   0.539082 0.873119 0.039490 -0.169648
C8    C     C_R   0.605840 0.857906 0.929644 -0.173793
H1    H     H_    0.524086 0.972874 0.077221 0.175622
H2    H     H_    0.647189 0.945215 0.883757 0.135220
C9    C     C_R   0.554778 0.617718 0.933015 0.040152
C10   C     C_R   0.515893 0.627097 0.056141 0.043930
C11   C     C_R   0.504473 0.504039 0.125311 -0.320712
C12   C     C_R   0.529779 0.496524 0.870632 -0.313290
C13   C     C_R   0.516661 0.379241 0.064219 0.333969
C14   C     C_R   0.508608 0.375936 0.937509 0.346105
C15   C     C_R   0.065903 0.376726 0.459598 0.327919
C16   C     C_R   0.937993 0.373106 0.471530 0.335681
C17   C     C_R   0.872848 0.496425 0.475703 -0.421625
C18   C     C_R   0.128033 0.499851 0.478823 -0.431495
C19   C     C_R   0.936226 0.618639 0.456800 0.316538
C20   C     C_R   0.062111 0.622692 0.475958 0.321170
C21   C     C_R   0.561546 0.071049 0.587738 -0.078784
C22   C     C_R   0.436109 0.072902 0.413906 -0.050545
H3    H     H_    0.610660 0.124310 0.658335 0.158941
H4    H     H_    0.386359 0.128049 0.344257 0.163769
C23   C     C_R   0.563604 0.927659 0.586050 -0.081544
C24   C     C_R   0.433809 0.929386 0.415644 -0.095634
H5    H     H_    0.617220 0.873859 0.652819 0.125611
H6    H     H_    0.376607 0.876749 0.351474 0.138410
N1    N     N_R   0.500000 0.857200 0.500000 -0.078278
N2    N     N_R   0.500000 0.142810 0.500000 -0.090247
O9    O     O_3   0.539929 0.259704 0.126823 -0.606216
C25   C     C_3   0.668820 0.234504 0.120131 0.098550
H7    H     H_    0.726552 0.328687 0.114266 0.110573
H8    H     H_    0.690489 0.170998 0.038371 0.156870
C26   C     C_3   0.706499 0.159155 0.235569 -0.773722
H9    H     H_    0.807863 0.142235 0.232516 0.218839
H10   H     H_    0.683338 0.219858 0.317909 0.317617
H11   H     H_    0.656166 0.061632 0.243070 0.232500
O10   O     O_3   0.491512 0.253054 0.879417 -0.591229
C27   C     C_3   0.372150 0.202699 0.910574 0.138900
H12   H     H_    0.299617 0.282628 0.902233 0.106873
H13   H     H_    0.369601 0.160479 0.005989 0.169462
C28   C     C_3   0.339908 0.089444 0.823706 -0.851194
H14   H     H_    0.251768 0.041602 0.855380 0.197271
H15   H     H_    0.329413 0.131267 0.729055 0.275525
H16   H     H_    0.413557 0.011275 0.822865 0.267899
H17   H     H_    0.439761 0.775966 0.184188 0.153757
H18   H     H_    0.665722 0.718908 0.790929 0.130456
O11   O     O_3   0.127779 0.259565 0.425932 -0.576474
C29   C     C_3   0.140556 0.256574 0.295582 0.156526
H19   H     H_    0.234586 0.293020 0.268195 0.142609
H20   H     H_    0.071618 0.320404 0.245865 0.104436
C30   C     C_3   0.124506 0.111852 0.251388 -0.856497
H21   H     H_    0.028470 0.077359 0.271433 0.267269
H22   H     H_    0.142515 0.107362 0.150344 0.190574
H23   H     H_    0.189330 0.042460 0.298504 0.253318
O12   O     O_3   0.877511 0.251895 0.453497 -0.581125
C31   C     C_3   0.886766 0.168992 0.559595 0.110093
H24   H     H_    0.817619 0.201848 0.630268 0.130466
H25   H     H_    0.980124 0.171216 0.601544 0.150515
C32   C     C_3   0.859762 0.023982 0.523353 -0.748184
H26   H     H_    0.938367 0.983589 0.467949 0.293074
H27   H     H_    0.844554 0.960469 0.607244 0.183662
H28   H     H_    0.776449 0.019579 0.465561 0.271678
O13   O     O_3   0.878486 0.730903 0.407602 -0.567150
C33   C     C_3   0.870861 0.710088 0.278951 0.154091
H29   H     H_    0.818187 0.616126 0.257910 0.120364
H30   H     H_    0.965140 0.703969 0.235603 0.129600
C34   C     C_3   0.803446 0.827331 0.220471 -0.844050
H31   H     H_    0.857014 0.921086 0.234902 0.245514
H32   H     H_    0.795303 0.810525 0.119921 0.217856
H33   H     H_    0.709542 0.836021 0.263071 0.273445
O14   O     O_3   0.120737 0.746935 0.479761 -0.562518
C35   C     C_3   0.106491 0.797089 0.600678 0.142502
H34   H     H_    0.150864 0.728308 0.668982 0.127450
H35   H     H_    0.006965 0.807893 0.626895 0.130927
C36   C     C_3   0.167586 0.935229 0.607706 -0.814515
H36   H     H_    0.129341 0.990255 0.688445 0.190968
H37   H     H_    0.268890 0.922695 0.617471 0.259775
H38   H     H_    0.149890 0.996195 0.523474 0.293914

loop_
_geom_bond_atom_site_label_1
_geom_bond_atom_site_label_2
_geom_bond_distance
_ccdc_geom_bond_type
C18   C20   1.406919 A    
C28   H14   1.109366 S    
C6    C9    1.410568 A    
C32   H26   1.107447 S    
C16   O12   1.380222 S    
C22   N2    1.364279 A    
O7    Zn2   2.019271 S    
C13   O9    1.380967 S    
Zn1   N1    2.014431 S    
C34   H31   1.105135 S    
C26   H10   1.105187 S    
O13   C33   1.416249 S    
C25   H7    1.119618 S    
O5    C3    1.286027 A    
O6    Zn1   2.019188 S    
O1    C1    1.288615 A    
C21   N2    1.363916 A    
C16   C17   1.407090 A    
C12   C14   1.403872 A    
O12   C31   1.410316 S    
C35   H35   1.112058 S    
C6    H18   1.080054 S    
O2    Zn1   2.015377 S    
C29   H20   1.118597 S    
C15   O11   1.384767 S    
C7    H1    1.081232 S    
C5    C10   1.415868 A    
C26   H9    1.107465 S    
C25   H8    1.112389 S    
C30   H22   1.110579 S    
C31   H24   1.110712 S    
C36   H37   1.108148 S    
C8    H2    1.082591 S    
C25   C26   1.512338 S    
Zn2   N2    2.014333 S    
C22   C24   1.416737 A    
C9    C10   1.396030 A    
C15   C18   1.407186 A    
O4    Zn2   2.014367 S    
C32   H27   1.109165 S    
O2    C2    1.297107 A    
C34   H32   1.109805 S    
C27   H13   1.111442 S    
C19   O13   1.379608 S    
C26   H11   1.106694 S    
C23   H5    1.072578 S    
O10   C27   1.414952 S    
C24   N1    1.366866 A    
O4    C2    1.282087 A    
O8    Zn2   2.026833 S    
C35   H34   1.115002 S    
C13   C14   1.379265 A    
O14   C35   1.412026 S    
C21   C23   1.415861 A    
O9    C25   1.414911 S    
C29   H19   1.111174 S    
C19   C20   1.379946 A    
O6    C4    1.293103 A    
C30   H23   1.108050 S    
C31   C32   1.517759 S    
C7    C8    1.390050 A    
C33   H30   1.115222 S    
C36   H38   1.108535 S    
O7    C3    1.298739 A    
O3    Zn2   2.014891 S    
O8    C4    1.287041 A    
C28   H15   1.110349 S    
C32   H28   1.107494 S    
C9    C12   1.408781 A    
O1    Zn1   2.014855 S    
C34   H33   1.110089 S    
C27   H12   1.116461 S    
C1    C18   1.439138 S    
C5    C7    1.395701 A    
C29   C30   1.522218 S    
C33   H29   1.115556 S    
C5    H17   1.069210 S    
O3    C1    1.289347 A    
C35   C36   1.517650 S    
C27   C28   1.513898 S    
C4    C12   1.445134 S    
C17   C19   1.397959 A    
C14   O10   1.386318 S    
C24   H6    1.076737 S    
C33   C34   1.508552 S    
C20   O14   1.381146 S    
C3    C11   1.452791 S    
C21   H3    1.080426 S    
C22   H4    1.078535 S    
C11   C13   1.409658 A    
C23   N1    1.365129 A    
O11   C29   1.418300 S    
O5    Zn1   2.026743 S    
C2    C17   1.442259 S    
C6    C8    1.393421 A    
C30   H21   1.108300 S    
C28   H16   1.108549 S    
C15   C16   1.385439 A    
C10   C11   1.425171 A    
C31   H25   1.114425 S    
C36   H36   1.108305 S    
