data_mof_unit_31552.cif
_audit_creation_date              2012-12-10T19:45:44-0500
_audit_creation_method            fapswitch 2.2
_symmetry_space_group_name_H-M    P1
_symmetry_Int_Tables_number       1
_space_group_crystal_system       triclinic
_cell_length_a                    10.865072
_cell_length_b                    14.786221
_cell_length_c                    14.567808
_cell_angle_alpha                 65.337747
_cell_angle_beta                  105.873238
_cell_angle_gamma                 102.136348
_cell_volume                      2033.38301

loop_
_atom_site_label
_atom_site_type_symbol
_atom_type_description
_atom_site_fract_x
_atom_site_fract_y
_atom_site_fract_z
_atom_type_partial_charge
C1    C     C_R   0.473959 0.119181 0.310463 0.847422
C2    C     C_R   0.618191 0.773437 0.986068 -0.288498
C3    C     C_R   0.385404 0.156434 0.116015 0.431742
C4    C     C_R   0.609126 0.843916 0.884739 0.370071
C5    C     C_R   0.503594 0.287436 0.175832 -0.302176
C6    C     C_R   0.497657 0.712016 0.823937 -0.318254
C7    C     C_R   0.479796 0.360323 0.074789 0.097335
C8    C     C_R   0.520605 0.639058 0.925023 0.100245
C9    C     C_R   0.422084 0.327067 0.993404 0.086780
C10   C     C_R   0.576388 0.672321 0.006644 0.091805
C11   C     C_R   0.510889 0.465012 0.052363 0.083430
C12   C     C_R   0.525540 0.880812 0.689615 0.817875
C13   C     C_R   0.490129 0.534283 0.947362 0.082415
C14   C     C_R   0.442179 0.496264 0.868339 -0.215975
C15   C     C_R   0.558402 0.502887 0.131469 -0.211143
C16   C     C_R   0.262973 0.999503 0.501528 0.894698
C17   C     C_R   0.737094 0.000479 0.498520 0.871724
C18   C     C_R   0.406445 0.394917 0.891308 -0.173394
C19   C     C_R   0.592711 0.604281 0.108666 -0.184978
C20   C     C_R   0.722381 0.286733 0.666898 -0.221870
C21   C     C_R   0.271089 0.713699 0.333874 -0.279094
C22   C     C_R   0.692850 0.208853 0.632308 0.058221
C23   C     C_R   0.871168 0.000547 0.498040 -0.153503
C24   C     C_R   0.303728 0.790848 0.370415 0.057138
C25   C     C_R   0.508456 0.281450 0.512222 0.569650
C26   C     C_R   0.491215 0.717500 0.483190 0.535413
C27   C     C_R   0.544384 0.370609 0.534419 -0.148245
C28   C     C_R   0.450690 0.629504 0.460738 -0.055784
C29   C     C_R   0.646276 0.366508 0.620830 0.075420
C30   C     C_R   0.346944 0.633945 0.376416 0.067658
C31   C     C_R   0.483206 0.461620 0.477257 0.022692
C32   C     C_R   0.511910 0.538950 0.516833 0.065802
C33   C     C_R   0.595853 0.521420 0.613898 -0.244898
C34   C     C_R   0.128997 0.999564 0.501883 -0.163302
C35   C     C_R   0.398612 0.480191 0.380106 -0.318797
C36   C     C_R   0.668612 0.439973 0.662508 0.427540
C37   C     C_R   0.324049 0.561172 0.333539 0.432688
C38   C     C_R   0.311681 0.953495 0.844531 -0.138889
C39   C     C_R   0.686149 0.038652 0.157293 -0.091641
C40   C     C_R   0.229462 0.944385 0.755726 -0.166320
C41   C     C_R   0.768518 0.050668 0.244664 -0.159980
C42   C     C_R   0.197623 0.030209 0.667259 0.036184
C43   C     C_R   0.802071 0.966550 0.334625 0.021533
C44   C     C_R   0.251278 0.125095 0.667706 -0.114110
C45   C     C_R   0.902472 0.978761 0.422229 -0.153363
C46   C     C_R   0.749972 0.870433 0.337238 -0.080140
C47   C     C_R   0.335850 0.134728 0.755648 0.456788
C48   C     C_R   0.665297 0.857937 0.250688 0.446680
C49   C     C_R   0.363343 0.048155 0.845283 -0.079203
C50   C     C_R   0.636251 0.942786 0.159479 -0.096338
C51   C     C_R   0.967845 0.023617 0.574327 0.365707
C52   C     C_R   0.032476 0.977358 0.425009 0.375866
C53   C     C_R   0.097706 0.020866 0.577996 -0.157844
C54   C     C_R   0.454483 0.186369 0.198931 -0.176025
C55   C     C_R   0.544038 0.813574 0.801255 -0.162596
C56   C     C_R   0.377281 0.226270 0.014433 -0.278618
Cu1   Cu    Cu3+1 0.466270 0.918260 0.475690 1.012458
Cu2   Cu    Cu3+1 0.533730 0.081740 0.524310 1.050706
H1    H     H_    0.426575 0.053836 0.914898 0.139898
H2    H     H_    0.186934 0.716926 0.272517 0.214452
H3    H     H_    0.604601 0.569350 0.654898 0.162613
H4    H     H_    0.389542 0.432945 0.338303 0.180120
H5    H     H_    0.334868 0.887155 0.913099 0.150670
H6    H     H_    0.661563 0.103646 0.087538 0.158202
H7    H     H_    0.187982 0.870763 0.756656 0.146751
H8    H     H_    0.808824 0.125173 0.241471 0.148981
H9    H     H_    0.225024 0.191579 0.600377 0.141478
H10   H     H_    0.776909 0.805216 0.406100 0.188475
H11   H     H_    0.365476 0.369594 0.828271 0.180632
H12   H     H_    0.572870 0.934849 0.090925 0.135197
H13   H     H_    0.632787 0.629509 0.171828 0.182648
H14   H     H_    0.443634 0.691226 0.760639 0.172098
H15   H     H_    0.560471 0.307911 0.238697 0.176181
H16   H     H_    0.763169 0.486702 0.772221 0.328701
H17   H     H_    0.227663 0.515419 0.223739 0.330296
H18   H     H_    0.613749 0.760366 0.584061 0.352150
H19   H     H_    0.327184 0.291987 0.462872 0.300816
H20   H     H_    0.451398 0.222708 0.817698 0.322746
H21   H     H_    0.550089 0.767039 0.192401 0.310191
H22   H     H_    0.004632 0.075166 0.684895 0.345078
H23   H     H_    0.328624 0.203388 0.950754 0.188796
H24   H     H_    0.995999 0.930187 0.311021 0.346660
H25   H     H_    0.861979 0.924527 0.842243 0.359581
H26   H     H_    0.345779 0.897821 0.154345 0.357461
H27   H     H_    0.665027 0.796289 0.050045 0.186735
H28   H     H_    0.430560 0.542518 0.787304 0.137874
H29   H     H_    0.569847 0.456457 0.212471 0.149053
H30   H     H_    0.243234 0.850471 0.338968 0.232670
H31   H     H_    0.753236 0.148949 0.666267 0.240369
H32   H     H_    0.804595 0.284047 0.729653 0.220821
N1    N     N_R   0.584450 0.204570 0.560790 -0.199486
N2    N     N_R   0.415550 0.795430 0.439210 -0.217940
O1    O     O_R   0.455540 0.022090 0.338120 -0.502344
O2    O     O_3   0.232298 0.572799 0.243512 -0.734836
O3    O     O_3   0.614997 0.729341 0.536559 -0.759890
O4    O     O_3   0.393829 0.265887 0.448728 -0.714783
O5    O     O_3   0.389196 0.229148 0.751792 -0.758382
O6    O     O_3   0.613206 0.762503 0.257442 -0.747281
O7    O     O_3   0.930756 0.045096 0.645986 -0.696807
O8    O     O_3   0.069939 0.957758 0.352218 -0.683251
O9    O     O_2   0.610848 0.043878 0.813926 -0.294420
O10   O     O_2   0.766534 0.967961 0.971895 -0.291205
O11   O     O_3   0.807805 0.980089 0.800620 -0.495841
O12   O     O_R   0.544460 0.977910 0.661880 -0.501652
O13   O     O_2   0.203285 0.022471 0.202326 -0.242801
O14   O     O_2   0.212860 0.038020 0.031011 -0.308194
O15   O     O_3   0.388028 0.947178 0.186059 -0.561796
O16   O     O_R   0.512510 0.160150 0.379180 -0.568295
O17   O     O_R   0.487490 0.839850 0.620820 -0.642903
O18   O     O_R   0.291160 0.930970 0.479480 -0.555718
O19   O     O_R   0.708840 0.069030 0.520520 -0.551121
O20   O     O_R   0.348130 0.069020 0.520540 -0.545723
O21   O     O_R   0.651870 0.930980 0.479460 -0.583129
O22   O     O_3   0.758504 0.428638 0.753506 -0.728919
S1    S     S_3+6 0.697846 0.962438 0.869370 -0.011036
S2    S     S_3+6 0.292304 0.039307 0.132899 -0.009351

loop_
_geom_bond_atom_site_label_1
_geom_bond_atom_site_label_2
_ccdc_geom_bond_type
C27   C31   A    
C8    C13   A    
C23   C45   A    
Cu1   N2    S    
C27   C29   A    
C14   C18   A    
H21   O6    S    
C19   H13   S    
C6    C55   A    
C36   O22   S    
C33   C36   A    
C16   O18   A    
C56   H23   S    
C39   C41   A    
C38   C49   A    
C26   C28   A    
C15   C19   A    
C39   H6    S    
C29   C36   A    
C17   C23   S    
H25   O11   S    
Cu2   O20   S    
C35   C37   A    
C12   O12   A    
C3    S2    S    
H18   O3    S    
C3    C54   A    
C26   N2    A    
H16   O22   S    
C17   O19   A    
H26   O15   S    
C2    H27   S    
O10   S1    D    
O13   S2    D    
C16   C34   S    
C11   C15   A    
Cu1   O17   S    
Cu1   O18   S    
C22   N1    A    
Cu2   N1    S    
C44   C47   A    
C18   H11   S    
C40   C42   A    
Cu1   O1    S    
C13   C14   A    
C41   C43   A    
C42   C44   A    
C24   N2    A    
C12   O17   A    
C20   C29   A    
C51   O7    S    
C46   C48   A    
C42   C53   S    
C25   N1    A    
C17   O21   A    
Cu2   O19   S    
C5    C54   A    
C28   C32   A    
C14   H28   S    
C21   H2    S    
C47   C49   A    
C5    C7    A    
C6    C8    A    
C45   C52   A    
C6    H14   S    
C20   H32   S    
C52   O8    S    
C30   C37   A    
O14   S2    D    
C51   C53   A    
C7    C11   A    
C1    C54   S    
C46   H10   S    
O11   S1    S    
C24   H30   S    
C3    C56   A    
C23   C51   A    
C31   C32   A    
C10   C19   A    
H20   O5    S    
C9    C56   A    
C43   C45   S    
C34   C53   A    
C33   H3    S    
C20   C22   A    
C40   H7    S    
H22   O7    S    
O9    S1    D    
C31   C35   A    
Cu2   O12   S    
C2    C10   A    
C16   O20   A    
C15   H29   S    
C38   H5    S    
C26   O3    S    
C7    C9    A    
C4    S1    S    
H24   O8    S    
C8    C10   A    
C47   O5    S    
Cu1   O21   S    
C41   H8    S    
C25   C27   A    
C48   O6    S    
C21   C30   A    
H19   O4    S    
C34   C52   A    
C49   H1    S    
C32   C33   A    
C28   C30   A    
C50   H12   S    
C4    C55   A    
C38   C40   A    
C11   C13   A    
Cu1   Cu2   S    
C2    C4    A    
C48   C50   A    
C22   H31   S    
C37   O2    S    
C35   H4    S    
Cu2   O16   S    
C5    H15   S    
C43   C46   A    
O15   S2    S    
C12   C55   S    
C1    O16   A    
C9    C18   A    
C39   C50   A    
C25   O4    S    
C1    O1    A    
C21   C24   A    
C44   H9    S    
H17   O2    S    
