data_mof_unit_54568.cif
_audit_creation_date              2012-12-11T14:33:50-0500
_audit_creation_method            fapswitch 2.2
_symmetry_space_group_name_H-M    P1
_symmetry_Int_Tables_number       1
_space_group_crystal_system       triclinic
_cell_length_a                    14.351932
_cell_length_b                    14.352052
_cell_length_c                    26.987465
_cell_angle_alpha                 89.997035
_cell_angle_beta                  90.001834
_cell_angle_gamma                 120.000099
_cell_volume                      4814.11717999

loop_
_atom_site_label
_atom_site_type_symbol
_atom_type_description
_atom_site_fract_x
_atom_site_fract_y
_atom_site_fract_z
_atom_type_partial_charge
C1    C     C_R   0.234952 0.787688 0.568444 0.546443
C2    C     C_R   0.212307 0.447253 0.568442 0.546443
C3    C     C_R   0.552742 0.765048 0.568442 0.546442
C4    C     C_3   0.680097 0.744576 0.793549 0.410680
C5    C     C_3   0.255421 0.935527 0.793538 0.410701
C6    C     C_3   0.064477 0.319912 0.793537 0.410703
C7    C     C_3   0.671616 0.734404 0.735299 0.529144
C8    C     C_3   0.265592 0.937190 0.735289 0.529119
C9    C     C_3   0.062797 0.328369 0.735284 0.529132
C10   C     C_1   0.680187 0.852072 0.865811 0.159895
C11   C     C_1   0.147935 0.828141 0.865812 0.159868
C12   C     C_1   0.171873 0.319835 0.865814 0.159890
C13   C     C_1   0.632045 0.810230 0.658678 0.196069
C14   C     C_1   0.189762 0.821772 0.658683 0.196068
C15   C     C_1   0.178204 0.367932 0.658675 0.196067
C16   C     C_1   0.603935 0.795183 0.615940 0.162314
C17   C     C_1   0.204813 0.808723 0.615944 0.162317
C18   C     C_1   0.191258 0.396048 0.615937 0.162310
C19   C     C_R   0.105628 0.220959 0.088099 0.597974
C20   C     C_R   0.779040 0.884666 0.088099 0.597973
C21   C     C_R   0.115334 0.894371 0.088099 0.597972
C22   C     C_R   0.107853 0.221598 0.952145 0.578694
C23   C     C_R   0.778406 0.886261 0.952144 0.578692
C24   C     C_R   0.113741 0.892150 0.952144 0.578693
C25   C     C_R   0.655222 0.911675 0.368845 0.213301
C26   C     C_R   0.088325 0.743560 0.368850 0.213306
C27   C     C_R   0.256445 0.344780 0.368848 0.213305
C28   C     C_R   0.672999 0.925790 0.316798 -0.043964
C29   C     C_R   0.074212 0.747215 0.316803 -0.043966
C30   C     C_R   0.252788 0.327007 0.316802 -0.043960
C31   C     C_R   0.699670 0.939909 0.212211 -0.021715
C32   C     C_R   0.060089 0.759758 0.212215 -0.021720
C33   C     C_R   0.240239 0.300325 0.212216 -0.021714
C34   C     C_R   0.231594 0.789882 0.433361 0.551987
C35   C     C_R   0.210119 0.441716 0.433360 0.551991
C36   C     C_R   0.558286 0.768406 0.433360 0.551984
C37   C     C_R   0.700519 0.024051 0.238870 0.470999
C38   C     C_R   0.975946 0.676468 0.238878 0.471002
C39   C     C_R   0.323529 0.299474 0.238881 0.470996
C40   C     C_R   0.685159 0.017262 0.290183 0.271227
C41   C     C_R   0.982738 0.667901 0.290192 0.271232
C42   C     C_R   0.332101 0.314843 0.290193 0.271234
C43   C     C_R   0.720978 0.949314 0.161073 0.365720
C44   C     C_R   0.050681 0.771659 0.161077 0.365722
C45   C     C_R   0.228335 0.279009 0.161079 0.365717
C46   C     C_R   0.721877 0.864853 0.135360 -0.016444
C47   C     C_R   0.135146 0.857015 0.135360 -0.016442
C48   C     C_R   0.142982 0.278122 0.135360 -0.016439
C49   C     C_R   0.661697 0.746139 0.365750 0.235950
C50   C     C_R   0.253870 0.915563 0.365745 0.235945
C51   C     C_R   0.084444 0.338329 0.365741 0.235941
C52   C     C_R   0.667757 0.750750 0.314175 -0.051197
C53   C     C_R   0.249258 0.917007 0.314170 -0.051203
C54   C     C_R   0.082999 0.332268 0.314166 -0.051198
C55   C     C_R   0.673114 0.840656 0.289454 -0.133221
C56   C     C_R   0.159348 0.832459 0.289454 -0.133224
C57   C     C_R   0.167545 0.326899 0.289452 -0.133221
C58   C     C_R   0.662308 0.664786 0.286612 0.443758
C59   C     C_R   0.335225 0.997515 0.286603 0.443762
C60   C     C_R   0.002492 0.337724 0.286597 0.443762
C61   C     C_R   0.663566 0.667707 0.235411 0.491708
C62   C     C_R   0.332302 0.995846 0.235402 0.491721
C63   C     C_R   0.004158 0.336463 0.235396 0.491715
C64   C     C_R   0.676039 0.758795 0.210415 -0.054608
C65   C     C_R   0.241210 0.917232 0.210410 -0.054602
C66   C     C_R   0.082769 0.323978 0.210407 -0.054603
C67   C     C_3   0.540562 0.804713 0.736808 0.550368
C68   C     C_3   0.195277 0.735826 0.736826 0.550397
C69   C     C_3   0.264162 0.459430 0.736803 0.550358
C70   C     C_R   0.682299 0.846348 0.237384 -0.192039
C71   C     C_R   0.153655 0.835946 0.237383 -0.192042
C72   C     C_R   0.164054 0.317709 0.237382 -0.192039
C73   C     C_R   0.688514 0.766309 0.159110 0.380767
C74   C     C_R   0.233695 0.922188 0.159105 0.380774
C75   C     C_R   0.077811 0.311501 0.159102 0.380769
C76   C     C_R   0.632888 0.813450 0.390760 0.003078
C77   C     C_R   0.186554 0.819446 0.390760 0.003081
C78   C     C_R   0.180559 0.367123 0.390757 0.003079
C79   C     C_3   0.738786 0.936759 0.727847 0.509547
C80   C     C_3   0.063235 0.802005 0.727848 0.509552
C81   C     C_3   0.197991 0.261208 0.727862 0.509574
C82   C     C_3   0.744498 0.947116 0.785843 0.493023
C83   C     C_3   0.052882 0.797379 0.785844 0.493033
C84   C     C_3   0.202620 0.255512 0.785860 0.492993
C85   C     C_1   0.717569 0.866531 0.907100 0.144537
C86   C     C_1   0.133474 0.851056 0.907100 0.144539
C87   C     C_1   0.148956 0.282447 0.907102 0.144531
C88   C     C_3   0.647885 0.821767 0.713098 -0.140821
C89   C     C_3   0.178225 0.826087 0.713102 -0.140823
C90   C     C_3   0.173898 0.352100 0.713097 -0.140824
C91   C     C_3   0.547333 0.813291 0.794649 0.284934
C92   C     C_3   0.186719 0.734056 0.794667 0.284891
C93   C     C_3   0.265956 0.452676 0.794646 0.284941
C94   C     C_3   0.661308 0.838387 0.811477 -0.181426
C95   C     C_3   0.161616 0.822933 0.811479 -0.181433
C96   C     C_3   0.177075 0.338707 0.811477 -0.181416
Cr1   Cr    Cr6+3 0.164410 0.584450 0.499910 1.209799
Cr2   Cr    Cr6+3 0.415550 0.579960 0.499910 1.209793
Cr3   Cr    Cr6+3 0.420040 0.835590 0.499910 1.209802
Cr4   Cr    Cr6+3 0.155170 0.075460 0.019960 1.219938
Cr5   Cr    Cr6+3 0.924540 0.079710 0.019960 1.219934
Cr6   Cr    Cr6+3 0.920290 0.844830 0.019960 1.219940
H1    H     H_    0.531172 0.877238 0.807436 0.232218
H2    H     H_    0.122780 0.653954 0.807469 0.232191
H3    H     H_    0.346063 0.468840 0.807441 0.232215
O1    O     O_R   0.137150 0.468200 0.553200 -0.455490
O2    O     O_R   0.531800 0.668950 0.553200 -0.455504
O3    O     O_R   0.331050 0.862850 0.553200 -0.455493
O4    O     O_R   0.179100 0.982980 0.967000 -0.467661
O5    O     O_R   0.017020 0.196120 0.967000 -0.467661
O6    O     O_R   0.803880 0.820900 0.967000 -0.467652
O7    O     O_R   0.173970 0.688730 0.549930 -0.470460
O8    O     O_R   0.311270 0.485240 0.549930 -0.470462
O9    O     O_R   0.514760 0.826030 0.549930 -0.470452
O10   O     O_R   0.140110 0.470540 0.446010 -0.443760
O11   O     O_R   0.529460 0.669570 0.446010 -0.443756
O12   O     O_R   0.330430 0.859890 0.446010 -0.443755
O13   O     O_R   0.176710 0.690910 0.450560 -0.461257
O14   O     O_R   0.309090 0.485800 0.450560 -0.461256
O15   O     O_R   0.514200 0.823290 0.450560 -0.461254
O16   O     O_3   0.333333 0.666667 0.499990 -0.370764
O17   O     O_R   0.176750 0.985260 0.074180 -0.423851
O18   O     O_R   0.014740 0.191490 0.074180 -0.423852
O19   O     O_R   0.808510 0.823250 0.074180 -0.423851
O20   O     O_R   0.146100 0.172630 0.068980 -0.460179
O21   O     O_R   0.827370 0.973470 0.068980 -0.460176
O22   O     O_R   0.026530 0.853900 0.068980 -0.460176
O23   O     O_3   1.000000 0.000000 0.020040 -0.324262
O24   O     O_R   0.148270 0.170520 0.969620 -0.485564
O25   O     O_R   0.829480 0.977750 0.969620 -0.485574
O26   O     O_R   0.022250 0.851730 0.969620 -0.485573
F1    F     F_    0.455845 0.706036 0.723431 -0.404759
F2    F     F_    0.293946 0.749769 0.723445 -0.404724
F3    F     F_    0.250201 0.544140 0.723410 -0.404784
F4    F     F_    0.467153 0.720109 0.816332 -0.437229
F5    F     F_    0.279913 0.747082 0.816348 -0.437269
F6    F     F_    0.252950 0.532862 0.816315 -0.437227
Cl1   Cl    Cl    0.805468 0.766894 0.816565 -0.245025
Cl2   Cl    Cl    0.233090 0.038579 0.816531 -0.244947
Cl3   Cl    Cl    0.961418 0.194550 0.816559 -0.245013
F7    F     F_    0.747992 0.042612 0.136917 -0.483355
F8    F     F_    0.957378 0.705381 0.136925 -0.483347
F9    F     F_    0.294609 0.251977 0.136930 -0.483358
Cl4   Cl    Cl    0.675418 0.016724 0.409764 -0.343103
Cl5   Cl    Cl    0.983271 0.658722 0.409773 -0.343105
Cl6   Cl    Cl    0.341278 0.324557 0.409774 -0.343118
F10   F     F_    0.714123 0.113380 0.214893 -0.404177
F11   F     F_    0.886615 0.600742 0.214905 -0.404163
F12   F     F_    0.399253 0.285865 0.214910 -0.404184
Cl7   Cl    Cl    0.676092 0.125295 0.316381 -0.117989
Cl8   Cl    Cl    0.874712 0.550796 0.316396 -0.117980
Cl9   Cl    Cl    0.449211 0.323933 0.316398 -0.118001
F13   F     F_    0.678482 0.681013 0.132663 -0.470654
F14   F     F_    0.318993 0.997444 0.132653 -0.470664
F15   F     F_    0.002556 0.321545 0.132649 -0.470668
F16   F     F_    0.655873 0.581714 0.210626 -0.391713
F17   F     F_    0.418298 0.074140 0.210612 -0.391713
F18   F     F_    0.925863 0.344163 0.210605 -0.391719
F19   F     F_    0.648092 0.573441 0.308479 -0.445964
F20   F     F_    0.426573 0.074644 0.308465 -0.445962
F21   F     F_    0.925365 0.351950 0.308457 -0.445968
Cl10  Cl    Cl    0.510317 0.900413 0.711294 -0.212304
Cl11  Cl    Cl    0.099552 0.609867 0.711343 -0.212190
Cl12  Cl    Cl    0.390115 0.489670 0.711304 -0.212271
Cl13  Cl    Cl    0.699113 0.664173 0.400047 -0.289459
Cl14  Cl    Cl    0.335848 0.034945 0.400035 -0.289446
Cl15  Cl    Cl    0.965060 0.300926 0.400030 -0.289448
Cl16  Cl    Cl    0.862284 0.966127 0.700671 -0.198817
Cl17  Cl    Cl    0.033868 0.896124 0.700656 -0.198860
Cl18  Cl    Cl    0.103877 0.137702 0.700691 -0.198773
F22   F     F_    0.721849 0.015245 0.706982 -0.470408
F23   F     F_    0.984743 0.706577 0.706992 -0.470391
F24   F     F_    0.293424 0.278143 0.707011 -0.470388
Cl19  Cl    Cl    0.717627 0.052201 0.805402 -0.266861
Cl20  Cl    Cl    0.947800 0.665428 0.805417 -0.266879
Cl21  Cl    Cl    0.334569 0.282382 0.805438 -0.266910
F25   F     F_    0.847028 0.975801 0.801812 -0.452919
F26   F     F_    0.024195 0.871226 0.801801 -0.452908
F27   F     F_    0.128763 0.152990 0.801833 -0.452954
F28   F     F_    0.588305 0.635978 0.723138 -0.454879
F29   F     F_    0.364017 0.952294 0.723135 -0.454894
F30   F     F_    0.047674 0.411667 0.723102 -0.454881
Cl22  Cl    Cl    0.779589 0.727034 0.705725 -0.179983
Cl23  Cl    Cl    0.272971 0.052521 0.705693 -0.180039
Cl24  Cl    Cl    0.947464 0.220382 0.705712 -0.180004
Cl25  Cl    Cl    0.586833 0.618444 0.822628 -0.249161
Cl26  Cl    Cl    0.381559 0.968425 0.822622 -0.249129
Cl27  Cl    Cl    0.031603 0.413186 0.822594 -0.249145

loop_
_geom_bond_atom_site_label_1
_geom_bond_atom_site_label_2
_ccdc_geom_bond_type
C8    F29   S    
C34   O13   A    
Cr2   O16   S    
C61   F16   S    
C10   C85   T    
C69   F3    S    
C82   C94   S    
C83   Cl20  S    
C15   C18   T    
C33   C45   A    
C51   Cl15  S    
C67   F1    S    
C14   C17   T    
C69   Cl12  S    
C27   C78   A    
C6    C9    S    
C53   C59   A    
Cr2   O14   S    
C54   C60   A    
C25   C28   A    
C49   Cl13  S    
Cr3   O3    S    
C19   O18   A    
C67   C88   S    
C33   C39   A    
C31   C43   A    
C60   C63   A    
C24   O26   A    
C68   F2    S    
C37   C40   A    
C69   C93   S    
C58   F19   S    
C4    C7    S    
C1    O7    A    
C2    O8    A    
C68   Cl11  S    
C2    C18   S    
C28   C40   A    
C11   C86   T    
C79   F22   S    
C30   C57   A    
C6    Cl27  S    
Cr1   O13   S    
Cr5   O23   S    
C74   F14   S    
C84   C96   S    
C4    Cl25  S    
C80   C89   S    
C39   C42   A    
Cr1   O16   S    
C9    F30   S    
C36   C76   S    
C33   C72   A    
C93   H3    S    
Cr3   O15   S    
C35   O14   A    
C31   C70   A    
C66   C72   A    
C82   Cl19  S    
C22   O5    A    
Cr5   O21   S    
C50   Cl14  S    
C64   C73   A    
C35   O10   A    
C32   C38   A    
C79   Cl16  S    
C21   O22   A    
C42   Cl9   S    
C62   C65   A    
C44   C47   A    
Cr3   O16   S    
Cr5   O25   S    
C8    Cl23  S    
C34   O12   A    
C63   C66   A    
Cr4   O4    S    
Cr4   O23   S    
C21   C47   S    
C27   C30   A    
C48   C75   A    
Cr6   O6    S    
C92   F5    S    
C80   Cl17  S    
Cr3   O9    S    
C80   C83   S    
Cr6   O19   S    
C79   C88   S    
C5    C95   S    
C28   C55   A    
C5    Cl2   S    
C32   C71   A    
C49   C76   A    
C26   C77   A    
Cr4   O20   S    
C50   C53   A    
C13   C88   S    
Cr6   O26   S    
C47   C74   A    
C38   C41   A    
C5    C8    S    
Cr6   O22   S    
Cr1   O7    S    
C92   H2    S    
C19   C48   S    
Cr2   O8    S    
C3    O2    A    
Cr5   O5    S    
C22   C87   S    
C2    O1    A    
C92   C95   S    
Cr2   O2    S    
C31   C37   A    
C23   O25   A    
C81   F24   S    
C84   F27   S    
C64   C70   A    
C14   C89   S    
C20   O21   A    
C80   F23   S    
Cr3   O12   S    
C59   F20   S    
Cr2   O11   S    
C7    C88   S    
C49   C52   A    
C83   C95   S    
C67   C91   S    
C60   F21   S    
C32   C44   A    
C62   F17   S    
C40   Cl7   S    
Cr5   O18   S    
C81   Cl18  S    
C37   F10   S    
C38   F11   S    
C52   C58   A    
C83   F26   S    
C4    C94   S    
C81   C90   S    
C93   C96   S    
C6    C96   S    
C22   O24   A    
C43   F7    S    
C25   Cl4   S    
Cr1   O10   S    
C5    Cl26  S    
C69   C90   S    
C36   O11   A    
C50   C77   A    
C81   C84   S    
C21   O17   A    
C45   C48   A    
C11   C95   S    
C59   C62   A    
C12   C87   T    
C29   C41   A    
Cr4   O24   S    
C1    C17   S    
C30   C42   A    
C24   O4    A    
C26   Cl5   S    
C91   H1    S    
C3    O9    A    
C9    C90   S    
C79   C82   S    
C52   C55   A    
C41   Cl8   S    
C29   C56   A    
C23   O6    A    
C39   F12   S    
C35   C78   S    
C9    Cl24  S    
C7    Cl22  S    
C51   C54   A    
C25   C76   A    
C51   C78   A    
C34   C77   S    
C65   C71   A    
C61   C64   A    
C67   Cl10  S    
C15   C90   S    
C58   C61   A    
C27   Cl6   S    
C66   C75   A    
C82   F25   S    
C68   C92   S    
C19   O20   A    
C7    F28   S    
Cr4   O17   S    
C57   C72   A    
C6    Cl3   S    
C36   O15   A    
C43   C46   A    
C53   C56   A    
C20   O19   A    
C55   C70   A    
C93   F6    S    
C65   C74   A    
C1    O3    A    
C4    Cl1   S    
C75   F15   S    
C91   F4    S    
C26   C29   A    
C44   F8    S    
C23   C85   S    
C13   C16   T    
C73   F13   S    
C45   F9    S    
C10   C94   S    
C12   C96   S    
C8    C89   S    
C63   F18   S    
C68   C89   S    
C84   Cl21  S    
Cr6   O23   S    
C24   C86   S    
C46   C73   A    
C20   C46   S    
C3    C16   S    
C56   C71   A    
C91   C94   S    
C54   C57   A    
Cr1   O1    S    
