data_mof_unit_23886.cif
_audit_creation_date              2012-12-11T14:06:48-0500
_audit_creation_method            fapswitch 2.2
_symmetry_space_group_name_H-M    P1
_symmetry_Int_Tables_number       1
_space_group_crystal_system       triclinic
_cell_length_a                    6.915407
_cell_length_b                    17.359941
_cell_length_c                    24.150204
_cell_angle_alpha                 104.941035
_cell_angle_beta                  90.129624
_cell_angle_gamma                 90.336156
_cell_volume                      2801.16889207

loop_
_atom_site_label
_atom_site_type_symbol
_atom_type_description
_atom_site_fract_x
_atom_site_fract_y
_atom_site_fract_z
_atom_type_partial_charge
O1    O     O_R   0.494290 0.391990 0.999150 -0.529922
O2    O     O_R   0.827170 0.534410 0.082350 -0.512885
O3    O     O_R   0.994360 0.608010 0.000850 -0.556294
C1    C     C_R   0.658406 0.548779 0.106372 0.830274
O4    O     O_R   0.824210 0.388010 0.004470 -0.497433
O5    O     O_R   0.991370 0.460560 0.922410 -0.550988
C2    C     C_R   0.653420 0.354493 0.999931 0.732174
O6    O     O_R   0.497270 0.539440 0.077590 -0.521375
O7    O     O_3   0.659770 0.523970 0.973170 -0.387689
V1    V     V_3+5 0.935840 0.495550 0.004980 1.720486
O8    O     O_R   0.320910 0.465590 0.917650 -0.502665
C3    C     C_R   0.151235 0.453047 0.893687 0.875185
O9    O     O_R   0.323870 0.611990 0.995530 -0.549495
C4    C     C_R   0.154615 0.645329 0.998873 0.802214
V2    V     V_3+5 0.435470 0.504450 0.995020 1.693923
O10   O     O_3   0.161670 0.476030 0.026830 -0.332398
C5    C     C_2   0.142955 0.730412 0.998378 -0.292007
H1    H     H_    0.277745 0.761351 0.995066 0.132008
C6    C     C_2   0.972607 0.769729 0.002055 -0.283805
H2    H     H_    0.837817 0.738753 0.005300 0.141608
C7    C     C_R   0.099391 0.251072 0.624276 0.703477
N1    N     N_R   0.072154 0.330683 0.648568 -0.563039
C8    C     C_R   0.014618 0.380675 0.616306 0.854266
C9    C     C_R   0.990198 0.351989 0.556535 -0.252075
C10   C     C_R   0.030181 0.271031 0.530021 -0.123324
C11   C     C_R   0.090995 0.219427 0.563680 -0.190397
C12   C     C_R   0.928859 0.402403 0.522587 0.637010
C13   C     C_R   0.908927 0.373574 0.463333 0.614712
C14   C     C_R   0.949557 0.293384 0.436055 -0.246952
C15   C     C_R   0.009753 0.242009 0.469608 -0.168140
C16   C     C_R   0.049018 0.161627 0.442664 -0.206793
C17   C     C_R   0.109728 0.110683 0.475861 0.619808
C18   C     C_R   0.139867 0.139003 0.535207 0.243698
C19   C     C_R   0.932429 0.262920 0.375989 0.743829
N2    N     N_R   0.974248 0.184799 0.350573 -0.548400
C20   C     C_R   0.031585 0.134342 0.382496 0.802852
O11   O     O_2   0.131336 0.203438 0.659274 -0.415724
O12   O     O_2   0.980014 0.457914 0.642297 -0.378952
O13   O     O_2   0.874250 0.310701 0.343179 -0.426097
O14   O     O_2   0.075531 0.058242 0.355671 -0.396019
C21   C     C_R   0.832460 0.095525 0.263088 0.661275
C22   C     C_R   0.835059 0.062390 0.203847 0.509884
C23   C     C_R   0.969901 0.088833 0.168815 -0.403405
C24   C     C_R   0.100841 0.151315 0.194927 0.383997
C25   C     C_R   0.098633 0.182522 0.254700 -0.194514
H3    H     H_    0.200823 0.228600 0.275194 0.226576
C26   C     C_R   0.965653 0.155135 0.288953 0.046652
C27   C     C_R   0.258403 0.413561 0.732098 0.325405
C28   C     C_R   0.266089 0.451387 0.792172 0.328524
C29   C     C_R   0.137823 0.425138 0.829866 -0.221521
C30   C     C_R   0.990081 0.370636 0.806363 -0.146424
H4    H     H_    0.888509 0.350738 0.833943 0.167155
C31   C     C_R   0.968707 0.341577 0.747359 -0.011920
H5    H     H_    0.849388 0.301593 0.730601 0.177834
C32   C     C_R   0.100921 0.362123 0.709752 0.156994
C33   C     C_R   0.699880 0.804047 0.626947 0.725945
N3    N     N_R   0.532443 0.790967 0.653707 -0.550816
C34   C     C_R   0.389574 0.742308 0.623605 0.791457
C35   C     C_R   0.407537 0.708442 0.563772 -0.233573
C36   C     C_R   0.572306 0.727057 0.535230 -0.042922
C37   C     C_R   0.720370 0.774636 0.567154 -0.041802
C38   C     C_R   0.263780 0.658352 0.531464 0.588853
C39   C     C_R   0.280876 0.629415 0.471935 0.620407
C40   C     C_R   0.441760 0.650097 0.442676 -0.210009
C41   C     C_R   0.588652 0.698674 0.474652 -0.128258
C42   C     C_R   0.751107 0.719647 0.446162 -0.097061
C43   C     C_R   0.898632 0.767071 0.478956 0.681511
C44   C     C_R   0.883482 0.793458 0.538550 -0.148105
C45   C     C_R   0.459772 0.623894 0.382300 0.848731
N4    N     N_R   0.615080 0.646922 0.354781 -0.543594
C46   C     C_R   0.759938 0.693481 0.385639 0.770105
O15   O     O_2   0.845202 0.846620 0.658014 -0.460541
O16   O     O_2   0.228650 0.728648 0.651130 -0.424300
O17   O     O_2   0.323528 0.575396 0.351315 -0.421149
O18   O     O_2   0.910751 0.715525 0.357753 -0.394725
H6    H     H_    0.999443 0.829888 0.562141 0.221214
C47   C     C_R   0.480028 0.643723 0.258433 0.661265
C48   C     C_R   0.490282 0.619862 0.198307 0.482789
C49   C     C_R   0.648566 0.575148 0.170499 -0.409317
C50   C     C_R   0.795525 0.554824 0.204847 0.596285
C51   C     C_R   0.782958 0.577770 0.264896 -0.158395
H7    H     H_    0.896246 0.560378 0.290165 0.250716
C52   C     C_R   0.625594 0.622439 0.292472 0.012992
C53   C     C_R   0.489378 0.790026 0.755063 -0.042666
H8    H     H_    0.495497 0.725567 0.742418 0.224829
C54   C     C_R   0.466358 0.829347 0.812892 -0.258685
H9    H     H_    0.452356 0.794172 0.843815 0.151236
C55   C     C_R   0.469823 0.912901 0.831408 -0.212009
C56   C     C_R   0.495172 0.957845 0.790397 0.310326
C57   C     C_R   0.491154 0.917425 0.730810 0.348213
C58   C     C_R   0.502744 0.832999 0.713466 0.152314
C59   C     C_2   0.636370 0.270817 0.003065 0.328564
C60   C     C_2   0.475623 0.224065 0.986054 0.052460
O19   O     O_R   0.618210 0.960470 0.922400 -0.537713
O20   O     O_R   0.291310 0.111960 0.995450 -0.491029
O21   O     O_R   0.124210 0.039530 0.077580 -0.517835
C61   C     C_R   0.461901 0.143793 0.995899 0.864250
O22   O     O_R   0.288310 0.965490 0.917650 -0.544261
O23   O     O_R   0.121180 0.892010 0.999220 -0.560919
C62   C     C_R   0.457506 0.949918 0.894056 0.783212
O24   O     O_R   0.621230 0.107990 0.000760 -0.506912
O25   O     O_3   0.455770 0.976060 0.026840 -0.377105
V3    V     V_3+5 0.179680 0.004440 0.995020 1.698005
O26   O     O_R   0.791670 0.888040 0.004570 -0.560724
C63   C     C_R   0.960958 0.854821 0.001575 0.720804
O27   O     O_R   0.794680 0.034510 0.082370 -0.500535
C64   C     C_R   0.963235 0.053202 0.105731 0.917566
V4    V     V_3+5 0.680070 0.995560 0.005010 1.685705
O28   O     O_3   0.953840 0.023940 0.973160 -0.352297
S1    S     S_3+6 0.448863 0.424567 0.684836 0.131544
O29   O     O_2   0.401693 0.491734 0.658471 -0.208076
O30   O     O_2   0.637852 0.442591 0.716433 -0.272244
O31   O     O_3   0.476191 0.340928 0.631841 -0.514410
H10   H     H_    0.528471 0.301234 0.650845 0.333907
S2    S     S_3+6 0.413783 0.537688 0.819270 0.078998
O32   O     O_2   0.602169 0.512958 0.840435 -0.316698
O33   O     O_2   0.453096 0.580892 0.773942 -0.257713
O34   O     O_3   0.301080 0.601591 0.873563 -0.536469
H11   H     H_    0.390324 0.647807 0.885434 0.333689
F1    F     F_    0.104445 0.637266 0.557029 -0.542331
F2    F     F_    0.136457 0.582213 0.443188 -0.559951
F3    F     F_    0.058670 0.788491 0.453894 -0.585274
F4    F     F_    0.328925 0.688871 0.283602 -0.541138
F5    F     F_    0.346778 0.642238 0.167393 -0.600879
F6    F     F_    0.949592 0.510900 0.180535 -0.593587
S3    S     S_3+6 0.542832 0.062484 0.813403 0.121805
O35   O     O_2   0.667128 0.088736 0.770585 -0.235639
O36   O     O_2   0.354186 0.106089 0.819222 -0.247246
O37   O     O_3   0.659773 0.087199 0.876546 -0.520384
H12   H     H_    0.690623 0.144641 0.883145 0.347111
S4    S     S_3+6 0.451399 0.969916 0.677575 0.212399
O38   O     O_2   0.345847 0.917476 0.627146 -0.312585
O39   O     O_2   0.330214 0.042324 0.701330 -0.161535
O40   O     O_3   0.665292 0.998297 0.655806 -0.404274
H13   H     H_    0.662999 0.979984 0.613421 0.388843
F7    F     F_    0.787687 0.242579 0.028008 -0.613428
S5    S     S_3+6 0.281845 0.251326 0.946231 0.022938
O41   O     O_2   0.159608 0.311439 0.986571 -0.317097
O42   O     O_2   0.360965 0.286647 0.900218 -0.352229
O43   O     O_3   0.140830 0.172578 0.915502 -0.443560
H14   H     H_    0.037987 0.194513 0.895483 0.374538
F8    F     F_    0.887477 0.480306 0.546327 -0.509910
F9    F     F_    0.850049 0.425134 0.432985 -0.542510
F10   F     F_    0.140300 0.032406 0.450215 -0.522503
S6    S     S_3+6 0.252009 0.072765 0.570535 0.212835
O44   O     O_2   0.101921 0.045392 0.606282 -0.196710
O45   O     O_2   0.335312 0.000665 0.529235 -0.231970
O46   O     O_3   0.433028 0.120462 0.612584 -0.417917
H15   H     H_    0.522261 0.138164 0.586212 0.324913
F11   F     F_    0.701178 0.068826 0.295623 -0.571547
F12   F     F_    0.706831 0.003163 0.180816 -0.595865
S7    S     S_3+6 0.259531 0.196243 0.154734 0.061399
O47   O     O_2   0.342724 0.272404 0.191938 -0.297249
O48   O     O_2   0.422060 0.140216 0.131552 -0.321741
O49   O     O_3   0.136332 0.216705 0.100173 -0.464581
H16   H     H_    0.212377 0.259065 0.089357 0.380661

loop_
_geom_bond_atom_site_label_1
_geom_bond_atom_site_label_2
_ccdc_geom_bond_type
C27   C32   A    
C27   S1    S    
C7    C11   A    
S3    O35   D    
O25   V3    S    
C21   C22   A    
O23   V3    S    
N2    C20   A    
C9    C12   A    
C1    O6    A    
S4    O40   S    
N2    C26   S    
S6    O44   D    
C57   C58   A    
C31   H5    S    
C33   N3    A    
S5    O42   D    
O19   V4    S    
C24   S7    S    
C13   C14   A    
C53   C54   A    
O31   H10   S    
O5    C3    A    
C15   C16   A    
C54   C55   A    
C50   F6    S    
C47   C52   A    
V2    O10   S    
C12   F8    S    
V4    O28   S    
C5    H1    S    
C19   N2    A    
O34   H11   S    
C39   F2    S    
S1    O29   D    
O8    V2    S    
C53   H8    S    
C16   C17   A    
C33   O15   S    
O22   V3    S    
C8    C9    A    
O25   V4    S    
N4    C46   A    
O1    V2    S    
C53   C58   A    
C48   F5    S    
O7    V1    S    
C38   F1    S    
C55   C56   A    
O24   V4    S    
C25   C26   A    
C42   C43   A    
C35   C36   A    
O9    C4    A    
C4    C5    S    
C59   F7    S    
O26   C63   A    
S6    O45   D    
O20   V3    S    
C51   H7    S    
C56   S3    S    
C31   C32   A    
O23   C63   A    
S5    O43   S    
C30   H4    S    
N4    C52   S    
C20   O14   S    
C9    C10   A    
C1    C49   S    
O4    C2    A    
C54   H9    S    
C21   F11   S    
S3    O37   S    
S2    O33   D    
C10   C11   A    
C47   C48   A    
C14   C19   A    
C19   O13   S    
C36   C37   A    
C30   C31   A    
O2    C1    A    
C43   C44   A    
O5    V1    S    
C14   C15   A    
C47   F4    S    
C11   C18   A    
C42   C46   A    
S7    O49   S    
O19   C62   A    
S2    O34   S    
C38   C39   A    
C29   C30   A    
C21   C26   A    
C45   O17   S    
C33   C37   A    
C13   F9    S    
C23   C64   S    
C40   C45   A    
O43   H14   S    
C22   F12   S    
S1    O31   S    
C55   C62   S    
O3    C4    A    
C18   S6    S    
C57   S4    S    
C6    C63   S    
C27   C28   A    
C28   S2    S    
O21   C64   A    
S7    O48   D    
C36   C41   A    
C41   C42   A    
O6    V2    S    
O22   C62   A    
O9    V2    S    
C23   C24   A    
C49   C50   A    
C22   C23   A    
S4    O38   D    
O2    V1    S    
C43   F3    S    
C60   C61   S    
O26   V4    S    
S6    O46   S    
C24   C25   A    
O37   H12   S    
C10   C15   A    
C35   C38   A    
S3    O36   D    
N3    C58   S    
O1    C2    A    
N1    C8    A    
C50   C51   A    
S4    O39   D    
C51   C52   A    
C3    C29   S    
O8    C3    A    
O20   C61   A    
N1    C32   S    
C44   H6    S    
C8    O12   S    
S5    O41   D    
O40   H13   S    
V3    O28   S    
C17   C18   A    
C6    H2    S    
C34   C35   A    
O4    V1    S    
O3    V1    S    
V1    O10   S    
C40   C41   A    
C46   O18   S    
C48   C49   A    
C37   C44   A    
N3    C34   A    
O27   V4    S    
C2    C59   S    
C59   C60   D    
C5    C6    D    
O46   H15   S    
O7    V2    S    
C45   N4    A    
S1    O30   D    
C17   F10   S    
C60   S5    S    
C39   C40   A    
C25   H3    S    
C7    O11   S    
S7    O47   D    
C28   C29   A    
O27   C64   A    
O21   V3    S    
O49   H16   S    
C16   C20   A    
C56   C57   A    
C7    N1    A    
C61   O24   A    
S2    O32   D    
C34   O16   S    
C12   C13   A    
