data_mof_unit_58644.cif
_audit_creation_date              2012-12-11T17:47:34-0500
_audit_creation_method            fapswitch 2.2
_symmetry_space_group_name_H-M    P1
_symmetry_Int_Tables_number       1
_space_group_crystal_system       triclinic
_cell_length_a                    14.890812
_cell_length_b                    14.954701
_cell_length_c                    15.079112
_cell_angle_alpha                 110.620231
_cell_angle_beta                  108.608328
_cell_angle_gamma                 108.391226
_cell_volume                      2609.04706537

loop_
_atom_site_label
_atom_site_type_symbol
_atom_type_description
_atom_site_fract_x
_atom_site_fract_y
_atom_site_fract_z
_atom_type_partial_charge
C1    C     C_R   0.975420 0.252035 0.064541 -0.123406
C2    C     C_R   0.086897 0.802936 0.002576 -0.153941
C3    C     C_R   0.320232 0.781212 0.324616 0.088441
C4    C     C_R   0.696097 0.146496 0.688532 0.114754
C5    C     C_R   0.307353 0.501171 0.942669 0.037677
C6    C     C_R   0.676372 0.502706 0.948730 0.031002
C7    C     C_R   0.934306 0.501365 0.301492 0.067951
C8    C     C_R   0.960500 0.505629 0.679558 0.053427
C9    C     C_R   0.158604 0.035970 0.077246 -0.234910
C10   C     C_R   0.052773 0.135047 0.156828 -0.224001
C11   C     C_R   0.239859 0.120023 0.854652 -0.121034
C12   C     C_R   0.852229 0.967380 0.268053 -0.133632
C13   C     C_R   0.176551 0.105454 0.904658 -0.216447
C14   C     C_R   0.940598 0.018107 0.256305 -0.186354
C15   C     C_R   0.651361 0.207821 0.092899 0.334660
C16   C     C_R   0.293651 0.750771 0.808626 0.346795
C17   C     C_R   0.693085 0.300563 0.193153 -0.264732
C18   C     C_R   0.196924 0.672815 0.711220 -0.225974
C19   C     C_R   0.760466 0.309441 0.288620 0.083123
C20   C     C_R   0.110613 0.694422 0.678870 0.074105
C21   C     C_R   0.768002 0.217186 0.285507 -0.231528
C22   C     C_R   0.123903 0.797654 0.739356 -0.254151
C23   C     C_R   0.313755 0.756258 0.223900 -0.137464
C24   C     C_R   0.698473 0.200353 0.785029 -0.165392
C25   C     C_R   0.719981 0.122049 0.186737 -0.208626
C26   C     C_R   0.217787 0.873666 0.838134 -0.237957
C27   C     C_R   0.667679 0.118758 0.089434 0.349251
C28   C     C_R   0.301964 0.850771 0.875431 0.333779
C29   C     C_R   0.846712 0.425980 0.485621 -0.254924
C30   C     C_R   0.984614 0.604588 0.488893 -0.242326
C31   C     C_R   0.934793 0.514974 0.583121 0.060561
C32   C     C_R   0.911311 0.507478 0.390349 0.049751
C33   C     C_R   0.004330 0.606271 0.584641 0.056316
C34   C     C_R   0.836847 0.417551 0.387699 0.066410
C35   C     C_R   0.224572 0.160134 0.018157 0.118009
C36   C     C_R   0.934733 0.977951 0.153994 0.120475
C37   C     C_R   0.400113 0.237558 0.030908 -0.129905
C38   C     C_R   0.746915 0.845017 0.074200 -0.162043
C39   C     C_R   0.162557 0.990654 0.374307 -0.123768
C40   C     C_R   0.855860 0.949336 0.705210 -0.115969
C41   C     C_R   0.256801 0.984459 0.387178 -0.138609
C42   C     C_R   0.759637 0.954984 0.673994 -0.142672
C43   C     C_R   0.308642 0.964881 0.467895 0.182155
C44   C     C_R   0.711987 0.954246 0.576805 0.179579
C45   C     C_R   0.214554 0.409603 0.908252 -0.156267
C46   C     C_R   0.776300 0.593071 0.025389 -0.145769
C47   C     C_R   0.265656 0.952093 0.535849 -0.179442
C48   C     C_R   0.762500 0.949424 0.512163 -0.172039
C49   C     C_R   0.169788 0.956138 0.520997 -0.136750
C50   C     C_R   0.858637 0.943739 0.543635 -0.117093
C51   C     C_R   0.118271 0.975630 0.440263 -0.099703
C52   C     C_R   0.904976 0.943113 0.639731 -0.094936
C53   C     C_R   0.506572 0.057881 0.561572 0.246888
C54   C     C_R   0.512392 0.862481 0.455022 0.242061
C55   C     C_R   0.603070 0.052385 0.593930 -0.048437
C56   C     C_R   0.414709 0.866839 0.426385 -0.034200
C57   C     C_R   0.607910 0.956521 0.541421 -0.087863
C58   C     C_R   0.411041 0.962111 0.485084 -0.087215
C59   C     C_R   0.351866 0.184273 0.917791 -0.084500
C60   C     C_R   0.755649 0.880047 0.177097 -0.106569
C61   C     C_R   0.027974 0.031303 0.140872 0.000508
C62   C     C_R   0.162343 0.126450 0.069304 0.026061
C63   C     C_R   0.336674 0.226628 0.081058 -0.147900
C64   C     C_R   0.836000 0.893316 0.062469 -0.137242
C65   C     C_R   0.080113 0.978579 0.096571 0.050508
C66   C     C_R   0.099814 0.171352 0.100591 0.059611
C67   C     C_R   0.990882 0.591125 0.296421 -0.153009
C68   C     C_R   0.943343 0.411240 0.686093 -0.135370
C69   C     C_3   0.465422 0.399686 0.873636 -0.152715
C70   C     C_3   0.507550 0.606531 0.982806 -0.163922
C71   C     C_3   0.408199 0.454540 0.825478 -0.139921
C72   C     C_3   0.563642 0.551807 0.030658 -0.150749
C73   C     C_3   0.399554 0.503223 0.928382 0.184838
C74   C     C_3   0.574169 0.502892 0.928699 0.181958
C75   C     C_3   0.455328 0.448972 0.976120 -0.154936
C76   C     C_3   0.519243 0.558038 0.880424 -0.152196
C77   C     C_R   0.303675 0.591578 0.002169 -0.120129
C78   C     C_R   0.686861 0.410590 0.931461 -0.134340
C79   C     C_R   0.911468 0.410420 0.212093 -0.128256
C80   C     C_R   0.023982 0.593345 0.782454 -0.115165
C81   C     C_R   0.217417 0.743097 0.311286 -0.117494
C82   C     C_R   0.790575 0.204861 0.693989 -0.133531
C83   C     C_R   0.073193 0.257673 0.979055 -0.138277
C84   C     C_R   0.995829 0.800960 0.093838 -0.141044
C85   C     C_R   0.056882 0.230151 0.054047 0.056599
C86   C     C_R   0.051056 0.863944 0.061800 0.058068
H1    H     H_    0.937873 0.237836 0.111737 0.098983
H2    H     H_    0.145401 0.831202 0.977933 0.106125
H3    H     H_    0.202645 0.078104 0.767246 0.110416
H4    H     H_    0.857928 0.997184 0.347320 0.102436
H5    H     H_    0.486479 0.288705 0.080549 0.126415
H6    H     H_    0.671240 0.780957 0.003146 0.124699
H7    H     H_    0.687638 0.372000 0.195879 0.137368
H8    H     H_    0.186953 0.593655 0.661904 0.135530
H9    H     H_    0.818213 0.221327 0.358565 0.135528
H10   H     H_    0.058356 0.815860 0.714551 0.139997
H11   H     H_    0.731587 0.054333 0.186080 0.165196
H12   H     H_    0.223359 0.949036 0.888840 0.172855
H13   H     H_    0.792008 0.357787 0.485460 0.132821
H14   H     H_    0.042048 0.674519 0.493850 0.131103
H15   H     H_    0.090676 0.049827 0.855734 0.119707
H16   H     H_    0.013808 0.087995 0.327030 0.111957
H17   H     H_    0.427653 0.410018 0.019183 0.134533
H18   H     H_    0.546990 0.601665 0.840250 0.115595
H19   H     H_    0.379877 0.778460 0.206526 0.111097
H20   H     H_    0.637565 0.169847 0.806075 0.121544
H21   H     H_    0.375209 0.265763 0.168555 0.117104
H22   H     H_    0.828200 0.864926 0.982284 0.116082
H23   H     H_    0.044553 0.979625 0.429384 0.103929
H24   H     H_    0.978717 0.937426 0.662998 0.089038
H25   H     H_    0.124843 0.007496 0.313159 0.119420
H26   H     H_    0.891800 0.948968 0.779733 0.110142
H27   H     H_    0.289887 0.995669 0.335142 0.116434
H28   H     H_    0.721740 0.958909 0.724782 0.112958
H29   H     H_    0.305819 0.937927 0.599219 0.119486
H30   H     H_    0.727089 0.949567 0.437353 0.105440
H31   H     H_    0.135676 0.944536 0.572134 0.106437
H32   H     H_    0.896925 0.939168 0.493267 0.099846
H33   H     H_    0.208777 0.004122 0.055237 0.127323
H34   H     H_    0.016337 0.175953 0.195272 0.127385
H35   H     H_    0.341589 0.414906 0.741751 0.111821
H36   H     H_    0.628372 0.591899 0.115537 0.117908
H37   H     H_    0.448618 0.315165 0.825390 0.104178
H38   H     H_    0.523112 0.690980 0.028856 0.101377
H39   H     H_    0.188605 0.326359 0.851021 0.109271
H40   H     H_    0.794794 0.677324 0.061411 0.123886
H41   H     H_    0.008556 0.674189 0.343501 0.102053
H42   H     H_    0.898052 0.328056 0.619931 0.092898
H43   H     H_    0.358355 0.675695 0.032523 0.086741
H44   H     H_    0.623420 0.327209 0.877830 0.113904
H45   H     H_    0.867367 0.326445 0.187744 0.117639
H46   H     H_    0.044731 0.676807 0.808194 0.125298
H47   H     H_    0.193641 0.749362 0.372801 0.115269
H48   H     H_    0.818393 0.180297 0.636176 0.100153
H49   H     H_    0.132635 0.257586 0.954067 0.128202
H50   H     H_    0.975078 0.827386 0.157099 0.117816
H51   H     H_    0.400832 0.192002 0.878714 0.107146
H52   H     H_    0.686898 0.842117 0.186341 0.100979
N1    N     N_R   0.947560 0.293820 0.002910 -0.042792
N2    N     N_R   0.052440 0.706180 0.997090 -0.040896
N3    N     N_R   0.208960 0.706170 0.152110 -0.044382
N4    N     N_R   0.791040 0.293830 0.847890 -0.041573
N5    N     N_R   0.154330 0.443160 0.946140 -0.040676
N6    N     N_R   0.845670 0.556840 0.053860 -0.038680
N7    N     N_R   0.002190 0.556820 0.208880 -0.040369
N8    N     N_R   0.997810 0.443180 0.791120 -0.040473
N9    N     N_R   0.210550 0.556810 0.002910 -0.036955
N10   N     N_R   0.789450 0.443190 0.997090 -0.034638
N11   N     N_R   0.945970 0.443180 0.152110 -0.041251
N12   N     N_R   0.054030 0.556820 0.847890 -0.041935
N13   N     N_R   0.151530 0.706170 0.208880 -0.043298
N14   N     N_R   0.848470 0.293830 0.791120 -0.040350
N15   N     N_R   0.004980 0.293810 0.946140 -0.040867
N16   N     N_R   0.995020 0.706190 0.053860 -0.038830
Ni1   Ni    Ni4+2 0.869690 0.369690 0.000000 0.207579
Ni2   Ni    Ni4+2 0.130310 0.630310 0.000000 0.216530
Ni3   Ni    Ni4+2 0.001390 0.369680 0.869810 0.216549
Ni4   Ni    Ni4+2 0.998610 0.630320 0.130190 0.217284
C87   C     C_3   0.639629 0.025628 0.984500 -1.066427
H53   H     H_    0.553659 0.988117 0.924005 0.269953
H54   H     H_    0.691130 0.056396 0.951370 0.260024
H55   H     H_    0.653303 0.960928 0.996231 0.258739
C88   C     C_3   0.395090 0.933136 0.988017 -1.059322
H56   H     H_    0.459576 0.910918 0.011418 0.275320
H57   H     H_    0.430922 0.013829 0.994239 0.271270
H58   H     H_    0.364768 0.940988 0.047278 0.245694
C89   C     C_3   0.611119 0.214878 0.992906 -1.105574
H59   H     H_    0.535658 0.139240 0.926158 0.263996
H60   H     H_    0.596316 0.285440 0.007280 0.250578
H61   H     H_    0.676360 0.228076 0.971239 0.261832
C90   C     C_3   0.384491 0.724623 0.839927 -1.069737
H62   H     H_    0.457272 0.785150 0.847857 0.262065
H63   H     H_    0.403702 0.726611 0.917861 0.251314
H64   H     H_    0.363024 0.642281 0.778655 0.254818
C91   C     C_3   0.504026 0.165587 0.605390 -0.983680
H65   H     H_    0.451497 0.170607 0.538120 0.248787
H66   H     H_    0.472447 0.171906 0.663590 0.241458
H67   H     H_    0.583952 0.238295 0.644954 0.255129
C92   C     C_3   0.514911 0.757718 0.397693 -0.984584
H68   H     H_    0.559109 0.739847 0.458053 0.254590
H69   H     H_    0.433251 0.685521 0.343050 0.252175
H70   H     H_    0.555978 0.766158 0.349023 0.241561

loop_
_geom_bond_atom_site_label_1
_geom_bond_atom_site_label_2
_ccdc_geom_bond_type
C16   C28   A    
C39   C51   A    
C90   H62   S    
C76   H18   S    
C80   H46   S    
C38   H6    S    
C41   C43   A    
C3    C23   A    
C88   H56   S    
C70   H38   S    
N6    N10   A    
C28   C88   S    
C66   C85   S    
C65   C86   S    
C47   C49   A    
N8    Ni3   S    
C47   H29   S    
C90   H63   S    
C53   C91   S    
C10   C66   A    
C74   C76   S    
C12   H4    S    
C88   H57   S    
C84   C86   A    
N16   Ni4   S    
N15   Ni3   S    
C14   C36   A    
C71   C76   S    
C4    C24   A    
C29   H13   S    
C14   H16   S    
N1    N15   A    
C27   C87   S    
C23   H19   S    
C30   H14   S    
C11   C13   A    
C54   C92   S    
C91   H66   S    
C2    C86   A    
N4    N14   A    
C1    H1    S    
C69   C71   S    
N7    N11   A    
C21   C25   A    
C43   C58   S    
N8    N12   A    
C84   N16   A    
C42   H28   S    
C49   H31   S    
C91   H65   S    
C24   N4    A    
C49   C51   A    
C67   N7    A    
C50   C52   A    
C87   H54   S    
C2    H2    S    
C8    C80   A    
N10   Ni1   S    
C52   H24   S    
N4    Ni1   S    
C89   H61   S    
C77   N9    A    
C83   H49   S    
C1    N1    A    
C78   N10   A    
C79   N11   A    
C92   H70   S    
C72   H36   S    
C48   C50   A    
C69   H37   S    
C51   H23   S    
N12   Ni2   S    
C75   H17   S    
C73   C75   S    
C15   C89   S    
C42   C44   A    
C72   C75   S    
C11   C59   A    
C63   H21   S    
C37   C63   A    
C46   H40   S    
C6    C74   S    
C91   H67   S    
C38   C64   A    
N11   Ni1   S    
C53   C55   A    
C1    C85   A    
C90   H64   S    
C54   C56   A    
C62   C66   A    
C9    C62   A    
N13   Ni4   S    
N5    Ni3   S    
C10   H34   S    
C89   H60   S    
C24   H20   S    
C45   H39   S    
C89   H59   S    
C71   C73   S    
C37   H5    S    
C46   N6    A    
C21   H9    S    
C40   C52   A    
C5    C45   A    
C29   C34   A    
C32   C34   A    
C82   H48   S    
N5    N9    A    
C3    C81   A    
C67   H41   S    
C3    C56   S    
C11   H3    S    
C15   C27   A    
C87   H53   S    
N1    Ni1   S    
C44   C57   S    
C79   H45   S    
C88   H58   S    
C70   C73   S    
C31   C33   A    
C87   H55   S    
C69   C74   S    
C77   H43   S    
C81   H47   S    
N9    Ni2   S    
C37   C59   A    
C26   H12   S    
C38   C60   A    
C20   C33   S    
C72   C74   S    
C83   C85   A    
C12   C14   A    
C8    C68   A    
C55   C57   A    
C4    C55   S    
C70   C76   S    
C9    H33   S    
C5    C77   A    
C10   C61   A    
C17   H7    S    
C69   C75   S    
C13   H15   S    
C36   C61   S    
C68   N8    A    
N3    N13   A    
C7    C79   A    
C25   H11   S    
C15   C17   A    
C68   H42   S    
N14   Ni3   S    
C84   H50   S    
C7    C32   S    
C6    C46   A    
C30   C33   A    
C19   C21   A    
C50   H32   S    
C8    C31   S    
C22   H10   S    
C71   H35   S    
C20   C22   A    
C40   C42   A    
C19   C34   S    
C70   C72   S    
C53   C58   A    
N3    Ni2   S    
C13   C35   A    
C83   N15   A    
C25   C27   A    
C26   C28   A    
C48   H30   S    
C2    N2    A    
C78   H44   S    
C41   H27   S    
C29   C31   A    
C81   N13   A    
C30   C32   A    
N7    Ni4   S    
C40   H26   S    
C16   C90   S    
C43   C47   A    
C18   H8    S    
C39   H25   S    
C17   C19   A    
C56   C58   A    
C80   N12   A    
C35   C62   S    
C18   C20   A    
N2    Ni2   S    
C5    C73   S    
C9    C65   A    
C6    C78   A    
C7    C67   A    
C92   H68   S    
C12   C60   A    
C61   C65   A    
C4    C82   A    
C39   C41   A    
C16   C18   A    
C22   C26   A    
C60   H52   S    
C45   N5    A    
C59   H51   S    
C23   N3    A    
C35   C63   A    
C36   C64   A    
N6    Ni4   S    
C82   N14   A    
C44   C48   A    
C64   H22   S    
N2    N16   A    
C92   H69   S    
C54   C57   A    
