data_mof_unit_60671.cif
_audit_creation_date              2013-03-05T16:06:56-0500
_audit_creation_method            fapswitch 2.2
_symmetry_space_group_name_H-M    P1
_symmetry_Int_Tables_number       1
_space_group_crystal_system       triclinic
_cell_length_a                    30.171491
_cell_length_b                    21.341907
_cell_length_c                    21.337466
_cell_angle_alpha                 89.980783
_cell_angle_beta                  134.997791
_cell_angle_gamma                 90.064174
_cell_volume                      9715.70277182

loop_
_atom_site_label
_atom_site_type_symbol
_atom_site_description
_atom_site_fract_x
_atom_site_fract_y
_atom_site_fract_z
_atom_type_partial_charge
O1    O     O_R   0.093030 0.500000 0.145540 -0.628075
O2    O     O_R   0.593030 0.000000 0.145540 -0.627413
O3    O     O_R   0.093020 0.500000 0.040510 -0.625139
O4    O     O_R   0.593020 0.000000 0.040510 -0.626378
C1    C     C_R   0.121531 0.499232 0.121593 0.865770
C2    C     C_R   0.621528 0.000657 0.121592 0.865708
O5    O     O_R   0.999990 0.593020 0.052510 -0.618557
O6    O     O_R   0.999990 0.406980 0.052510 -0.627290
O7    O     O_R   0.499990 0.093020 0.052510 -0.626633
O8    O     O_R   0.499990 0.906980 0.052510 -0.635042
O9    O     O_R   0.999990 0.593020 0.947470 -0.613090
O10   O     O_R   0.999990 0.406980 0.947470 -0.623875
O11   O     O_R   0.499990 0.093020 0.947470 -0.611556
O12   O     O_R   0.499990 0.906980 0.947470 -0.611384
C3    C     C_R   0.999991 0.621607 0.000006 0.917913
C4    C     C_R   0.999424 0.378422 0.999383 0.876942
C5    C     C_R   0.499248 0.121567 0.999190 0.928283
C6    C     C_R   0.500153 0.878401 0.000203 0.870666
Zn1   Zn    Zn3+2 0.000000 0.500000 0.070130 0.982140
Zn2   Zn    Zn3+2 0.500000 0.000000 0.070130 0.959135
Zn3   Zn    Zn3+2 0.000000 0.500000 0.929870 0.999840
Zn4   Zn    Zn3+2 0.500000 0.000000 0.929870 1.017499
O13   O     O_R   0.906980 0.500000 0.959490 -0.608620
O14   O     O_R   0.406980 0.000000 0.959490 -0.628181
O15   O     O_R   0.906970 0.500000 0.854460 -0.626737
O16   O     O_R   0.406970 0.000000 0.854460 -0.607575
C7    C     C_R   0.878369 0.499871 0.878328 0.910309
C8    C     C_R   0.378393 0.999539 0.878397 0.912268
C9    C     C_3   0.053666 0.728923 0.027326 -0.239441
C10   C     C_3   0.057424 0.271680 0.072517 -0.238122
C11   C     C_3   0.557070 0.228413 0.072187 -0.253507
C12   C     C_3   0.551595 0.771309 0.020912 -0.224845
C13   C     C_3   0.003868 0.769606 0.945794 0.363122
C14   C     C_3   0.041744 0.231420 0.999482 0.395479
C15   C     C_3   0.541483 0.268661 0.999222 0.382146
C16   C     C_3   0.499258 0.730533 0.941146 0.389806
H1    H     H_    0.096887 0.711089 0.047881 0.158309
H2    H     H_    0.104321 0.290479 0.131965 0.149106
H3    H     H_    0.603947 0.209716 0.131682 0.152604
H4    H     H_    0.592795 0.789508 0.036061 0.157282
C17   C     C_3   0.999910 0.810881 0.999701 -0.104095
C18   C     C_3   0.000598 0.189170 0.998578 -0.074352
C19   C     C_3   0.500321 0.310813 0.998254 -0.105883
C20   C     C_3   0.500253 0.689150 0.000098 -0.075248
C21   C     C_3   0.049430 0.770643 0.082457 -0.235139
C22   C     C_3   0.015155 0.229019 0.071300 -0.215906
C23   C     C_3   0.514769 0.270947 0.070885 -0.244168
C24   C     C_3   0.552441 0.729490 0.081213 -0.223703
C25   C     C_3   0.995878 0.729398 0.055292 -0.118145
C26   C     C_3   0.957262 0.269958 0.998006 -0.152113
C27   C     C_3   0.456877 0.229892 0.997517 -0.098269
C28   C     C_3   0.501318 0.770549 0.060986 -0.138798
C29   C     C_3   0.946345 0.770462 0.972371 -0.167556
C30   C     C_3   0.942811 0.229239 0.925337 -0.182979
C31   C     C_3   0.442517 0.270636 0.924927 -0.120187
C32   C     C_3   0.449139 0.729382 0.979746 -0.222304
C33   C     C_3   0.950199 0.728757 0.916844 -0.167202
C34   C     C_3   0.984847 0.271709 0.925981 -0.175921
C35   C     C_3   0.484582 0.228266 0.925654 -0.145987
C36   C     C_3   0.447879 0.771177 0.919008 -0.224130
C37   C     C_3   0.999927 0.689042 0.999946 -0.031363
C38   C     C_3   0.999463 0.311043 0.999008 -0.047795
C39   C     C_3   0.499125 0.188935 0.998622 -0.063564
C40   C     C_3   0.500260 0.810982 0.000423 -0.020076
H5    H     H_    0.089737 0.789085 0.150036 0.164373
H6    H     H_    0.027321 0.210036 0.130360 0.147231
H7    H     H_    0.526886 0.289914 0.129915 0.153299
H8    H     H_    0.594944 0.711162 0.147442 0.162395
H9    H     H_    0.992534 0.711234 0.100596 0.166911
H10   H     H_    0.922415 0.287813 0.997400 0.147541
H11   H     H_    0.421947 0.211907 0.996735 0.184062
H12   H     H_    0.502185 0.788643 0.110619 0.155193
H13   H     H_    0.902693 0.788699 0.950339 0.187252
H14   H     H_    0.895999 0.210772 0.865222 0.179116
H15   H     H_    0.395707 0.288968 0.864769 0.201807
H16   H     H_    0.407533 0.710897 0.963383 0.164778
H17   H     H_    0.910298 0.710359 0.849056 0.184470
H18   H     H_    0.973076 0.290077 0.866970 0.190109
H19   H     H_    0.472819 0.209876 0.866659 0.201942
H20   H     H_    0.405678 0.789600 0.852611 0.153524
C41   C     C_3   0.229614 0.454358 0.190915 0.059812
C42   C     C_3   0.229205 0.555182 0.210330 0.110672
C43   C     C_3   0.729018 0.944988 0.208929 0.109749
C44   C     C_3   0.729725 0.046242 0.192025 0.060410
C45   C     C_3   0.269988 0.510671 0.212584 0.344620
C46   C     C_3   0.769943 0.990358 0.212319 0.343993
C47   C     C_3   0.311138 0.499623 0.311159 -0.135205
C48   C     C_3   0.811119 0.000106 0.311154 -0.134582
C49   C     C_3   0.271046 0.442756 0.290619 -0.214137
C50   C     C_3   0.270669 0.544326 0.310258 -0.220098
C51   C     C_3   0.770523 0.954507 0.309124 -0.219563
C52   C     C_3   0.771170 0.056515 0.291991 -0.215097
C53   C     C_3   0.229510 0.487594 0.288326 -0.192285
C54   C     C_3   0.729520 0.010809 0.288585 -0.193030
C55   C     C_3   0.188930 0.498865 0.189179 -0.114386
C56   C     C_3   0.688917 0.000887 0.189175 -0.113746
H21   H     H_    0.289547 0.396878 0.325171 0.169908
H22   H     H_    0.289060 0.580927 0.360737 0.158483
H23   H     H_    0.788808 0.917190 0.358692 0.158538
H24   H     H_    0.789791 0.102014 0.327674 0.169004
H25   H     H_    0.211436 0.477992 0.318097 0.168875
H26   H     H_    0.711474 0.019333 0.318584 0.168288
C57   C     C_3   0.770391 0.499034 0.710553 -0.206435
C58   C     C_3   0.770407 0.448648 0.800869 -0.210707
C59   C     C_3   0.270359 0.969490 0.718817 -0.204670
C60   C     C_3   0.270448 0.969869 0.822316 -0.217927
C61   C     C_3   0.728992 0.447944 0.699849 -0.136791
C62   C     C_3   0.228978 0.940114 0.729302 -0.139540
H27   H     H_    0.710221 0.405597 0.657372 0.151206
H28   H     H_    0.210370 0.891508 0.710909 0.158326
H29   H     H_    0.788515 0.498000 0.679914 0.169852
H30   H     H_    0.788900 0.406737 0.843992 0.150686
H31   H     H_    0.288620 0.944624 0.695202 0.164924
H32   H     H_    0.288759 0.945291 0.882663 0.165180
C63   C     C_3   0.689100 0.500146 0.689088 -0.037866
C64   C     C_3   0.189168 0.000002 0.689308 -0.038536
C65   C     C_3   0.729244 0.551348 0.698319 -0.229164
C66   C     C_3   0.729086 0.500722 0.788883 -0.211311
C67   C     C_3   0.229270 0.029383 0.677305 -0.217068
C68   C     C_3   0.229363 0.029749 0.781278 -0.216550
C69   C     C_3   0.770127 0.550446 0.798163 0.380650
C70   C     C_3   0.270403 0.057392 0.770198 0.389099
C71   C     C_3   0.810862 0.499605 0.810568 -0.079457
C72   C     C_3   0.310924 0.999057 0.810926 -0.081803
H33   H     H_    0.711209 0.593687 0.656049 0.167041
H34   H     H_    0.710750 0.502320 0.819204 0.153870
H35   H     H_    0.211007 0.054434 0.617261 0.154585
H36   H     H_    0.211379 0.055141 0.804932 0.159046
O17   O     O_R   0.947510 0.000000 0.854550 -0.619934
O18   O     O_R   0.447510 0.500000 0.854550 -0.617352
O19   O     O_R   0.052540 0.000000 0.959610 -0.603608
O20   O     O_R   0.552540 0.500000 0.959610 -0.605664
C73   C     C_R   0.000032 0.000688 0.878522 1.030868
C74   C     C_R   0.500032 0.499257 0.878516 1.031319
O21   O     O_R   0.947490 0.906970 0.947560 -0.628951
O22   O     O_R   0.947490 0.093030 0.947560 -0.625437
O23   O     O_R   0.447490 0.406970 0.947560 -0.623825
O24   O     O_R   0.447490 0.593030 0.947560 -0.626798
O25   O     O_R   0.052520 0.906980 0.052620 -0.621005
O26   O     O_R   0.052520 0.093020 0.052620 -0.591683
O27   O     O_R   0.552520 0.406980 0.052620 -0.589200
O28   O     O_R   0.552520 0.593020 0.052620 -0.626060
C75   C     C_R   0.999970 0.878378 0.000192 0.936546
C76   C     C_R   0.000139 0.121636 0.999104 0.951278
C77   C     C_R   0.500059 0.378359 0.999008 0.958577
C78   C     C_R   0.500063 0.621632 0.000290 0.929464
Zn5   Zn    Zn3+2 0.929870 0.000000 0.929930 0.989971
Zn6   Zn    Zn3+2 0.429870 0.500000 0.929930 0.994892
Zn7   Zn    Zn3+2 0.070130 0.000000 0.070230 1.016744
Zn8   Zn    Zn3+2 0.570130 0.500000 0.070230 1.015635
O29   O     O_R   0.947460 0.000000 0.040550 -0.634238
O30   O     O_R   0.447460 0.500000 0.040550 -0.634099
O31   O     O_R   0.052490 0.000000 0.145610 -0.631043
O32   O     O_R   0.552490 0.500000 0.145610 -0.631587
C79   C     C_R   0.999918 0.999924 0.121701 0.845184
C80   C     C_R   0.499918 0.500100 0.121701 0.844359
O33   O     O_R   0.499990 0.552490 0.407030 -0.616785
O34   O     O_R   0.499990 0.447510 0.407030 -0.630807
O35   O     O_R   0.999990 0.052490 0.407030 -0.627568
O36   O     O_R   0.999990 0.947510 0.407030 -0.617377
C81   C     C_R   0.500000 0.500030 0.378365 0.919807
C82   C     C_R   0.000021 0.999991 0.378387 0.921445
O37   O     O_R   0.406970 0.552510 0.407040 -0.611536
O38   O     O_R   0.406970 0.447490 0.407040 -0.628959
O39   O     O_R   0.906970 0.052510 0.407040 -0.628620
O40   O     O_R   0.906970 0.947490 0.407040 -0.612238
C83   C     C_R   0.378459 0.499925 0.378891 0.949128
C84   C     C_R   0.878453 0.999995 0.378899 0.948983
Zn9   Zn    Zn3+2 0.499990 0.570130 0.500050 0.985794
Zn10  Zn    Zn3+2 0.499990 0.429870 0.500050 0.963461
Zn11  Zn    Zn3+2 0.999990 0.070130 0.500050 0.979822
Zn12  Zn    Zn3+2 0.999990 0.929870 0.500050 0.972948
O41   O     O_R   0.500000 0.552540 0.593090 -0.624096
O42   O     O_R   0.500000 0.447460 0.593090 -0.629669
O43   O     O_R   0.000000 0.052540 0.593090 -0.628339
O44   O     O_R   0.000000 0.947460 0.593090 -0.628066
O45   O     O_R   0.593020 0.552520 0.593090 -0.621495
O46   O     O_R   0.593020 0.447480 0.593090 -0.631460
O47   O     O_R   0.093020 0.052520 0.593090 -0.619501
O48   O     O_R   0.093020 0.947480 0.593090 -0.631666
C85   C     C_R   0.500550 0.500015 0.622095 0.880447
C86   C     C_R   0.000549 0.999963 0.622101 0.877591
C87   C     C_R   0.621622 0.500038 0.621636 0.873857
C88   C     C_R   0.121645 0.000019 0.621794 0.872938
C89   C     C_3   0.057320 0.982958 0.828396 -0.182489
C90   C     C_3   0.956177 0.960390 0.727024 -0.156130
C91   C     C_3   0.455791 0.538960 0.726571 -0.153805
C92   C     C_3   0.557160 0.517623 0.828205 -0.180887
C93   C     C_3   0.512822 0.557823 0.742693 -0.126719
C94   C     C_3   0.013374 0.942231 0.743298 -0.131598
H37   H     H_    0.523049 0.605645 0.735147 0.196992
H38   H     H_    0.024064 0.894540 0.736234 0.192458
H39   H     H_    0.103681 0.968412 0.893331 0.178813
H40   H     H_    0.920238 0.927614 0.709651 0.183492
H41   H     H_    0.419445 0.571239 0.708683 0.188395
H42   H     H_    0.603375 0.532731 0.892988 0.183002
C95   C     C_3   0.500726 0.499833 0.689602 -0.150157
C96   C     C_3   0.000716 0.000082 0.689614 -0.148641
C97   C     C_3   0.444125 0.481005 0.672968 0.065621
C98   C     C_3   0.544672 0.459843 0.773862 0.078476
C99   C     C_3   0.044275 0.040586 0.773477 0.074283
C100  C     C_3   0.943937 0.018212 0.672808 0.069182
C101  C     C_3   0.987540 0.058188 0.756950 0.328387
C102  C     C_3   0.488098 0.441561 0.757514 0.326754
C103  C     C_3   0.000036 0.001345 0.811096 -0.142155
C104  C     C_3   0.500039 0.498550 0.811077 -0.145964
C105  C     C_3   0.038483 0.954793 0.267920 -0.184701
C106  C     C_3   0.019379 0.056044 0.248745 -0.174968
C107  C     C_3   0.517879 0.443566 0.247289 -0.175877
C108  C     C_3   0.539648 0.544330 0.269056 -0.184561
C109  C     C_3   0.557864 0.487651 0.328566 -0.172598
C110  C     C_3   0.058194 0.011020 0.328883 -0.169000
H43   H     H_    0.605315 0.477470 0.394760 0.133846
H44   H     H_    0.105897 0.020072 0.395329 0.135359
H45   H     H_    0.070111 0.917993 0.280859 0.143717
H46   H     H_    0.035371 0.101864 0.245921 0.134880
H47   H     H_    0.532661 0.397377 0.243289 0.133104
H48   H     H_    0.572242 0.580363 0.282947 0.143619
C111  C     C_3   0.499732 0.500159 0.310489 0.019927
C112  C     C_3   0.999752 0.999908 0.310510 0.017831
C113  C     C_3   0.459693 0.456074 0.230447 -0.113623
C114  C     C_3   0.481526 0.556818 0.252197 -0.132889
C115  C     C_3   0.980052 0.943700 0.250769 -0.127357
C116  C     C_3   0.960887 0.044934 0.231609 -0.118097
C117  C     C_3   0.941198 0.988771 0.170765 -0.105982
C118  C     C_3   0.441499 0.512684 0.171048 -0.107853
C119  C     C_3   0.999690 0.999856 0.189090 -0.001439
C120  C     C_3   0.499685 0.500202 0.189084 0.000979
H49   H     H_    0.426985 0.420140 0.216447 0.157343
H50   H     H_    0.466545 0.603086 0.255631 0.163850
H51   H     H_    0.963856 0.897811 0.253038 0.166899
H52   H     H_    0.929137 0.081643 0.218531 0.157407
H53   H     H_    0.893308 0.979617 0.104676 0.178005
H54   H     H_    0.393873 0.522980 0.105197 0.175742
N1    N     N_R   0.008460 0.790920 0.885671 0.197532
O49   O     O_R   0.010805 0.750097 0.842864 -0.386493
O50   O     O_R   0.011459 0.850329 0.875627 -0.446713
N2    N     N_R   0.088606 0.212777 0.000244 0.212765
O51   O     O_R   0.118841 0.255553 0.999286 -0.417180
O52   O     O_R   0.101003 0.154050 0.002580 -0.387510
N3    N     N_R   0.588424 0.287370 0.000109 0.215979
O53   O     O_R   0.618566 0.244633 0.999045 -0.419192
O54   O     O_R   0.601002 0.346107 0.002693 -0.385314
N4    N     N_R   0.498423 0.709307 0.875440 0.195626
O55   O     O_R   0.496613 0.750167 0.828460 -0.383069
O56   O     O_R   0.501216 0.649959 0.864969 -0.449832
N5    N     N_R   0.794645 0.606332 0.853236 0.206237
O57   O     O_R   0.781665 0.617534 0.898727 -0.381674
O58   O     O_R   0.829548 0.645360 0.856906 -0.433047
N6    N     N_R   0.295389 0.120942 0.794432 0.190226
O59   O     O_R   0.283101 0.159290 0.827859 -0.408375
O60   O     O_R   0.330539 0.139415 0.783314 -0.412220
C121  C     C_3   0.380832 0.461100 0.582474 -0.394817
C122  C     C_3   0.332447 0.449898 0.585483 -0.795176
H55   H     H_    0.348144 0.411954 0.633098 0.294255
H56   H     H_    0.324897 0.493401 0.605444 0.249007
H57   H     H_    0.287217 0.435791 0.518702 0.240120
H58   H     H_    0.363568 0.498462 0.533327 0.193610
H59   H     H_    0.387015 0.417517 0.560916 0.238485
C123  C     C_3   0.595092 0.416588 0.797398 -0.425141
C124  C     C_3   0.632113 0.383868 0.885898 -0.693821
H60   H     H_    0.652441 0.418644 0.939192 0.258006
H61   H     H_    0.601222 0.351100 0.880976 0.321407
H62   H     H_    0.670868 0.356479 0.903384 0.234429
H63   H     H_    0.572675 0.380679 0.744707 0.248828
H64   H     H_    0.627650 0.444823 0.800732 0.195489
C125  C     C_3   0.094394 0.084316 0.796741 -0.423930
C126  C     C_3   0.130904 0.117695 0.884706 -0.683413
H65   H     H_    0.099630 0.150278 0.879059 0.320543
H66   H     H_    0.151356 0.083309 0.938424 0.254642
H67   H     H_    0.169539 0.145375 0.902085 0.243455
H68   H     H_    0.127302 0.056222 0.800809 0.192734
H69   H     H_    0.071830 0.119822 0.743581 0.252562
C127  C     C_3   0.880458 0.037353 0.582114 -0.391956
C128  C     C_3   0.831980 0.047999 0.585026 -0.806781
H70   H     H_    0.824845 0.004417 0.605445 0.250529
H71   H     H_    0.847329 0.086136 0.632252 0.291656
H72   H     H_    0.786617 0.061563 0.518104 0.239219
H73   H     H_    0.886227 0.080995 0.560092 0.237137
H74   H     H_    0.863542 0.999775 0.533356 0.193868
N7    N     N_R   0.973068 0.121554 0.763449 0.200139
O61   O     O_R   0.964766 0.165843 0.714135 -0.395440
O62   O     O_R   0.966282 0.133829 0.815927 -0.425522
N8    N     N_R   0.474178 0.378042 0.764621 0.202006
O63   O     O_R   0.466459 0.333612 0.715938 -0.390933
O64   O     O_R   0.466980 0.365820 0.816660 -0.423480
N9    N     N_R   0.291387 0.523368 0.170316 0.185313
O65   O     O_R   0.250645 0.531705 0.085048 -0.399714
O66   O     O_R   0.350864 0.526751 0.217071 -0.450763
N10   N     N_R   0.791339 0.979073 0.169802 0.185737
O67   O     O_R   0.750603 0.971800 0.084336 -0.397444
O68   O     O_R   0.850811 0.975823 0.216545 -0.450788
C129  C     C_3   0.204313 0.403342 0.122092 -0.346218
C130  C     C_3   0.257147 0.364058 0.147182 -0.761853
H75   H     H_    0.289662 0.393952 0.152139 0.271217
H76   H     H_    0.283721 0.340183 0.211581 0.245506
H77   H     H_    0.237101 0.327876 0.095572 0.277867
H78   H     H_    0.172245 0.372365 0.116983 0.212424
H79   H     H_    0.177272 0.425492 0.056515 0.247740
C131  C     C_3   0.202616 0.618341 0.163135 -0.409566
C132  C     C_3   0.254451 0.666001 0.202564 -0.788719
H80   H     H_    0.282610 0.673793 0.273794 0.249165
H81   H     H_    0.285697 0.649503 0.195649 0.291570
H82   H     H_    0.233261 0.711269 0.167000 0.245012
H83   H     H_    0.174291 0.611804 0.091632 0.241350
H84   H     H_    0.171516 0.636351 0.169672 0.191228
C133  C     C_3   0.702185 0.882364 0.159966 -0.409189
C134  C     C_3   0.753838 0.834835 0.198513 -0.782934
H85   H     H_    0.785479 0.852135 0.192631 0.292727
H86   H     H_    0.781609 0.825925 0.269382 0.247643
H87   H     H_    0.732500 0.789994 0.161595 0.246813
H88   H     H_    0.670670 0.863564 0.165411 0.192303
H89   H     H_    0.674209 0.889961 0.088765 0.242424
C135  C     C_3   0.704542 0.098214 0.124438 -0.347019
C136  C     C_3   0.757478 0.138074 0.150445 -0.764799
H90   H     H_    0.784141 0.161098 0.215421 0.245813
H91   H     H_    0.789889 0.108778 0.154652 0.271342
H92   H     H_    0.737529 0.174950 0.099720 0.276952
H93   H     H_    0.677409 0.076926 0.058325 0.247465
H94   H     H_    0.672579 0.128605 0.120105 0.209821

loop_
_geom_bond_atom_site_label_1
_geom_bond_atom_site_label_2
_geom_bond_distance
_ccdc_geom_bond_type
C46   N10   1.458219 S    
C31   C35   1.550304 S    
O20   Zn8   2.020255 S    
O28   C78   1.275604 A    
C10   C22   1.551322 S    
C14   C18   1.522568 S    
C57   C71   1.536331 S    
C89   C94   1.550610 S    
C58   C71   1.534706 S    
C132  H80   1.110519 S    
O44   C86   1.274746 A    
C101  C103  1.527345 S    
Zn10  O46   2.019632 S    
N8    O63   1.300177 A    
C44   C46   1.530451 S    
C17   C75   1.440527 S    
C106  C119  1.530107 S    
C41   C55   1.532530 S    
C42   C131  1.527640 S    
N6    O60   1.300472 A    
C9    C13   1.530794 S    
N4    O55   1.300158 A    
C90   C100  1.547065 S    
C127  C128  1.524497 S    
C95   C97   1.531434 S    
Zn7   O31   2.020112 S    
C122  H56   1.110503 S    
O33   Zn9   2.020326 S    
C30   H14   1.110214 S    
O9    C3    1.276428 A    
C121  H58   1.111210 S    
C47   C83   1.436356 S    
O30   C80   1.275805 A    
O8    Zn2   2.020597 S    
C48   C84   1.436619 S    
N9    O66   1.299540 A    
O29   C79   1.275817 A    
C44   C135  1.529250 S    
C134  H87   1.110306 S    
O27   C77   1.274671 A    
C80   C120  1.442781 S    
O5    C3    1.275492 A    
O6    C4    1.276652 A    
C25   H9    1.110164 S    
O18   C74   1.275538 A    
C27   H11   1.110176 S    
C1    C55   1.438023 S    
C98   C123  1.530038 S    
C82   C112  1.442598 S    
N2    O52   1.299192 A    
C100  C101  1.529817 S    
C46   C48   1.526033 S    
C53   H25   1.110156 S    
C110  C112  1.529897 S    
C135  C136  1.525267 S    
C9    C21   1.551264 S    
C90   C94   1.550103 S    
Zn1   O13   2.019972 S    
C19   C77   1.441746 S    
C11   C39   1.532020 S    
C125  H68   1.110082 S    
C106  C110  1.545404 S    
C63   C66   1.535242 S    
C52   C54   1.550501 S    
C3    C37   1.439185 S    
C54   C56   1.539443 S    
O17   C73   1.275425 A    
C126  H66   1.110577 S    
O5    Zn1   2.020348 S    
C81   C111  1.442604 S    
C97   C102  1.529729 S    
O19   Zn7   2.020255 S    
C123  H64   1.110435 S    
C131  C132  1.524661 S    
C50   C53   1.549931 S    
Zn10  O42   2.020332 S    
C132  H82   1.110300 S    
C93   C95   1.537364 S    
C125  H69   1.110336 S    
C108  C120  1.530190 S    
C97   C121  1.529657 S    
C33   C37   1.534039 S    
C42   C45   1.528954 S    
C43   C51   1.547197 S    
C35   C39   1.534605 S    
C36   C40   1.533822 S    
C107  H47   1.110296 S    
C26   H10   1.110160 S    
C117  H53   1.110237 S    
C5    C39   1.437793 S    
C51   C54   1.550026 S    
C20   C32   1.536164 S    
C62   C64   1.535484 S    
O8    C6    1.275124 A    
C25   C29   1.547441 S    
C27   C31   1.547196 S    
C14   N2    1.458227 S    
O17   Zn5   2.020113 S    
C24   C28   1.547465 S    
C43   C46   1.529206 S    
C54   H26   1.110160 S    
O20   C74   1.275746 A    
C60   C72   1.535070 S    
C14   C34   1.530024 S    
C17   C21   1.535839 S    
C57   C61   1.547560 S    
C99   C125  1.529614 S    
C19   C23   1.536312 S    
C58   C61   1.548823 S    
O48   C88   1.276148 A    
C131  H83   1.110658 S    
O39   Zn11  2.019457 S    
O40   Zn12  2.020380 S    
C108  C114  1.544193 S    
O23   Zn6   2.021177 S    
O38   Zn10  2.020380 S    
C85   C95   1.436670 S    
C79   C119  1.442787 S    
C12   C16   1.531288 S    
C59   H31   1.110197 S    
C91   H41   1.110155 S    
C124  H60   1.110575 S    
C92   C98   1.545695 S    
C133  H88   1.110838 S    
C129  H78   1.111083 S    
C93   H37   1.110078 S    
O25   C75   1.275899 A    
O14   C8    1.275733 A    
O24   Zn6   2.020253 S    
C96   C100  1.531555 S    
C107  C120  1.530074 S    
C15   C19   1.522601 S    
C31   H15   1.110223 S    
O21   C75   1.275844 A    
C53   C55   1.539423 S    
O40   C84   1.275766 A    
C99   C101  1.530809 S    
Zn11  O47   2.020554 S    
Zn9   O45   2.020554 S    
C134  H86   1.110515 S    
O27   Zn8   2.020006 S    
C9    C37   1.533708 S    
O6    Zn1   2.020597 S    
C69   C71   1.516784 S    
C10   C14   1.532325 S    
C127  H73   1.110690 S    
C6    C40   1.438860 S    
O10   C4    1.274760 A    
C128  H72   1.110349 S    
C12   C40   1.533662 S    
C58   H30   1.110216 S    
O34   Zn10  2.020078 S    
C122  H57   1.110344 S    
O9    Zn3   2.020596 S    
C64   C68   1.535703 S    
O36   C82   1.276082 A    
Zn5   O29   2.020253 S    
C129  C130  1.525275 S    
C70   N6    1.456753 S    
O4    Zn4   2.019973 S    
C48   C51   1.539978 S    
C98   C102  1.531037 S    
C17   C29   1.536398 S    
C19   C31   1.537397 S    
C15   N3    1.458252 S    
O21   Zn5   2.021177 S    
C21   H5    1.110198 S    
C9    H1    1.109052 S    
O47   C88   1.276768 A    
C135  H93   1.110431 S    
Zn3   O15   2.020050 S    
C36   H20   1.110276 S    
C136  H92   1.110110 S    
C42   C55   1.531803 S    
C90   H40   1.110193 S    
Zn6   O30   2.020253 S    
C123  C124  1.522900 S    
C124  H62   1.110211 S    
C125  C126  1.522866 S    
C115  C117  1.544357 S    
N7    O62   1.299575 A    
C109  C111  1.529894 S    
C2    C56   1.437760 S    
C118  H54   1.110236 S    
O11   C5    1.274746 A    
O12   Zn4   2.020350 S    
N8    O64   1.299549 A    
C111  C114  1.531422 S    
C60   C62   1.547604 S    
O24   C78   1.276342 A    
C43   C56   1.531839 S    
C64   C88   1.440634 S    
C117  C119  1.531859 S    
C62   H28   1.110250 S    
C49   C53   1.550651 S    
C20   C24   1.536275 S    
C114  H50   1.110224 S    
Zn9   O41   2.020085 S    
C44   C52   1.545717 S    
C51   H23   1.110199 S    
C70   C72   1.516607 S    
O26   Zn7   2.020926 S    
C112  C115  1.531381 S    
C41   C45   1.530555 S    
Zn12  O44   2.020332 S    
C67   H35   1.110306 S    
C34   C38   1.534744 S    
C107  C113  1.546344 S    
C128  H70   1.110507 S    
C116  C117  1.543981 S    
C57   C65   1.549370 S    
C105  C115  1.544252 S    
C92   C104  1.541836 S    
C26   C30   1.547122 S    
O35   Zn11  2.020326 S    
O1    C1    1.273662 A    
O23   C77   1.277907 A    
C22   H6    1.110323 S    
C130  H75   1.110184 S    
C74   C104  1.439200 S    
C57   H29   1.110184 S    
N10   O67   1.300178 A    
C18   C22   1.536285 S    
C89   C99   1.545518 S    
O34   C81   1.276815 A    
C100  C127  1.529648 S    
C8    C72   1.439475 S    
C63   C65   1.536126 S    
N1    O49   1.300160 A    
C133  H89   1.110641 S    
O31   C79   1.277451 A    
O32   C80   1.277459 A    
O46   C87   1.276258 A    
C13   N1    1.456941 S    
C41   C49   1.545774 S    
Zn12  O48   2.019632 S    
C132  H81   1.109956 S    
O41   C85   1.274737 A    
C136  H90   1.110459 S    
C11   C23   1.551179 S    
C12   C24   1.550990 S    
C115  H51   1.110231 S    
C61   H27   1.110191 S    
C58   C66   1.551411 S    
N5    O58   1.300132 A    
O1    Zn1   2.020047 S    
C25   C37   1.535026 S    
O2    Zn2   2.020047 S    
C133  C134  1.524612 S    
C16   N4    1.456666 S    
C33   H17   1.110156 S    
C27   C39   1.532793 S    
C130  H77   1.110137 S    
O4    C2    1.276248 A    
C28   C40   1.535088 S    
C35   H19   1.110325 S    
C29   C33   1.550898 S    
C23   C27   1.549193 S    
C16   C36   1.531597 S    
N6    O59   1.300368 A    
O45   C87   1.276189 A    
C113  C118  1.544005 S    
O25   Zn7   2.020006 S    
C32   C36   1.551235 S    
C59   C72   1.535011 S    
C91   C97   1.546782 S    
C95   C98   1.532713 S    
C122  H55   1.110006 S    
C121  H59   1.110681 S    
O7    Zn2   2.020348 S    
N9    O65   1.300179 A    
C21   C25   1.547309 S    
C28   H12   1.110162 S    
C105  H45   1.110226 S    
O35   C82   1.276783 A    
C48   C52   1.541191 S    
C24   H8    1.110195 S    
C105  C119  1.530174 S    
C110  H44   1.110307 S    
C10   C38   1.532175 S    
C18   C76   1.441489 S    
C11   C15   1.532133 S    
C106  C116  1.546285 S    
O33   C81   1.276054 A    
C94   C96   1.537456 S    
C131  H84   1.110657 S    
N2    O51   1.300209 A    
C94   H38   1.110080 S    
O38   C83   1.274398 A    
O26   C76   1.274450 A    
O3    C1    1.276272 A    
C63   C87   1.439662 S    
C68   H36   1.109482 S    
C41   C129  1.529258 S    
C42   C50   1.546979 S    
C13   C17   1.519365 S    
O28   Zn8   2.020926 S    
O22   C76   1.277995 A    
C18   C30   1.537091 S    
C121  C122  1.524520 S    
O11   Zn4   2.020596 S    
O37   Zn9   2.019457 S    
C34   H18   1.110331 S    
C69   N5    1.456130 S    
C126  H65   1.108614 S    
Zn4   O16   2.020050 S    
C47   C50   1.539750 S    
C113  H49   1.110337 S    
C59   C67   1.550891 S    
C123  H63   1.110365 S    
C32   H16   1.110204 S    
O12   C6    1.276636 A    
C86   C96   1.436990 S    
C60   H32   1.110236 S    
C127  H74   1.111209 S    
C128  H71   1.110018 S    
N3    O53   1.300197 A    
C116  H52   1.110326 S    
C114  C118  1.544406 S    
C73   C103  1.438862 S    
C44   C56   1.532335 S    
C101  N7    1.458025 S    
C65   C69   1.531137 S    
Zn2   O14   2.019972 S    
N4    O56   1.299368 A    
C20   C78   1.440969 S    
O13   C7    1.276792 A    
C106  H46   1.110291 S    
N1    O50   1.299508 A    
O2    C2    1.273545 A    
C4    C38   1.438043 S    
O42   C85   1.275642 A    
C23   H7    1.110317 S    
C68   C70   1.532788 S    
C45   C47   1.525927 S    
C135  H94   1.111068 S    
C15   C35   1.530110 S    
C136  H91   1.110170 S    
O18   Zn6   2.020113 S    
C89   C103  1.541637 S    
C124  H61   1.108561 S    
C7    C71   1.440296 S    
N7    O61   1.300179 A    
Zn11  O43   2.020085 S    
O10   Zn3   2.020350 S    
C102  N8    1.457988 S    
C49   H21   1.110225 S    
C92   C93   1.550661 S    
N3    O54   1.299182 A    
C66   C69   1.532704 S    
C129  H79   1.110419 S    
O37   C83   1.275870 A    
C111  C113  1.530460 S    
C126  H67   1.110233 S    
C43   C133  1.528268 S    
C96   C99   1.532732 S    
C59   C62   1.547615 S    
C61   C63   1.534458 S    
O43   C86   1.275785 A    
O7    C5    1.276574 A    
C109  H43   1.110272 S    
C102  C104  1.527414 S    
O39   C84   1.274627 A    
C118  C120  1.531858 S    
C105  C110  1.546359 S    
C26   C38   1.532808 S    
O3    Zn3   2.019973 S    
C112  C116  1.530494 S    
C134  H85   1.109992 S    
C52   H24   1.110236 S    
C30   C34   1.550188 S    
C67   C70   1.531898 S    
C13   C33   1.531779 S    
C45   N9    1.458284 S    
C90   C103  1.540968 S    
C60   C68   1.550589 S    
C29   H13   1.110203 S    
C89   H39   1.110231 S    
O19   C73   1.275689 A    
N5    O57   1.300266 A    
O15   C7    1.274956 A    
C22   C26   1.549083 S    
O16   C8    1.275598 A    
C108  H48   1.110222 S    
C64   C67   1.535935 S    
C47   C49   1.541275 S    
C130  H76   1.110454 S    
C65   H33   1.110216 S    
C91   C104  1.541004 S    
C107  C109  1.545337 S    
C11   H3    1.110396 S    
N10   O68   1.299501 A    
C12   H4    1.109656 S    
C91   C93   1.550064 S    
O22   Zn5   2.020253 S    
C16   C20   1.519576 S    
C92   H42   1.110220 S    
C108  C109  1.546349 S    
Zn8   O32   2.020112 S    
O36   Zn12  2.020078 S    
C66   H34   1.109947 S    
C10   H2    1.110402 S    
C50   H22   1.110213 S    
C28   C32   1.547230 S    
