data_mof_unit_60597.cif
_audit_creation_date              2012-12-10T21:24:26-0500
_audit_creation_method            fapswitch 2.2
_symmetry_space_group_name_H-M    P1
_symmetry_Int_Tables_number       1
_space_group_crystal_system       triclinic
_cell_length_a                    16.733166
_cell_length_b                    16.890903
_cell_length_c                    17.462072
_cell_angle_alpha                 89.367206
_cell_angle_beta                  90.311124
_cell_angle_gamma                 95.106669
_cell_volume                      4915.51102794

loop_
_atom_site_label
_atom_site_type_symbol
_atom_type_description
_atom_site_fract_x
_atom_site_fract_y
_atom_site_fract_z
_atom_type_partial_charge
Br1   Br    Br    0.388033 0.727234 0.616669 -0.450771
Br2   Br    Br    0.611879 0.275989 0.380796 -0.426650
Br3   Br    Br    0.125783 0.618987 0.376514 -0.425941
Br4   Br    Br    0.872661 0.360399 0.600801 -0.410786
Br5   Br    Br    0.345366 0.412869 0.263784 -0.419377
Br6   Br    Br    0.638606 0.412622 0.738879 -0.445652
Br7   Br    Br    0.657392 0.632883 0.115526 -0.423126
Br8   Br    Br    0.365322 0.632453 0.881367 -0.392829
C1    C     C_R   0.500212 0.499801 0.647108 0.936146
C2    C     C_R   0.445897 0.571495 0.839625 0.315814
C3    C     C_R   0.500898 0.542373 0.114082 -0.002468
C4    C     C_R   0.505931 0.542415 0.885157 -0.009610
C5    C     C_1   0.503232 0.550183 0.033542 0.084554
C6    C     C_1   0.504764 0.550209 0.965534 0.082912
C7    C     C_R   0.163287 0.451631 0.550027 -0.263608
C8    C     C_R   0.837373 0.556907 0.458607 -0.261049
C9    C     C_R   0.247516 0.452093 0.549524 0.029966
C10   C     C_R   0.753113 0.556195 0.459170 0.021392
C11   C     C_R   0.256580 0.548277 0.449937 0.044356
C12   C     C_R   0.499737 0.499911 0.352928 0.942977
C13   C     C_R   0.742839 0.443282 0.540833 0.047743
C14   C     C_R   0.172441 0.549747 0.448387 0.211876
C15   C     C_R   0.826956 0.441727 0.541991 0.213758
C16   C     C_R   0.489206 0.346732 0.498593 0.934719
C17   C     C_R   0.510784 0.653301 0.501112 0.912422
C18   C     C_R   0.124516 0.500774 0.499153 0.054295
C19   C     C_R   0.875528 0.499350 0.500333 0.047659
C20   C     C_1   0.036604 0.500336 0.499586 0.087922
C21   C     C_1   0.963455 0.499985 0.499875 0.087464
C22   C     C_R   0.481149 0.261229 0.493459 -0.100863
C23   C     C_R   0.434805 0.480310 0.224590 0.281901
C24   C     C_R   0.518636 0.738953 0.503903 -0.103947
C25   C     C_R   0.533192 0.221665 0.447275 0.243568
C26   C     C_R   0.466197 0.779679 0.548508 0.241072
C27   C     C_R   0.526645 0.139409 0.447394 -0.161881
C28   C     C_R   0.471751 0.861843 0.545340 -0.161410
C29   C     C_R   0.468907 0.096400 0.493550 0.274015
C30   C     C_R   0.528732 0.903720 0.497515 0.272604
C31   C     C_R   0.413995 0.136014 0.534859 -0.148495
C32   C     C_R   0.583933 0.863179 0.457528 -0.148941
C33   C     C_R   0.420093 0.218335 0.535073 -0.234680
C34   C     C_R   0.561356 0.480385 0.776131 0.274577
C35   C     C_R   0.578925 0.780860 0.460490 -0.247303
C36   C     C_R   0.435803 0.496920 0.146552 -0.198768
C37   C     C_R   0.563086 0.497090 0.853809 -0.193015
C38   C     C_R   0.500116 0.510177 0.270275 -0.157960
C39   C     C_R   0.501494 0.510084 0.729606 -0.176121
C40   C     C_R   0.565499 0.555503 0.236907 -0.255848
C41   C     C_R   0.443886 0.555084 0.761938 -0.235454
C42   C     C_R   0.566186 0.571737 0.158842 0.317658
H1    H     H_    0.276760 0.413958 0.588902 0.140248
H2    H     H_    0.620281 0.749803 0.426868 0.172605
H3    H     H_    0.386569 0.472712 0.110802 0.195846
H4    H     H_    0.607910 0.472975 0.890212 0.198691
H5    H     H_    0.615602 0.579409 0.271688 0.189103
H6    H     H_    0.397833 0.578485 0.726656 0.225998
H7    H     H_    0.128678 0.413059 0.589939 0.187642
H8    H     H_    0.872476 0.602179 0.425734 0.189418
H9    H     H_    0.724354 0.600745 0.426747 0.137912
H10   H     H_    0.293249 0.585894 0.410921 0.165149
H11   H     H_    0.705761 0.398832 0.572652 0.190530
H12   H     H_    0.430995 0.892879 0.579612 0.188767
H13   H     H_    0.567288 0.109166 0.412258 0.187246
H14   H     H_    0.368596 0.102976 0.569355 0.168781
H15   H     H_    0.628885 0.895362 0.421891 0.170309
H16   H     H_    0.378878 0.248527 0.569674 0.173431
N1    N     N_2   0.466140 0.013394 0.501804 -0.171389
N2    N     N_2   0.531344 0.986590 0.487740 -0.170470
N3    N     N_R   0.292770 0.500020 0.499970 -0.109973
N4    N     N_R   0.707230 0.499980 0.500030 -0.114973
O1    O     O_R   0.433430 0.500000 0.610870 -0.623368
O2    O     O_R   0.566570 0.500000 0.389130 -0.610520
O3    O     O_R   0.566520 0.499990 0.610900 -0.581885
O4    O     O_R   0.433480 0.500010 0.389100 -0.591590
O5    O     O_R   0.426030 0.383870 0.500690 -0.620164
O6    O     O_R   0.573970 0.616130 0.499310 -0.635025
O7    O     O_R   0.559120 0.383870 0.500710 -0.587421
O8    O     O_R   0.440880 0.616130 0.499290 -0.589563
Zn1   Zn    Zn3+2 0.411140 0.500000 0.499980 1.009430
Zn2   Zn    Zn3+2 0.588860 0.500000 0.500020 1.010420

loop_
_geom_bond_atom_site_label_1
_geom_bond_atom_site_label_2
_ccdc_geom_bond_type
C10   N4    A    
C40   H5    S    
C9    N3    A    
C19   C21   S    
C9    H1    S    
O1    Zn1   S    
C39   C41   A    
C31   H14   S    
C20   C21   T    
C27   C29   A    
C35   H2    S    
C36   H3    S    
C24   C35   A    
C32   C35   A    
C23   C38   A    
C22   C33   A    
C15   C19   A    
C13   H11   S    
C17   C24   S    
C40   C42   A    
C5    C6    T    
C7    H7    S    
C1    O3    A    
C28   H12   S    
Br1   C26   S    
C29   C31   A    
C38   C40   A    
C23   C36   A    
N4    Zn2   S    
N1    N2    D    
O6    Zn2   S    
C11   C14   A    
C31   C33   A    
Br4   C15   S    
O8    Zn1   S    
C7    C18   A    
C17   O8    A    
C34   C37   A    
C24   C26   A    
C16   O7    A    
C12   O4    A    
C3    C36   A    
C8    H8    S    
C2    C4    A    
Br2   C25   S    
Br8   C2    S    
C30   N2    S    
C37   H4    S    
C1    C39   S    
O4    Zn1   S    
C13   C15   A    
C14   C18   A    
N3    Zn1   S    
O7    Zn2   S    
C7    C9    A    
C22   C25   A    
C1    O1    A    
Br7   C42   S    
C4    C6    S    
C4    C37   A    
C16   O5    A    
C33   H16   S    
C11   H10   S    
C41   H6    S    
C18   C20   S    
C13   N4    A    
C32   H15   S    
C17   O6    A    
C28   C30   A    
O2    Zn2   S    
C3    C42   A    
C30   C32   A    
C3    C5    S    
C8    C19   A    
C29   N1    S    
C25   C27   A    
O3    Zn2   S    
C26   C28   A    
C34   C39   A    
C16   C22   S    
C11   N3    A    
C10   H9    S    
C8    C10   A    
Br6   C34   S    
C12   O2    A    
Br3   C14   S    
C27   H13   S    
C2    C41   A    
O5    Zn1   S    
C12   C38   S    
Br5   C23   S    
