data_mof_unit_40041.cif
_audit_creation_date              2012-12-10T16:48:09-0500
_audit_creation_method            fapswitch 2.2
_symmetry_space_group_name_H-M    P1
_symmetry_Int_Tables_number       1
_space_group_crystal_system       triclinic
_cell_length_a                    15.835354
_cell_length_b                    8.687905
_cell_length_c                    7.452044
_cell_angle_alpha                 103.024217
_cell_angle_beta                  94.162085
_cell_angle_gamma                 92.210917
_cell_volume                      994.621300633

loop_
_atom_site_label
_atom_site_type_symbol
_atom_type_description
_atom_site_fract_x
_atom_site_fract_y
_atom_site_fract_z
_atom_type_partial_charge
C1    C     C_R   0.497477 0.199715 0.453239 0.881184
C2    C     C_R   0.502523 0.800285 0.546761 0.881184
C3    C     C_R   0.339951 0.499761 0.502303 0.818497
C4    C     C_R   0.660049 0.500239 0.497697 0.818497
C5    C     C_2   0.496269 0.031794 0.426973 -0.362947
C6    C     C_2   0.503731 0.968206 0.573026 -0.362947
C7    C     C_3   0.972902 0.411178 0.608116 0.603263
C8    C     C_3   0.027098 0.588822 0.391884 0.603270
C9    C     C_3   0.022767 0.349347 0.438668 -0.309016
C10   C     C_3   0.977233 0.650653 0.561332 -0.309012
C11   C     C_1   0.250416 0.499836 0.506824 -0.160026
C12   C     C_1   0.749584 0.500164 0.493176 -0.160026
C13   C     C_3   0.033908 0.559023 0.675932 -0.313449
C14   C     C_3   0.966092 0.440977 0.324068 -0.313444
C15   C     C_3   0.083070 0.498944 0.504440 0.058971
C16   C     C_3   0.916930 0.501056 0.495559 0.058970
C17   C     C_1   0.174822 0.499524 0.506986 0.011389
C18   C     C_1   0.825178 0.500476 0.493014 0.011389
Cu1   Cu    Cu3+1 0.509330 0.517380 0.684380 0.963252
Cu2   Cu    Cu3+1 0.490670 0.482620 0.315620 0.963252
H1    H     H_    0.042701 0.226706 0.390942 0.155634
H2    H     H_    0.957299 0.773294 0.609057 0.155634
H3    H     H_    0.936708 0.394998 0.181197 0.172961
H4    H     H_    0.063292 0.605002 0.818804 0.172960
H5    H     H_    0.489235 0.960142 0.286245 0.180421
H6    H     H_    0.510765 0.039858 0.713755 0.180421
H7    H     H_    0.434388 0.377384 0.948650 0.226888
H8    H     H_    0.565612 0.622616 0.051350 0.226888
N1    N     N_2   0.476600 0.456420 0.038510 -0.213546
N2    N     N_2   0.523400 0.543580 0.961490 -0.213547
O1    O     O_R   0.506070 0.286130 0.619780 -0.584249
O2    O     O_R   0.493930 0.713870 0.380220 -0.584249
O3    O     O_R   0.490300 0.256770 0.308360 -0.586018
O4    O     O_R   0.509700 0.743230 0.691640 -0.586018
O5    O     O_R   0.386960 0.514660 0.655680 -0.584505
O6    O     O_R   0.613040 0.485340 0.344320 -0.584505
O7    O     O_R   0.371190 0.485310 0.344260 -0.570097
O8    O     O_R   0.628810 0.514690 0.655740 -0.570097
O9    O     O_3   0.937718 0.318390 0.720008 -0.577436
C19   C     C_3   0.003471 0.252852 0.810960 -0.344543
H9    H     H_    0.044927 0.346667 0.907251 0.178670
H10   H     H_    0.041618 0.176243 0.710882 0.166648
H11   H     H_    0.974812 0.177254 0.894692 0.188049
O10   O     O_3   0.062282 0.681611 0.279993 -0.577433
C20   C     C_3   0.996529 0.747142 0.189029 -0.344552
H12   H     H_    0.958372 0.823738 0.289097 0.166643
H13   H     H_    0.955082 0.653324 0.092720 0.178675
H14   H     H_    0.025189 0.822752 0.105315 0.188050

loop_
_geom_bond_atom_site_label_1
_geom_bond_atom_site_label_2
_ccdc_geom_bond_type
C14   H3    S    
C7    C13   S    
C9    C14   S    
C4    O6    A    
C15   C17   S    
N1    N2    D    
Cu1   O8    S    
H7    N1    S    
Cu1   Cu2   S    
C13   C15   S    
C3    O5    A    
Cu1   O1    S    
C19   H11   S    
C2    O4    A    
H8    N2    S    
C9    C15   S    
C1    O3    A    
C10   C16   S    
Cu1   O5    S    
C20   H12   S    
C10   H2    S    
Cu2   O7    S    
C9    H1    S    
C6    H6    S    
C5    H5    S    
Cu2   O3    S    
C16   C18   S    
C19   H9    S    
C4    O8    A    
C8    C15   S    
C14   C16   S    
Cu2   N1    S    
C20   H13   S    
C5    C6    D    
C1    C5    S    
C4    C12   S    
Cu2   O6    S    
C8    O10   S    
C1    O1    A    
C3    C11   S    
O10   C20   S    
C3    O7    A    
C2    O2    A    
Cu2   O2    S    
C20   H14   S    
C12   C18   T    
O9    C19   S    
C7    C9    S    
C7    O9    S    
C11   C17   T    
C8    C14   S    
Cu1   N2    S    
Cu1   O4    S    
C8    C10   S    
C7    C16   S    
C2    C6    S    
C13   H4    S    
C19   H10   S    
C10   C13   S    
