data_mof_unit_13386.cif
_audit_creation_date              2012-12-11T15:22:49-0500
_audit_creation_method            fapswitch 2.2
_symmetry_space_group_name_H-M    P1
_symmetry_Int_Tables_number       1
_space_group_crystal_system       triclinic
_cell_length_a                    22.453827
_cell_length_b                    12.957862
_cell_length_c                    26.99024
_cell_angle_alpha                 90.014587
_cell_angle_beta                  90.79507
_cell_angle_gamma                 89.803929
_cell_volume                      7852.10505711

loop_
_atom_site_label
_atom_site_type_symbol
_atom_type_description
_atom_site_fract_x
_atom_site_fract_y
_atom_site_fract_z
_atom_type_partial_charge
C1    C     C_R   0.705550 0.306479 0.172855 0.581381
C2    C     C_R   0.279578 0.344324 0.822084 0.601802
C3    C     C_R   0.220537 0.844470 0.177932 0.601637
C4    C     C_R   0.779585 0.845680 0.821940 0.581438
C5    C     C_R   0.474868 0.162766 0.872708 0.012258
C6    C     C_R   0.516918 0.159921 0.131094 -0.043065
C7    C     C_R   0.931932 0.656791 0.882022 -0.046907
C8    C     C_R   0.013048 0.666413 0.133880 -0.038225
C9    C     C_R   0.505504 0.253306 0.106723 -0.111205
C10   C     C_R   0.471050 0.255017 0.899640 -0.136861
C11   C     C_R   0.014621 0.757069 0.105704 -0.130985
C12   C     C_R   0.944334 0.751043 0.905378 -0.129474
C13   C     C_R   0.493149 0.254822 0.055404 0.026859
C14   C     C_R   0.479935 0.256372 0.951218 0.027809
C15   C     C_R   0.991473 0.759586 0.057211 0.021625
C16   C     C_R   0.957723 0.755507 0.956313 0.019759
C17   C     C_R   0.497449 0.161686 0.028227 -0.071724
C18   C     C_R   0.494098 0.163274 0.976019 -0.063654
C19   C     C_R   0.967887 0.668151 0.036321 -0.087453
C20   C     C_R   0.953782 0.664811 0.985269 -0.096676
C21   C     C_R   0.480631 0.348299 0.030616 0.224651
C22   C     C_R   0.470977 0.348067 0.978447 0.243885
C23   C     C_R   0.995331 0.850187 0.028499 0.242689
C24   C     C_R   0.974800 0.849497 0.978529 0.238608
C25   C     C_R   0.734688 0.969951 0.128035 -0.026166
C26   C     C_R   0.262360 0.960028 0.870566 0.006936
C27   C     C_R   0.237312 0.462333 0.128931 -0.017792
C28   C     C_R   0.757176 0.456029 0.868658 -0.022097
C29   C     C_R   0.786586 0.927154 0.108766 -0.136225
C30   C     C_R   0.207025 0.962046 0.893824 -0.123974
C31   C     C_R   0.292435 0.465078 0.105357 -0.123002
C32   C     C_R   0.728165 0.517445 0.903526 -0.136773
C33   C     C_R   0.790215 0.909651 0.057954 -0.139769
C34   C     C_R   0.203803 0.945998 0.944669 -0.169312
C35   C     C_R   0.295187 0.451843 0.054296 -0.148678
C36   C     C_R   0.719239 0.481523 0.950918 -0.162452
C37   C     C_R   0.742987 0.938847 0.026085 0.032404
C38   C     C_R   0.255897 0.928827 0.972841 0.072012
C39   C     C_R   0.242806 0.437893 0.026129 0.017917
C40   C     C_R   0.738028 0.382272 0.964560 0.084905
C41   C     C_R   0.691618 0.986442 0.045462 0.280293
C42   C     C_R   0.311528 0.923363 0.949607 0.242906
C43   C     C_R   0.187035 0.433703 0.049900 0.244243
C44   C     C_R   0.766995 0.318716 0.929778 0.291407
C45   C     C_R   0.551347 0.156952 0.178516 0.525853
C46   C     C_R   0.446408 0.157069 0.822829 0.571402
C47   C     C_R   0.051661 0.657693 0.178595 0.530084
C48   C     C_R   0.919412 0.653509 0.827784 0.540417
C49   C     C_R   0.687244 0.997723 0.096353 -0.035995
C50   C     C_R   0.314079 0.937001 0.898330 -0.117185
C51   C     C_R   0.185331 0.442157 0.101106 -0.050245
C52   C     C_R   0.777057 0.357061 0.881693 -0.096410
C53   C     C_R   0.706974 0.861914 0.947033 -0.145742
C54   C     C_R   0.279506 0.829618 0.048556 -0.078850
C55   C     C_R   0.222502 0.332102 0.952150 -0.123724
C56   C     C_R   0.775197 0.309938 0.044694 -0.028332
C57   C     C_R   0.713044 0.844111 0.896071 0.176323
C58   C     C_R   0.274417 0.811274 0.099226 0.185072
C59   C     C_R   0.228214 0.310790 0.901779 0.193159
C60   C     C_R   0.768444 0.292418 0.095201 0.161676
C61   C     C_R   0.802483 0.952227 0.897300 0.200223
C62   C     C_R   0.212786 0.966913 0.106342 0.204736
C63   C     C_R   0.285465 0.470171 0.892332 0.214957
C64   C     C_R   0.667079 0.360906 0.089514 0.203686
C65   C     C_R   0.795405 0.967795 0.948079 -0.111562
C66   C     C_R   0.219779 0.984519 0.055435 -0.130852
C67   C     C_R   0.278144 0.490376 0.942983 -0.127563
C68   C     C_R   0.674038 0.372285 0.038373 -0.131761
C69   C     C_R   0.748825 0.921374 0.972904 -0.051197
C70   C     C_R   0.251795 0.914668 0.026539 0.003436
C71   C     C_R   0.247663 0.420593 0.972764 -0.050445
C72   C     C_R   0.728384 0.350011 0.016093 -0.012936
C73   C     C_R   0.762789 0.885314 0.871327 0.098729
C74   C     C_R   0.238559 0.877896 0.128117 0.093558
C75   C     C_R   0.261748 0.378458 0.871822 0.100613
C76   C     C_R   0.714432 0.320526 0.118790 0.045872
C77   C     C_R   0.527198 0.168738 0.370682 0.021234
C78   C     C_R   0.470885 0.169022 0.628610 0.019616
C79   C     C_R   0.027047 0.669197 0.370593 0.027894
C80   C     C_R   0.971026 0.668682 0.628602 0.023242
C81   C     C_R   0.534031 0.260813 0.397640 -0.118842
C82   C     C_R   0.458909 0.258584 0.600782 -0.117318
C83   C     C_R   0.035955 0.760089 0.398074 -0.119913
C84   C     C_R   0.961322 0.759784 0.601364 -0.115817
C85   C     C_R   0.522119 0.263311 0.448118 -0.104030
C86   C     C_R   0.470115 0.260844 0.550235 -0.104831
C87   C     C_R   0.023732 0.762487 0.448473 -0.116433
C88   C     C_R   0.972047 0.762221 0.550714 -0.110614
C89   C     C_R   0.730976 0.002249 0.179451 0.525710
C90   C     C_R   0.268985 0.001927 0.820633 0.558856
C91   C     C_R   0.231027 0.502225 0.179297 0.543753
C92   C     C_R   0.768383 0.501378 0.820204 0.527215
C93   C     C_R   0.502527 0.174136 0.472436 0.041608
C94   C     C_R   0.494460 0.174255 0.526658 0.046134
C95   C     C_R   0.001467 0.674595 0.472190 0.035763
C96   C     C_R   0.993551 0.674141 0.526445 0.035405
C97   C     C_R   0.491758 0.084165 0.444715 -0.115597
C98   C     C_R   0.510024 0.087077 0.555114 -0.079164
C99   C     C_R   0.988391 0.586199 0.443904 -0.115944
C100  C     C_R   0.006981 0.585214 0.554318 -0.114157
C101  C     C_R   0.504099 0.081408 0.394300 -0.121130
C102  C     C_R   0.497878 0.084159 0.605622 -0.102675
C103  C     C_R   0.001451 0.583272 0.393572 -0.108057
C104  C     C_R   0.995495 0.582302 0.604924 -0.113346
C105  C     C_R   0.733340 0.984366 0.376544 0.037774
C106  C     C_R   0.265283 0.974708 0.623962 0.035705
C107  C     C_R   0.243204 0.447212 0.369403 0.035396
C108  C     C_R   0.766803 0.484260 0.623436 0.038300
C109  C     C_R   0.728299 0.885030 0.396313 0.213167
C110  C     C_R   0.210250 0.964599 0.599142 0.230651
C111  C     C_R   0.195304 0.404827 0.395841 0.226224
C112  C     C_R   0.771752 0.384874 0.603621 0.213370
C113  C     C_R   0.724496 0.874196 0.447950 -0.144378
C114  C     C_R   0.209421 0.959770 0.547253 -0.159807
C115  C     C_R   0.203471 0.383190 0.445897 -0.166726
C116  C     C_R   0.775513 0.374034 0.551975 -0.144764
C117  C     C_R   0.723699 0.961605 0.478916 -0.006742
C118  C     C_R   0.262542 0.966627 0.520707 -0.005551
C119  C     C_R   0.258778 0.398567 0.469174 0.049587
C120  C     C_R   0.776321 0.461456 0.521043 -0.006502
C121  C     C_R   0.724168 0.061457 0.457998 0.225887
C122  C     C_R   0.317633 0.976950 0.545817 0.235631
C123  C     C_R   0.308501 0.427454 0.441470 0.236149
C124  C     C_R   0.775935 0.561299 0.542001 0.226532
C125  C     C_R   0.730734 0.071341 0.407299 -0.091167
C126  C     C_R   0.318405 0.977842 0.597013 -0.106682
C127  C     C_R   0.300098 0.452792 0.391468 -0.156567
C128  C     C_R   0.769465 0.571228 0.592717 -0.091331
C129  C     C_R   0.777504 0.994628 0.557659 -0.132632
C130  C     C_R   0.225993 0.011361 0.436544 -0.136556
C131  C     C_R   0.288801 0.466666 0.551804 -0.089388
C132  C     C_R   0.722365 0.494873 0.442340 -0.131653
C133  C     C_R   0.721586 0.348147 0.321846 0.594456
C134  C     C_R   0.279266 0.345340 0.677393 0.598954
C135  C     C_R   0.221444 0.847801 0.321692 0.599890
C136  C     C_R   0.778406 0.848073 0.678156 0.584555
C137  C     C_R   0.790389 0.970465 0.607142 0.194020
C138  C     C_R   0.217238 0.984286 0.386756 0.196754
C139  C     C_R   0.290524 0.458432 0.603545 0.185388
C140  C     C_R   0.709427 0.470676 0.392873 0.194608
C141  C     C_R   0.704955 0.853219 0.606997 0.197895
C142  C     C_R   0.281104 0.832281 0.399802 0.186605
C143  C     C_R   0.230909 0.300803 0.597001 0.182413
C144  C     C_R   0.795108 0.352964 0.392930 0.196690
C145  C     C_R   0.692981 0.879583 0.557503 -0.112280
C146  C     C_R   0.289245 0.861543 0.449086 -0.128541
C147  C     C_R   0.232905 0.307700 0.545697 -0.141875
C148  C     C_R   0.807097 0.379284 0.442414 -0.112061
C149  C     C_R   0.730374 0.946797 0.532509 -0.029641
C150  C     C_R   0.260161 0.948099 0.467612 -0.044717
C151  C     C_R   0.262125 0.389263 0.523041 0.011737
C152  C     C_R   0.769615 0.446746 0.467447 -0.029190
C153  C     C_R   0.756218 0.894267 0.631212 0.099849
C154  C     C_R   0.242396 0.891356 0.368999 0.096791
C155  C     C_R   0.263447 0.372811 0.626166 0.097036
C156  C     C_R   0.743722 0.394276 0.368771 0.098662
C157  C     C_R   0.554323 0.158982 0.321624 0.532032
C158  C     C_R   0.445314 0.158858 0.678194 0.539018
C159  C     C_R   0.054271 0.659026 0.321593 0.538829
C160  C     C_R   0.945344 0.658825 0.678191 0.548306
C161  C     C_R   0.731265 0.004196 0.323697 0.595778
C162  C     C_R   0.269048 0.004499 0.676034 0.590419
C163  C     C_R   0.232069 0.500786 0.322520 0.574422
C164  C     C_R   0.768769 0.504004 0.676299 0.595896
C165  C     C_R   0.505887 0.066302 0.105472 0.242985
C166  C     C_R   0.493933 0.071470 0.896838 0.215432
C167  C     C_R   0.980672 0.580386 0.115932 0.244041
C168  C     C_R   0.929276 0.565747 0.911060 0.248316
C169  C     C_R   0.504410 0.066558 0.053408 0.050847
C170  C     C_R   0.504142 0.071327 0.948762 -0.035192
C171  C     C_R   0.960079 0.579303 0.066184 0.031742
C172  C     C_R   0.937134 0.570210 0.962963 0.052760
C173  C     C_R   0.520613 0.980207 0.974757 0.272343
C174  C     C_R   0.513945 0.975237 0.025905 0.357725
C175  C     C_R   0.927413 0.482370 0.993016 0.301380
C176  C     C_R   0.934344 0.489826 0.044746 0.246861
Cr1   Cr    Cr6+3 0.756570 0.170940 0.251190 1.091088
Cr2   Cr    Cr6+3 0.243430 0.170940 0.748810 1.129592
Cr3   Cr    Cr6+3 0.256570 0.670940 0.251190 1.102917
Cr4   Cr    Cr6+3 0.743430 0.670940 0.748810 1.107788
Cr5   Cr    Cr6+3 0.623740 0.299110 0.249580 1.081986
Cr6   Cr    Cr6+3 0.376260 0.299110 0.750420 1.081134
Cr7   Cr    Cr6+3 0.123740 0.799110 0.249580 1.083289
Cr8   Cr    Cr6+3 0.876260 0.799110 0.750420 1.088119
Cr9   Cr    Cr6+3 0.625990 0.036240 0.250480 1.071672
Cr10  Cr    Cr6+3 0.374010 0.036240 0.749520 1.060136
Cr11  Cr    Cr6+3 0.125990 0.536240 0.250480 1.097356
Cr12  Cr    Cr6+3 0.874010 0.536240 0.749520 1.069975
H1    H     H_    0.507473 0.014219 0.626246 0.140843
H2    H     H_    0.498217 0.009521 0.374366 0.141308
H3    H     H_    0.003442 0.511176 0.625063 0.142310
H4    H     H_    0.993949 0.512382 0.373180 0.145050
H5    H     H_    0.655613 0.845115 0.537857 0.106019
H6    H     H_    0.315992 0.813848 0.473854 0.134673
H7    H     H_    0.211640 0.248602 0.523261 0.097187
H8    H     H_    0.844550 0.344582 0.462027 0.103718
O1    O     O_R   0.769900 0.064540 0.196060 -0.528741
O2    O     O_R   0.230100 0.064540 0.803940 -0.471513
O3    O     O_R   0.269900 0.564540 0.196060 -0.476416
O4    O     O_R   0.730100 0.564540 0.803940 -0.482544
O5    O     O_R   0.574760 0.239320 0.300850 -0.509050
O6    O     O_R   0.425240 0.239320 0.699150 -0.505783
O7    O     O_R   0.074760 0.739320 0.300850 -0.512440
O8    O     O_R   0.925240 0.739320 0.699150 -0.498047
O9    O     O_R   0.566290 0.069580 0.305400 -0.513818
O10   O     O_R   0.433710 0.069580 0.694600 -0.515769
O11   O     O_R   0.066290 0.569580 0.305400 -0.486467
O12   O     O_R   0.933710 0.569580 0.694600 -0.506525
O13   O     O_R   0.680760 0.993330 0.302620 -0.473648
O14   O     O_R   0.319240 0.993330 0.697380 -0.532780
O15   O     O_R   0.180760 0.493330 0.302620 -0.430281
O16   O     O_R   0.819240 0.493330 0.697380 -0.476839
O17   O     O_3   0.668770 0.168760 0.250420 -0.311480
O18   O     O_3   0.331230 0.168760 0.749580 -0.293248
O19   O     O_3   0.168770 0.668760 0.250420 -0.287778
O20   O     O_3   0.831230 0.668760 0.749580 -0.316385
O21   O     O_R   0.750800 0.274080 0.199250 -0.480390
O22   O     O_R   0.249200 0.274080 0.800750 -0.456012
O23   O     O_R   0.250800 0.774080 0.199250 -0.455070
O24   O     O_R   0.749200 0.774080 0.800750 -0.454699
O25   O     O_R   0.669990 0.371670 0.194150 -0.432175
O26   O     O_R   0.330010 0.371670 0.805850 -0.462772
O27   O     O_R   0.169990 0.871670 0.194150 -0.459570
O28   O     O_R   0.830010 0.871670 0.805850 -0.461711
O29   O     O_R   0.574600 0.238480 0.197800 -0.493672
O30   O     O_R   0.425400 0.238480 0.802200 -0.518724
O31   O     O_R   0.074600 0.738480 0.197800 -0.510612
O32   O     O_R   0.925400 0.738480 0.802200 -0.495184
O33   O     O_R   0.566130 0.068680 0.194240 -0.486281
O34   O     O_R   0.433870 0.068680 0.805760 -0.448094
O35   O     O_R   0.066130 0.568680 0.194240 -0.482478
O36   O     O_R   0.933870 0.568680 0.805760 -0.457330
O37   O     O_R   0.680610 0.992490 0.199570 -0.485490
O38   O     O_R   0.319390 0.992490 0.800430 -0.510408
O39   O     O_R   0.180610 0.492490 0.199570 -0.510734
O40   O     O_R   0.819390 0.492490 0.800430 -0.532934
O41   O     O_R   0.770060 0.065440 0.307230 -0.497599
O42   O     O_R   0.229940 0.065440 0.692770 -0.416725
O43   O     O_R   0.270060 0.565440 0.307230 -0.504168
O44   O     O_R   0.729940 0.565440 0.692770 -0.497218
O45   O     O_R   0.750960 0.274920 0.302300 -0.453118
O46   O     O_R   0.249040 0.274920 0.697700 -0.457912
O47   O     O_R   0.250960 0.774920 0.302300 -0.454619
O48   O     O_R   0.749040 0.774920 0.697700 -0.457862
O49   O     O_R   0.670160 0.372580 0.305320 -0.456209
O50   O     O_R   0.329840 0.372580 0.694680 -0.469787
O51   O     O_R   0.170160 0.872580 0.305320 -0.468601
O52   O     O_R   0.829840 0.872580 0.694680 -0.456733
O53   O     O_3   0.496967 0.981572 0.869611 -0.659356
H9    H     H_    0.472654 0.929316 0.886848 0.340033
O54   O     O_3   0.499648 0.974231 0.130519 -0.652178
H10   H     H_    0.478479 0.988966 0.161768 0.337210
O55   O     O_3   0.921041 0.471249 0.888966 -0.595909
H11   H     H_    0.882277 0.475236 0.871578 0.338861
O56   O     O_3   0.973121 0.494302 0.145237 -0.630288
H12   H     H_    0.964640 0.518300 0.179320 0.332773
O57   O     O_3   0.848676 0.999844 0.872880 -0.660322
H13   H     H_    0.872951 0.040536 0.896789 0.341417
O58   O     O_3   0.180339 0.034366 0.135144 -0.655064
H14   H     H_    0.165401 0.091953 0.114144 0.337372
O59   O     O_3   0.316130 0.537851 0.862530 -0.657550
H15   H     H_    0.329796 0.597423 0.882725 0.331961
O60   O     O_3   0.614737 0.390982 0.111561 -0.671851
H16   H     H_    0.589326 0.427555 0.086890 0.346742
O61   O     O_3   0.646384 0.027681 0.016434 -0.695583
H17   H     H_    0.660172 0.036597 0.982070 0.340316
O62   O     O_3   0.362799 0.910249 0.977901 -0.717029
H18   H     H_    0.397644 0.907308 0.955802 0.320534
O63   O     O_3   0.133217 0.425944 0.024761 -0.684690
H19   H     H_    0.138226 0.448945 0.990120 0.339038
O64   O     O_3   0.784106 0.220135 0.943161 -0.716781
H20   H     H_    0.803820 0.187069 0.914604 0.335696
H21   H     H_    0.648083 0.035709 0.110900 0.163601
H22   H     H_    0.357204 0.937030 0.880842 0.128874
H23   H     H_    0.142094 0.441986 0.118469 0.187614
H24   H     H_    0.799782 0.310110 0.854584 0.131944
H25   H     H_    0.552321 0.329175 0.380576 0.154529
H26   H     H_    0.437211 0.324744 0.617283 0.154238
H27   H     H_    0.056208 0.827294 0.381514 0.147282
H28   H     H_    0.941742 0.827309 0.618419 0.159410
H29   H     H_    0.530401 0.020235 0.538127 0.111638
H30   H     H_    0.475198 0.015021 0.462218 0.137076
H31   H     H_    0.025274 0.517138 0.536821 0.108065
H32   H     H_    0.969489 0.518353 0.460946 0.105572
H33   H     H_    0.531092 0.333667 0.468498 0.114206
H34   H     H_    0.457184 0.328753 0.529284 0.148383
H35   H     H_    0.034584 0.831521 0.469279 0.104363
H36   H     H_    0.960941 0.831664 0.530237 0.113580
O65   O     O_3   0.728275 0.800803 0.364969 -0.675005
H37   H     H_    0.724550 0.737077 0.385028 0.330612
O66   O     O_3   0.158420 0.960472 0.626040 -0.662802
H38   H     H_    0.124020 0.954001 0.602809 0.319361
O67   O     O_3   0.140093 0.391656 0.373365 -0.663008
H39   H     H_    0.111963 0.361739 0.397417 0.312077
O68   O     O_3   0.771722 0.300621 0.634928 -0.674185
H40   H     H_    0.775371 0.236860 0.614837 0.330765
H41   H     H_    0.805883 0.047812 0.538006 0.128390
H42   H     H_    0.204872 0.079743 0.451511 0.103657
H43   H     H_    0.308461 0.533009 0.533984 0.144664
H44   H     H_    0.693927 0.548270 0.462025 0.129144
O69   O     O_3   0.837326 0.017673 0.631790 -0.665985
H45   H     H_    0.856077 0.068776 0.609592 0.318783
O70   O     O_3   0.183048 0.045428 0.355407 -0.665421
H46   H     H_    0.169221 0.107177 0.373753 0.329369
O71   O     O_3   0.318760 0.531918 0.632520 -0.669523
H47   H     H_    0.335494 0.585969 0.610793 0.325322
O72   O     O_3   0.662324 0.518021 0.368275 -0.668170
H48   H     H_    0.643509 0.569283 0.390481 0.318517
O73   O     O_3   0.544409 0.894632 0.951874 -0.663180
H49   H     H_    0.571629 0.919593 0.925911 0.356527
O74   O     O_3   0.524985 0.882109 0.048634 -0.579181
H50   H     H_    0.485779 0.858130 0.060503 0.355930
O75   O     O_3   0.907618 0.391506 0.971529 -0.636016
H51   H     H_    0.913748 0.333213 0.994765 0.369426
O76   O     O_3   0.915192 0.408545 0.073221 -0.631001
H52   H     H_    0.889077 0.438256 0.098948 0.370097
H53   H     H_    0.723654 0.797755 0.464095 0.152176
H54   H     H_    0.167520 0.949360 0.527467 0.104556
H55   H     H_    0.165388 0.359840 0.467361 0.093607
H56   H     H_    0.776304 0.297597 0.535794 0.152196
O77   O     O_3   0.668509 0.784715 0.631400 -0.673468
H57   H     H_    0.635472 0.763204 0.608959 0.322566
O78   O     O_3   0.307436 0.743046 0.382238 -0.673404
H58   H     H_    0.332151 0.710976 0.408850 0.318972
O79   O     O_3   0.199662 0.221623 0.618928 -0.654199
H59   H     H_    0.178023 0.181422 0.593155 0.327194
O80   O     O_3   0.831653 0.284226 0.368485 -0.674853
H60   H     H_    0.864779 0.262569 0.390884 0.320688
O81   O     O_3   0.717814 0.150749 0.485375 -0.726172
H61   H     H_    0.700680 0.133599 0.517941 0.330281
O82   O     O_3   0.371348 0.988145 0.522072 -0.715624
H62   H     H_    0.363937 0.008167 0.487143 0.333151
O83   O     O_3   0.363959 0.432893 0.464145 -0.720167
H63   H     H_    0.393761 0.453562 0.439284 0.319616
O84   O     O_3   0.782272 0.650526 0.514650 -0.725839
H64   H     H_    0.799260 0.633167 0.482027 0.330719
H65   H     H_    0.730979 0.148175 0.391416 0.162916
H66   H     H_    0.361056 0.988614 0.615544 0.171219
H67   H     H_    0.337308 0.481821 0.370533 0.133973
H68   H     H_    0.769282 0.648048 0.608637 0.162339
H69   H     H_    0.456754 0.324672 0.880672 0.204939
H70   H     H_    0.508575 0.324522 0.127555 0.214056
H71   H     H_    0.945708 0.820743 0.883291 0.220681
H72   H     H_    0.037436 0.823990 0.120629 0.207793
O85   O     O_3   0.451966 0.435454 0.953369 -0.707809
H73   H     H_    0.427750 0.478233 0.975932 0.329826
O86   O     O_3   0.477723 0.438119 0.058116 -0.739536
H74   H     H_    0.489129 0.496925 0.036870 0.341046
O87   O     O_3   0.971962 0.938731 0.950541 -0.722033
H75   H     H_    0.964683 0.997931 0.972907 0.337314
O88   O     O_3   0.020556 0.937111 0.049706 -0.705589
H76   H     H_    0.039012 0.979015 0.023390 0.338754
H77   H     H_    0.823987 0.907943 0.132847 0.145037
H78   H     H_    0.166706 0.980316 0.873091 0.162616
H79   H     H_    0.332989 0.481128 0.126115 0.166326
H80   H     H_    0.713895 0.595202 0.894585 0.175370
H81   H     H_    0.670125 0.828317 0.966836 0.168830
H82   H     H_    0.303681 0.775189 0.025822 0.145377
H83   H     H_    0.199326 0.278266 0.975769 0.140420
H84   H     H_    0.817777 0.293823 0.028089 0.210346
O89   O     O_3   0.671821 0.785162 0.870328 -0.670671
H85   H     H_    0.640370 0.762277 0.893269 0.337141
O90   O     O_3   0.301537 0.725667 0.120350 -0.664625
H86   H     H_    0.325149 0.688734 0.095072 0.322026
O91   O     O_3   0.203957 0.221694 0.881970 -0.665044
H87   H     H_    0.181684 0.184413 0.907868 0.323134
O92   O     O_3   0.816556 0.252635 0.120664 -0.643037
H88   H     H_    0.803641 0.184583 0.132933 0.352971
H89   H     H_    0.830207 0.874737 0.043271 0.130374
H90   H     H_    0.160736 0.948815 0.962253 0.131468
H91   H     H_    0.338195 0.453558 0.036608 0.143197
H92   H     H_    0.698447 0.532649 0.977392 0.126325
H93   H     H_    0.826411 0.016296 0.968504 0.147597
H94   H     H_    0.199538 0.051732 0.038132 0.110372
H95   H     H_    0.296780 0.559682 0.959392 0.108404
H96   H     H_    0.637455 0.402453 0.016031 0.121170

loop_
_geom_bond_atom_site_label_1
_geom_bond_atom_site_label_2
_ccdc_geom_bond_type
Cr9   O37   S    
C7    C168  A    
Cr8   O8    S    
C55   C59   A    
C142  C146  A    
C77   C101  A    
C19   C20   A    
C53   C69   A    
C38   C70   S    
C121  O81   S    
O83   H63   S    
C108  C164  S    
C81   H25   S    
C87   H35   S    
C83   H27   S    
C88   H36   S    
C162  O42   A    
Cr5   O49   S    
O64   H20   S    
C29   C33   A    
C100  C104  A    
C1    O25   A    
C135  O47   A    
C138  O70   S    
O86   H74   S    
C3    C74   S    
C9    C13   A    
C146  C150  A    
C131  C151  A    
C12   C16   A    
C23   O88   S    
C56   C72   A    
C169  C174  A    
C146  H6    S    
C30   H78   S    
C172  C175  A    
C141  C145  A    
Cr11  O35   S    
C138  C154  A    
C6    C165  A    
C49   H21   S    
C21   C22   A    
C86   H34   S    
C41   C49   A    
Cr11  O19   S    
C18   C170  A    
C124  O84   S    
C25   C29   A    
C167  O56   S    
C27   C31   A    
O78   H58   S    
Cr1   O17   S    
C28   C32   A    
C62   C66   A    
C157  O9    A    
Cr7   O31   S    
C65   H93   S    
C167  C171  A    
C162  O14   A    
Cr5   O29   S    
C98   C102  A    
C92   O40   A    
C78   C82   A    
O70   H46   S    
C54   C70   A    
C68   C72   A    
C50   H22   S    
C137  C153  A    
C45   O29   A    
C144  O80   S    
C140  C156  A    
C20   C172  A    
Cr11  O15   S    
C31   H79   S    
C132  C152  A    
Cr9   O13   S    
Cr8   O32   S    
C130  C138  A    
C163  O43   A    
Cr1   O41   S    
Cr3   O23   S    
C112  O68   S    
Cr5   O5    S    
C84   C88   A    
Cr1   O21   S    
C159  O11   A    
Cr10  O34   S    
C119  C123  A    
C26   C90   S    
C5    C46   S    
C105  C125  A    
C7    C48   S    
C26   C50   A    
C8    C47   S    
C107  C127  A    
O91   H87   S    
C136  C153  S    
Cr12  O16   S    
C66   C70   A    
C164  O16   A    
C129  H41   S    
C95   C99   A    
C43   O63   S    
C80   C160  S    
O84   H64   S    
C61   C65   A    
C129  C137  A    
C56   H84   S    
O77   H57   S    
Cr11  O11   S    
C2    O22   A    
Cr4   O44   S    
C117  C149  S    
C134  O50   A    
C55   C71   A    
C2    C75   S    
Cr1   O45   S    
C110  O66   S    
O87   H75   S    
C9    H70   S    
C57   O89   S    
O88   H76   S    
C11   H72   S    
C30   C34   A    
C6    C9    A    
C98   H29   S    
C121  C125  A    
O53   H9    S    
C130  H42   S    
C64   C68   A    
O59   H15   S    
C48   O32   A    
C91   O39   A    
C102  H1    S    
O57   H13   S    
C21   O86   S    
C57   C73   A    
C85   C93   A    
C54   H82   S    
C87   C95   A    
C130  C150  A    
C23   C24   A    
C27   C91   S    
C34   H90   S    
C110  C114  A    
C44   C52   A    
Cr1   O1    S    
C79   C103  A    
C82   H26   S    
C11   C15   A    
C27   C51   A    
O65   H37   S    
Cr5   O25   S    
C64   C76   A    
C7    C12   A    
Cr10  O10   S    
C135  O51   A    
C99   C103  A    
C10   C14   A    
C142  C154  A    
C116  C120  A    
C144  C156  A    
C147  C151  A    
C142  O78   S    
C10   H69   S    
C129  C149  A    
O67   H39   S    
Cr4   O4    S    
C160  O12   A    
C37   C69   S    
C123  C127  A    
C139  C155  A    
C17   C18   A    
C5    C166  A    
C108  C128  A    
C4    C73   S    
C42   C50   A    
C113  C117  A    
C107  C163  S    
C26   C30   A    
C115  C119  A    
C105  C161  S    
C157  O5    A    
C93   C97   A    
C112  C116  A    
C58   C74   A    
C126  H66   S    
C105  C109  A    
C3    O27   A    
C40   C72   S    
C1    C76   S    
C107  C111  A    
C148  C152  A    
O62   H18   S    
C35   H91   S    
C175  O75   S    
C89   O1    A    
C171  C176  A    
Cr8   O52   S    
C51   H23   S    
C14   C22   A    
C141  C153  A    
C63   C75   A    
C158  O6    A    
C84   H28   S    
Cr9   O17   S    
C37   C41   A    
Cr3   O47   S    
C131  C139  A    
C40   C44   A    
C47   O31   A    
C123  O83   S    
C176  O76   S    
Cr7   O27   S    
Cr3   O19   S    
Cr5   O17   S    
C42   O62   S    
C92   O4    A    
C62   O58   S    
C81   C85   A    
O56   H12   S    
C133  O49   A    
Cr10  O38   S    
C83   C87   A    
C88   C96   A    
C111  O67   S    
C6    C45   S    
C55   H83   S    
C78   C102  A    
C133  C156  S    
C113  H53   S    
C61   O57   S    
C80   C84   A    
C115  H55   S    
C116  H56   S    
O60   H16   S    
C52   H24   S    
C109  O65   S    
C15   C19   A    
C135  C154  S    
C80   C104  A    
Cr6   O50   S    
C79   C159  S    
Cr8   O20   S    
C161  O41   A    
C94   C98   A    
C2    O26   A    
C136  O52   A    
C127  H67   S    
C118  C150  S    
C134  O46   A    
Cr3   O43   S    
C12   H71   S    
O92   H88   S    
C4    O24   A    
O90   H86   S    
C137  O69   S    
C132  H44   S    
C145  H5    S    
C64   O60   S    
C29   H77   S    
C124  C128  A    
C99   H32   S    
O76   H52   S    
C141  O77   S    
O63   H19   S    
C165  C169  A    
C46   O34   A    
C131  H43   S    
C59   O91   S    
Cr6   O26   S    
Cr2   O18   S    
O72   H48   S    
C158  O10   A    
Cr4   O20   S    
O54   H10   S    
C101  H2    S    
C66   H94   S    
O68   H40   S    
C53   C57   A    
Cr6   O30   S    
C61   C73   A    
C82   C86   A    
C104  H3    S    
C161  O13   A    
C33   C37   A    
C108  C112  A    
C34   C38   A    
C35   C39   A    
O82   H62   S    
C8    C167  A    
C77   C81   A    
Cr7   O51   S    
C44   O64   S    
C90   O2    A    
Cr10  O14   S    
C31   C35   A    
C32   C36   A    
Cr2   O42   S    
C58   O90   S    
Cr12  O12   S    
Cr6   O6    S    
Cr2   O22   S    
O69   H45   S    
C160  O8    A    
C13   C17   A    
C132  C140  A    
Cr9   O33   S    
C106  C126  A    
C25   C89   S    
C143  C155  A    
O80   H60   S    
C79   C83   A    
C43   C51   A    
O75   H51   S    
O55   H11   S    
Cr3   O3    S    
C65   C69   A    
C168  O55   S    
C100  H31   S    
C60   C76   A    
C67   C71   A    
C106  C162  S    
O79   H59   S    
C25   C49   A    
C56   C60   A    
C168  C172  A    
C3    O23   A    
O71   H47   S    
C62   C74   A    
C1    O21   A    
Cr12  O36   S    
C145  C149  A    
Cr2   O46   S    
C170  C173  A    
O74   H50   S    
C93   C94   S    
O81   H61   S    
C14   C18   A    
C95   C96   S    
C144  C148  A    
C173  C174  A    
C143  C147  A    
C85   H33   S    
C19   C171  A    
C38   C42   A    
C118  C122  A    
C17   C169  A    
C47   O35   A    
C89   O37   A    
C36   H92   S    
C96   C100  A    
C90   O38   A    
C117  C121  A    
C86   C94   A    
C133  O45   A    
C148  H8    S    
C175  C176  A    
C164  O44   A    
C147  H7    S    
C114  H54   S    
O61   H17   S    
C33   H89   S    
Cr12  O40   S    
C16   C20   A    
C91   O3    A    
O66   H38   S    
C15   C23   A    
Cr2   O2    S    
C16   C24   A    
C60   O92   S    
C39   C71   S    
C24   O87   S    
C68   H96   S    
C45   O33   A    
C63   O59   S    
C22   O85   S    
C78   C158  S    
Cr4   O48   S    
C119  C151  S    
C63   C67   A    
C120  C152  S    
C166  O53   S    
C136  O48   A    
C13   C21   A    
Cr9   O9    S    
C36   C40   A    
C163  O15   A    
C39   C43   A    
C4    O28   A    
C67   H95   S    
C174  O74   S    
C122  C126  A    
C159  O7    A    
Cr7   O19   S    
C46   O30   A    
C28   C92   S    
C128  H68   S    
C114  C118  A    
Cr12  O20   S    
C143  O79   S    
Cr4   O24   S    
O58   H14   S    
C59   C75   A    
C54   C58   A    
Cr8   O28   S    
C134  C155  S    
C125  H65   S    
C173  O73   S    
C165  O54   S    
C53   H81   S    
C122  O82   S    
C139  O71   S    
C109  C113  A    
O89   H85   S    
Cr7   O7    S    
C5    C10   A    
C97   H30   S    
C28   C52   A    
C8    C11   A    
Cr10  O18   S    
C166  C170  A    
C41   O61   S    
O73   H49   S    
C97   C101  A    
C48   O36   A    
C32   H80   S    
C140  O72   S    
C106  C110  A    
Cr6   O18   S    
C111  C115  A    
C103  H4    S    
O85   H73   S    
Cr11  O39   S    
C120  C124  A    
C77   C157  S    
