data_mof_unit_6728.cif
_audit_creation_date              2013-03-05T15:58:56-0500
_audit_creation_method            fapswitch 2.2
_symmetry_space_group_name_H-M    P1
_symmetry_Int_Tables_number       1
_space_group_crystal_system       triclinic
_cell_length_a                    10.662421
_cell_length_b                    12.613915
_cell_length_c                    13.067934
_cell_angle_alpha                 82.930371
_cell_angle_beta                  90.533812
_cell_angle_gamma                 102.484326
_cell_volume                      1702.69526562

loop_
_atom_site_label
_atom_site_type_symbol
_atom_site_description
_atom_site_fract_x
_atom_site_fract_y
_atom_site_fract_z
_atom_type_partial_charge
O1    O     O_R   0.468120 0.366740 0.627160 -0.612027
O2    O     O_R   0.510770 0.544830 0.662520 -0.616107
C1    C     C_R   0.473022 0.439837 0.690635 0.941767
O3    O     O_R   0.663880 0.410950 0.482330 -0.585262
O4    O     O_R   0.706530 0.589040 0.517700 -0.618565
C2    C     C_R   0.741939 0.500748 0.497953 0.916043
Zn1   Zn    Zn3+2 0.471520 0.381090 0.476390 1.024925
Zn2   Zn    Zn3+2 0.528480 0.618910 0.523610 0.942941
O5    O     O_R   0.489230 0.455170 0.337480 -0.616826
O6    O     O_R   0.531880 0.633260 0.372840 -0.637373
O7    O     O_R   0.293470 0.410960 0.482300 -0.592155
O8    O     O_R   0.336120 0.589050 0.517670 -0.660633
C3    C     C_R   0.512071 0.560442 0.308351 0.890240
C4    C     C_R   0.257871 0.498404 0.501579 0.846251
C5    C     C_3   0.898769 0.383169 0.474993 0.099849
H1    H     H_    0.851392 0.321302 0.538624 0.186824
C6    C     C_3   0.042064 0.383229 0.473247 0.094179
H2    H     H_    0.071973 0.377727 0.392826 0.158460
H3    H     H_    0.912882 0.581408 0.337788 0.240606
H4    H     H_    0.126791 0.573765 0.340533 0.195495
C7    C     C_3   0.951627 0.589698 0.416091 -0.426125
C8    C     C_3   0.934862 0.526010 0.605266 0.117235
C9    C     C_3   0.878134 0.498674 0.498129 -0.132234
H5    H     H_    0.932862 0.613188 0.611102 0.142958
C10   C     C_3   0.120689 0.495555 0.501854 -0.034650
C11   C     C_3   0.095257 0.587370 0.417946 -0.459317
C12   C     C_3   0.077328 0.518432 0.608779 -0.434334
H6    H     H_    0.095199 0.456165 0.671465 0.239816
H7    H     H_    0.135830 0.597736 0.627883 0.168068
H8    H     H_    0.940132 0.671509 0.433032 0.194046
H9    H     H_    0.151151 0.668828 0.433811 0.206696
C13   C     C_R   0.442004 0.723566 0.061745 0.309918
H10   H     H_    0.491365 0.762178 0.214828 0.193787
H11   H     H_    0.373167 0.739967 0.859301 0.201386
C14   C     C_R   0.496328 0.594875 0.199486 -0.114216
C15   C     C_R   0.423186 0.293067 0.837984 -0.170208
C16   C     C_R   0.400332 0.260036 0.942802 0.354161
C17   C     C_R   0.400896 0.337687 0.009614 -0.226711
C18   C     C_R   0.414336 0.449288 0.970836 0.076730
C19   C     C_R   0.409005 0.478095 0.864049 0.095180
C20   C     C_R   0.434585 0.533386 0.034707 0.068307
C21   C     C_R   0.419976 0.640210 0.996122 0.040835
C22   C     C_R   0.387943 0.660896 0.892501 -0.167896
C23   C     C_R   0.382203 0.580871 0.827413 -0.187022
C24   C     C_R   0.479369 0.514791 0.133846 -0.225096
C25   C     C_R   0.479527 0.699742 0.163416 -0.259222
C26   C     C_R   0.432383 0.403123 0.798201 -0.160148
H12   H     H_    0.503416 0.437411 0.161100 0.185062
H13   H     H_    0.433663 0.232854 0.788142 0.189982
H14   H     H_    0.386219 0.308848 0.090898 0.155193
H15   H     H_    0.354734 0.600370 0.748688 0.171192
C27   C     C_R   0.327594 0.088394 0.342030 -0.227429
H16   H     H_    0.307752 0.255240 0.324596 0.136425
H17   H     H_    0.297341 0.881263 0.310827 0.176758
H18   H     H_    0.262597 0.066724 0.279968 0.177150
N1    N     N_R   0.433240 0.222190 0.444680 -0.103597
C28   C     C_R   0.650639 0.800074 0.631428 0.003384
C29   C     C_R   0.680887 0.904630 0.660848 -0.190549
C30   C     C_R   0.623692 0.985809 0.611327 -0.135390
C31   C     C_R   0.535380 0.962549 0.531511 0.013565
C32   C     C_R   0.508224 0.854524 0.504158 0.241386
C33   C     C_R   0.473462 0.041700 0.477765 -0.004196
C34   C     C_R   0.387708 0.011560 0.397158 0.177751
C35   C     C_R   0.362888 0.905144 0.372005 -0.237710
C36   C     C_R   0.421855 0.827926 0.425063 -0.219460
C37   C     C_R   0.493118 0.150333 0.500046 0.041957
C38   C     C_R   0.352488 0.194477 0.367012 0.095633
N2    N     N_R   0.566070 0.776970 0.554790 -0.138447
H19   H     H_    0.556028 0.180734 0.559780 0.130320
H20   H     H_    0.694380 0.736602 0.669998 0.172617
H21   H     H_    0.650685 0.065510 0.636910 0.167389
H22   H     H_    0.748383 0.922724 0.722008 0.189598
H23   H     H_    0.398210 0.747833 0.402108 0.206642
N3    N     N_R   0.840298 0.348557 0.378267 0.218758
O9    O     O_R   0.880783 0.401797 0.288848 -0.394237
O10   O     O_R   0.757863 0.255584 0.381005 -0.358069
N4    N     N_R   0.426706 0.832143 0.027266 0.203388
O11   O     O_R   0.318224 0.847557 0.988652 -0.356465
O12   O     O_R   0.511460 0.915419 0.052003 -0.324939
Br1   Br    Br    0.372906 0.109576 0.996154 -0.344443
N5    N     N_R   0.067585 0.286013 0.537904 0.218422
O13   O     O_R   0.101895 0.209229 0.494084 -0.372145
O14   O     O_R   0.045837 0.270095 0.636921 -0.349967
N6    N     N_R   0.859785 0.459948 0.693775 0.205931
O15   O     O_R   0.799213 0.507120 0.754534 -0.385685
O16   O     O_R   0.856292 0.355950 0.715496 -0.346347

loop_
_geom_bond_atom_site_label_1
_geom_bond_atom_site_label_2
_geom_bond_distance
_ccdc_geom_bond_type
C19   C26   1.415332 A    
C7    C11   1.537968 S    
C12   H7    1.113945 S    
C20   C21   1.419932 A    
N5    O13   1.301318 A    
C18   C20   1.408610 A    
N4    O11   1.300984 A    
Zn1   O7    2.017712 S    
C16   C17   1.389089 A    
N3    O10   1.301454 A    
C15   C16   1.389618 A    
H3    C7    1.108350 S    
N6    O16   1.300096 A    
C3    C14   1.454544 S    
C17   C18   1.413347 A    
O7    C4    1.294358 A    
C37   H19   1.076591 S    
C5    H1    1.110532 S    
C36   H23   1.066437 S    
C15   C26   1.404109 A    
C31   C33   1.424674 A    
O5    C3    1.305753 A    
C13   N4    1.431313 S    
C28   H20   1.081803 S    
C27   H18   1.083949 S    
C5    C9    1.584558 S    
C11   H9    1.113238 S    
H10   C25   1.083163 S    
Zn1   N1    2.050202 S    
O3    Zn1   2.006196 S    
N5    O14   1.299959 A    
N4    O12   1.300880 A    
C16   Br1   1.900455 S    
N3    O9    1.301408 A    
C33   C37   1.406884 A    
N6    O15   1.301370 A    
O3    C2    1.289798 A    
C18   C19   1.401878 A    
C29   C30   1.392383 A    
C27   C34   1.399006 A    
C31   C32   1.419763 A    
O1    C1    1.306735 A    
C8    N6    1.471259 S    
C22   C23   1.389186 A    
C33   C34   1.421434 A    
C19   C23   1.412944 A    
Zn2   O8    2.006196 S    
C6    H2    1.115689 S    
C27   C38   1.385626 A    
C23   H15   1.080691 S    
O8    C4    1.300442 A    
Zn2   N2    2.037931 S    
C8    C12   1.542437 S    
C7    C9    1.550918 S    
C8    H5    1.116397 S    
C21   C22   1.400468 A    
C28   N2    1.357355 A    
C14   C24   1.385771 A    
C24   H12   1.079928 S    
Zn1   O5    1.927846 S    
C13   C21   1.416875 A    
O1    Zn1   1.956192 S    
C13   C25   1.399800 A    
O2    Zn2   1.927846 S    
H11   C22   1.080729 S    
O6    C3    1.304548 A    
O4    Zn2   2.017713 S    
C5    C6    1.528087 S    
C17   H14   1.080968 S    
C10   C12   1.555121 S    
N1    C38   1.354476 A    
C7    H8    1.113732 S    
C6    C10   1.568786 S    
C35   C36   1.383897 A    
O2    C1    1.305164 A    
C10   C11   1.560393 S    
C32   N2    1.367157 A    
C29   H22   1.082576 S    
C28   C29   1.389178 A    
O4    C2    1.305316 A    
H4    C11   1.113518 S    
N1    C37   1.353812 A    
C2    C9    1.458017 S    
C1    C26   1.463726 S    
C6    N5    1.475348 S    
C4    C10   1.455374 S    
H16   C38   1.082027 S    
C34   C35   1.390439 A    
C32   C36   1.401080 A    
C30   C31   1.413588 A    
C5    N3    1.476655 S    
H17   C35   1.084519 S    
Zn2   O6    1.956189 S    
C12   H6    1.108011 S    
C20   C24   1.386914 A    
C8    C9    1.567729 S    
C14   C25   1.396940 A    
C15   H13   1.083226 S    
C30   H21   1.077575 S    
