data_mof_unit_29332.cif
_audit_creation_date              2012-10-26T17:12:28-0400
_audit_creation_method            fapswitch 2.2
_symmetry_space_group_name_H-M    P1
_symmetry_Int_Tables_number       1
_space_group_crystal_system       triclinic
_cell_length_a                    16.730649
_cell_length_b                    16.871752
_cell_length_c                    16.802571
_cell_angle_alpha                 67.695066
_cell_angle_beta                  67.881113
_cell_angle_gamma                 67.783673
_cell_volume                      3909.07308069

loop_
_atom_site_label
_atom_site_type_symbol
_atom_type_description
_atom_site_fract_x
_atom_site_fract_y
_atom_site_fract_z
_atom_type_partial_charge
C1    C     C_R   0.029970 0.828094 0.564112 0.542720
C2    C     C_R   0.031029 0.563648 0.827898 0.541525
C3    C     C_R   0.172241 0.968440 0.436615 0.532443
C4    C     C_R   0.828134 0.029114 0.564004 0.553252
C5    C     C_R   0.508469 0.936005 0.741335 -0.108866
C6    C     C_R   0.548683 0.938063 0.290116 -0.113922
C7    C     C_R   0.058215 0.710580 0.452767 -0.107828
C8    C     C_R   0.061906 0.259814 0.493481 -0.108212
C9    C     C_R   0.703566 0.450586 0.077724 -0.108373
C10   C     C_R   0.295217 0.541580 0.945884 -0.105670
C11   C     C_R   0.296474 0.922257 0.550264 -0.115619
C12   C     C_R   0.982576 0.169436 0.431301 0.547228
C13   C     C_R   0.705380 0.051782 0.457946 -0.105357
C14   C     C_R   0.493105 0.259512 0.062346 -0.108770
C15   C     C_R   0.452109 0.710702 0.057739 -0.114890
C16   C     C_R   0.947761 0.541572 0.294283 -0.105899
C17   C     C_R   0.075160 0.450875 0.704302 -0.107901
C18   C     C_R   0.559313 0.979757 0.555206 0.038821
C19   C     C_R   0.465517 0.952057 0.463489 0.039160
C20   C     C_R   0.044339 0.537508 0.535952 0.039286
C21   C     C_R   0.017815 0.445381 0.441864 0.039301
C22   C     C_R   0.535312 0.537215 0.045511 0.039561
C23   C     C_R   0.827853 0.563455 0.031392 0.541640
C24   C     C_R   0.441760 0.445156 0.017997 0.039136
C25   C     C_R   0.592163 0.991997 0.462007 0.011442
C26   C     C_R   0.431132 0.941251 0.556615 0.012119
C27   C     C_R   0.055284 0.444601 0.570389 0.012545
C28   C     C_R   0.005339 0.538357 0.408936 0.011864
C29   C     C_R   0.450618 0.581773 0.028405 0.011953
C30   C     C_R   0.518459 0.397014 0.050530 0.014109
C31   C     C_R   0.550498 0.968203 0.418755 0.011361
C32   C     C_R   0.482663 0.947527 0.603738 0.013316
C33   C     C_R   0.408952 0.538204 0.004994 0.011883
C34   C     C_R   0.171788 0.435953 0.970884 0.540708
C35   C     C_R   0.569674 0.444217 0.057061 0.012598
C36   C     C_R   0.049336 0.397360 0.519018 0.013743
C37   C     C_R   0.028219 0.581963 0.451037 0.012028
C38   C     C_R   0.461910 0.921031 0.697545 -0.134839
C39   C     C_R   0.593432 0.954948 0.333762 -0.143744
C40   C     C_R   0.041131 0.666971 0.408354 -0.138700
C41   C     C_R   0.075895 0.303826 0.540255 -0.133629
C42   C     C_R   0.653581 0.401952 0.075542 -0.132474
C43   C     C_R   0.337589 0.585661 0.965518 -0.136013
C44   C     C_R   0.346830 0.923968 0.599037 -0.137685
C45   C     C_R   0.568696 0.017503 0.830494 0.554588
C46   C     C_R   0.663383 0.031250 0.414064 -0.137121
C47   C     C_R   0.539563 0.303461 0.077121 -0.133469
C48   C     C_R   0.407767 0.666952 0.040588 -0.144255
C49   C     C_R   0.967021 0.585673 0.336887 -0.135322
C50   C     C_R   0.072848 0.402383 0.654448 -0.131709
C51   C     C_R   0.573619 0.983681 0.693736 -0.004730
C52   C     C_R   0.455675 0.945875 0.323772 -0.006248
C53   C     C_R   0.051138 0.676917 0.545385 -0.003509
C54   C     C_R   0.015123 0.306747 0.427327 -0.004555
C55   C     C_R   0.673586 0.544269 0.059503 -0.004788
C56   C     C_R   0.436180 0.969373 0.172042 0.535979
C57   C     C_R   0.319723 0.448013 0.968227 -0.001763
C58   C     C_R   0.326607 0.939674 0.456323 -0.006933
C59   C     C_R   0.680796 0.030299 0.551811 -0.002056
C60   C     C_R   0.427309 0.306595 0.015046 -0.004569
C61   C     C_R   0.544883 0.676876 0.051505 -0.005187
C62   C     C_R   0.969442 0.447978 0.319121 -0.002062
C63   C     C_R   0.057842 0.544529 0.674174 -0.004267
C64   C     C_R   0.609483 0.016848 0.735730 -0.034346
C65   C     C_R   0.403545 0.948044 0.272074 -0.042465
C66   C     C_R   0.050308 0.728220 0.596944 -0.042040
C67   C     C_R   0.431257 0.169488 0.982538 0.554592
C68   C     C_R   0.983040 0.264315 0.390714 -0.033517
C69   C     C_R   0.727115 0.596292 0.053603 -0.044513
C70   C     C_R   0.270656 0.400986 0.958568 -0.044668
C71   C     C_R   0.272963 0.945952 0.403934 -0.044358
C72   C     C_R   0.729415 0.040922 0.598869 -0.043803
C73   C     C_R   0.390738 0.264309 0.982772 -0.034237
C74   C     C_R   0.596741 0.728174 0.050600 -0.041379
C75   C     C_R   0.959604 0.400777 0.270320 -0.043976
C76   C     C_R   0.052652 0.596498 0.727347 -0.043606
C77   C     C_R   0.685700 0.049021 0.685800 -0.062333
C78   C     C_R   0.564061 0.828007 0.030102 0.535784
C79   C     C_R   0.315879 0.938193 0.315831 -0.058339
C80   C     C_R   0.060803 0.684248 0.684186 -0.058780
C81   C     C_R   0.951432 0.313999 0.314085 -0.057719
C82   C     C_R   0.684176 0.684155 0.061263 -0.058655
C83   C     C_R   0.314159 0.314122 0.950838 -0.059328
C84   C     C_R   0.604121 0.998659 0.600191 0.033771
C85   C     C_R   0.415590 0.946038 0.414390 0.033597
C86   C     C_R   0.050748 0.586512 0.585566 0.034170
C87   C     C_R   0.000021 0.400090 0.396550 0.033561
C88   C     C_R   0.584940 0.586295 0.051931 0.034276
C89   C     C_R   0.971299 0.435749 0.171710 0.540891
C90   C     C_R   0.396757 0.399963 0.999637 0.034006
C91   C     C_1   0.716866 0.095609 0.720348 0.261202
C92   C     C_1   0.273078 0.911087 0.273380 0.258539
C93   C     C_1   0.089150 0.726107 0.726315 0.255471
C94   C     C_1   0.904768 0.279476 0.282772 0.253448
C95   C     C_1   0.726721 0.726114 0.089122 0.257296
C96   C     C_1   0.282502 0.279575 0.904597 0.257041
Cu1   Cu    Cu3+1 0.995180 0.995180 0.424630 0.971003
Cu2   Cu    Cu3+1 0.004820 0.004820 0.575370 0.973049
Cu3   Cu    Cu3+1 0.995180 0.424630 0.995180 0.971560
Cu4   Cu    Cu3+1 0.004820 0.575370 0.004820 0.979277
Cu5   Cu    Cu3+1 0.424630 0.995180 0.995180 0.968859
Cu6   Cu    Cu3+1 0.575370 0.004820 0.004820 0.971231
H1    H     H_    0.493284 0.907527 0.812825 0.155521
H2    H     H_    0.409948 0.768907 0.079883 0.165380
H3    H     H_    0.911976 0.582500 0.244285 0.154937
H4    H     H_    0.095900 0.411992 0.764440 0.162891
H5    H     H_    0.411732 0.885818 0.738793 0.106619
H6    H     H_    0.663695 0.951867 0.302421 0.112474
H7    H     H_    0.044220 0.698363 0.338311 0.112721
H8    H     H_    0.110592 0.262855 0.591014 0.110074
H9    H     H_    0.683570 0.331094 0.086666 0.112807
H10   H     H_    0.316003 0.657676 0.945756 0.110262
H11   H     H_    0.316827 0.913601 0.670066 0.111464
H12   H     H_    0.590321 0.915340 0.231926 0.164706
H13   H     H_    0.684987 0.050257 0.341799 0.110480
H14   H     H_    0.590000 0.262428 0.112305 0.106587
H15   H     H_    0.337645 0.698424 0.042900 0.112309
H16   H     H_    0.947702 0.657678 0.314950 0.113805
H17   H     H_    0.083340 0.331579 0.684569 0.114976
H18   H     H_    0.081123 0.768536 0.410817 0.163696
H19   H     H_    0.090746 0.188626 0.509231 0.156762
H20   H     H_    0.763779 0.411999 0.098788 0.161910
H21   H     H_    0.245475 0.582337 0.909626 0.153510
H22   H     H_    0.235867 0.902228 0.589006 0.161774
H23   H     H_    0.754820 0.088035 0.416767 0.157732
H24   H     H_    0.508770 0.188277 0.090947 0.155048
N1    N     N_1   0.741686 0.133002 0.747586 -0.269403
N2    N     N_1   0.239160 0.889018 0.239751 -0.302179
N3    N     N_1   0.112223 0.759265 0.759688 -0.303386
N4    N     N_1   0.867262 0.252295 0.257855 -0.308358
N5    N     N_1   0.760435 0.759352 0.111792 -0.301187
N6    N     N_1   0.257267 0.252390 0.867448 -0.291089
O1    O     O_R   0.124540 0.978640 0.385460 -0.491132
O2    O     O_R   0.124540 0.385460 0.978640 -0.491664
O3    O     O_R   0.021360 0.875460 0.614540 -0.488011
O4    O     O_R   0.978640 0.124540 0.385460 -0.489792
O5    O     O_R   0.013780 0.867370 0.487190 -0.522600
O6    O     O_R   0.986220 0.132630 0.512810 -0.517523
O7    O     O_R   0.867370 0.487190 0.013780 -0.516468
O8    O     O_R   0.132630 0.512810 0.986220 -0.516534
O9    O     O_R   0.487190 0.013780 0.867370 -0.514308
O10   O     O_R   0.512810 0.986220 0.132630 -0.536282
O11   O     O_R   0.512810 0.132630 0.986220 -0.514014
O12   O     O_R   0.875460 0.021360 0.614540 -0.481947
O13   O     O_R   0.487190 0.867370 0.013780 -0.537704
O14   O     O_R   0.986220 0.512810 0.132630 -0.517684
O15   O     O_R   0.013780 0.487190 0.867370 -0.517525
O16   O     O_R   0.132630 0.986220 0.512810 -0.532783
O17   O     O_R   0.867370 0.013780 0.487190 -0.514338
O18   O     O_R   0.978640 0.385460 0.124540 -0.490389
O19   O     O_R   0.021360 0.614540 0.875460 -0.485817
O20   O     O_R   0.385460 0.124540 0.978640 -0.482592
O21   O     O_R   0.614540 0.875460 0.021360 -0.490406
O22   O     O_R   0.614540 0.021360 0.875460 -0.483788
O23   O     O_R   0.385460 0.978640 0.124540 -0.491016
O24   O     O_R   0.875460 0.614540 0.021360 -0.486463

loop_
_geom_bond_atom_site_label_1
_geom_bond_atom_site_label_2
_ccdc_geom_bond_type
C25   C31   A    
C95   N5    T    
C21   C87   A    
C26   C32   A    
Cu5   Cu6   S    
C65   C79   A    
C22   C29   A    
C64   C77   A    
C23   C69   S    
C11   H22   S    
Cu1   O1    S    
C19   C31   A    
C71   C79   A    
Cu1   Cu2   S    
C26   C44   A    
C66   C80   A    
C21   C36   A    
C4    O17   A    
C12   C68   S    
Cu5   O13   S    
C9    C42   A    
C94   N4    T    
C91   N1    T    
C30   C35   A    
Cu2   O6    S    
C68   C81   A    
C23   O7    A    
C52   C85   A    
C37   C40   A    
C54   C87   A    
C1    O5    A    
C58   C71   A    
C54   C68   A    
C63   C76   A    
Cu5   O23   S    
C56   C65   S    
C29   C33   A    
C60   C73   A    
C55   C88   A    
C38   H5    S    
C35   C42   A    
C19   C26   A    
C6    H12   S    
Cu3   O15   S    
C69   C82   A    
Cu4   O8    S    
C78   O13   A    
Cu5   O9    S    
Cu3   Cu4   S    
Cu4   O14   S    
C20   C86   A    
C18   C84   A    
C7    C40   A    
C53   C86   A    
C9    C55   A    
C32   C38   A    
C57   C70   A    
C11   C58   A    
Cu6   O22   S    
C27   C50   A    
C59   C72   A    
C96   N6    T    
C20   C37   A    
C13   H23   S    
Cu4   O24   S    
C67   O20   A    
C67   O11   A    
C3    O16   A    
C5    C38   A    
C45   O9    A    
C5    H1    S    
Cu3   O7    S    
C36   C41   A    
C47   H14   S    
C18   C25   A    
C16   C62   A    
C15   C48   A    
C74   C82   A    
C56   O23   A    
C93   N3    T    
C92   N2    T    
Cu1   O5    S    
C24   C33   A    
C9    H20   S    
Cu4   O19   S    
C39   H6    S    
Cu3   O18   S    
C57   C90   A    
C29   C48   A    
C50   H17   S    
C33   C43   A    
C30   C47   A    
C10   C57   A    
C16   C49   A    
C10   H21   S    
C8    C54   A    
C75   C89   S    
C75   C81   A    
C2    O15   A    
Cu2   O3    S    
Cu3   O2    S    
C3    O1    A    
C3    C71   S    
C42   H9    S    
C72   C77   A    
C70   C83   A    
C61   C88   A    
C28   C49   A    
C49   H16   S    
C1    C66   S    
C15   C61   A    
C40   H7    S    
C11   C44   A    
C8    C41   A    
C53   C66   A    
Cu6   O21   S    
C79   C92   S    
C55   C69   A    
C16   H3    S    
C67   C73   S    
C46   H13   S    
C89   O18   A    
C21   C28   A    
C44   H11   S    
C22   C88   A    
C41   H8    S    
C63   C86   A    
C12   O4    A    
C15   H2    S    
C12   O6    A    
C62   C75   A    
C18   C32   A    
C43   H10   S    
C7    C53   A    
C58   C85   A    
C4    C72   S    
C2    C76   S    
C2    O19   A    
C34   C70   S    
C77   C91   S    
Cu1   O17   S    
C82   C95   S    
Cu5   O20   S    
Cu2   O12   S    
C10   C43   A    
C7    H18   S    
C51   C64   A    
C76   C80   A    
C19   C85   A    
C24   C90   A    
C17   C50   A    
C4    O12   A    
C78   O21   A    
C14   C47   A    
C13   C59   A    
C20   C27   A    
C60   C90   A    
C61   C74   A    
C14   C60   A    
C62   C87   A    
C45   C64   S    
C59   C84   A    
C14   H24   S    
C27   C36   A    
C22   C35   A    
Cu6   O11   S    
C56   O10   A    
C17   H4    S    
C17   C63   A    
C81   C94   S    
C13   C46   A    
Cu2   O16   S    
C28   C37   A    
C83   C96   S    
C51   C84   A    
C34   O8    A    
C31   C39   A    
C8    H19   S    
C24   C30   A    
C48   H15   S    
C23   O24   A    
C74   C78   S    
C34   O2    A    
C6    C39   A    
C5    C51   A    
C89   O14   A    
C45   O22   A    
Cu6   O10   S    
Cu1   O4    S    
C6    C52   A    
C80   C93   S    
C1    O3    A    
C25   C46   A    
C73   C83   A    
C52   C65   A    
