data_mof_unit_6492.cif
_audit_creation_date              2012-12-11T15:49:10-0500
_audit_creation_method            fapswitch 2.2
_symmetry_space_group_name_H-M    P1
_symmetry_Int_Tables_number       1
_space_group_crystal_system       triclinic
_cell_length_a                    21.613306
_cell_length_b                    7.174141
_cell_length_c                    14.913717
_cell_angle_alpha                 89.649711
_cell_angle_beta                  107.620127
_cell_angle_gamma                 89.90302
_cell_volume                      2203.92721393

loop_
_atom_site_label
_atom_site_type_symbol
_atom_type_description
_atom_site_fract_x
_atom_site_fract_y
_atom_site_fract_z
_atom_type_partial_charge
O1    O     O_R   0.335860 0.638190 0.002110 -0.536080
O2    O     O_R   0.664140 0.361810 0.997890 -0.535797
O3    O     O_R   0.164140 0.138190 0.997890 -0.540791
O4    O     O_R   0.835860 0.861810 0.002110 -0.538235
O5    O     O_R   0.217530 0.305920 0.861960 -0.547936
O6    O     O_R   0.782470 0.694080 0.138040 -0.540783
O7    O     O_R   0.282470 0.805920 0.138040 -0.547669
O8    O     O_R   0.717530 0.194080 0.861960 -0.541906
C1    C     C_R   0.205243 0.478287 0.825415 0.737635
C2    C     C_R   0.794399 0.522501 0.174585 0.725692
C3    C     C_R   0.294589 0.976503 0.174487 0.736222
C4    C     C_R   0.705882 0.023571 0.825500 0.730729
O9    O     O_R   0.338690 0.308320 0.993240 -0.546964
O10   O     O_R   0.661310 0.691680 0.006760 -0.547896
O11   O     O_R   0.161310 0.808320 0.006760 -0.548261
O12   O     O_R   0.838690 0.191680 0.993240 -0.549893
O13   O     O_R   0.286170 0.140430 0.130100 -0.528299
O14   O     O_R   0.713830 0.859570 0.869900 -0.532104
O15   O     O_R   0.213830 0.640430 0.869900 -0.520015
O16   O     O_R   0.786170 0.359570 0.130100 -0.530295
C5    C     C_R   0.364942 0.477226 0.997621 0.686742
C6    C     C_R   0.635001 0.522793 0.002100 0.682853
C7    C     C_R   0.135028 0.977407 0.002254 0.698797
C8    C     C_R   0.864992 0.022617 0.997869 0.685758
O17   O     O_3   0.232630 0.472410 0.044750 -0.380173
O18   O     O_3   0.767370 0.527590 0.955250 -0.376563
O19   O     O_3   0.267370 0.972410 0.955250 -0.374881
O20   O     O_3   0.732630 0.027590 0.044750 -0.374525
V1    V     V_3+5 0.253220 0.196620 0.991700 1.445905
V2    V     V_3+5 0.746780 0.803380 0.008300 1.445913
V3    V     V_3+5 0.246780 0.696620 0.008300 1.447810
V4    V     V_3+5 0.753220 0.303380 0.991700 1.446045
C9    C     C_R   0.032358 0.828305 0.014802 -0.155465
C10   C     C_R   0.967726 0.171920 0.985727 -0.134175
C11   C     C_R   0.469526 0.326497 0.993326 -0.105585
C12   C     C_R   0.530366 0.673503 0.006111 -0.149555
H1    H     H_    0.056169 0.693473 0.026308 0.119752
H2    H     H_    0.943899 0.306730 0.974140 0.135130
H3    H     H_    0.447302 0.190280 0.988568 0.126528
H4    H     H_    0.552627 0.809704 0.011058 0.133483
C13   C     C_R   0.967307 0.839354 0.013009 -0.085622
C14   C     C_R   0.032736 0.160794 0.987284 -0.103461
C15   C     C_R   0.534551 0.337856 0.995072 -0.068849
C16   C     C_R   0.465341 0.662145 0.004367 -0.124371
H5    H     H_    0.943272 0.712435 0.023515 0.121407
H6    H     H_    0.056725 0.287664 0.976560 0.128363
H7    H     H_    0.560091 0.209635 0.991205 0.126513
H8    H     H_    0.439817 0.790362 0.008313 0.132407
C17   C     C_R   0.934030 0.011360 0.998529 -0.048857
C18   C     C_R   0.066027 0.988781 0.001814 -0.051038
C19   C     C_R   0.565958 0.511556 0.001460 -0.072116
C20   C     C_R   0.433927 0.488458 0.997949 -0.078907
C21   C     C_R   0.678491 0.018949 0.722993 -0.063887
C22   C     C_R   0.322535 0.988735 0.276798 -0.069478
C23   C     C_R   0.820576 0.513146 0.277493 -0.070045
C24   C     C_R   0.177884 0.499866 0.722912 -0.079716
C25   C     C_R   0.690287 0.015996 0.566893 -0.222917
C26   C     C_R   0.311763 0.069972 0.428484 -0.223002
C27   C     C_R   0.808981 0.450270 0.431287 -0.215940
C28   C     C_R   0.181368 0.667354 0.582844 -0.225163
C29   C     C_R   0.718222 0.000734 0.664505 0.272299
C30   C     C_R   0.282874 0.021486 0.334323 0.278781
C31   C     C_R   0.781724 0.457566 0.333302 0.280320
C32   C     C_R   0.213537 0.596340 0.672479 0.288237
C33   C     C_R   0.611626 0.044772 0.683765 -0.217099
C34   C     C_R   0.390103 0.999750 0.314317 -0.219210
C35   C     C_R   0.885571 0.561113 0.319956 -0.222823
C36   C     C_R   0.110874 0.475192 0.682460 -0.231272
C37   C     C_R   0.583276 0.074203 0.586194 0.113476
C38   C     C_R   0.419689 0.063628 0.406826 0.110716
C39   C     C_R   0.912533 0.566210 0.418843 0.116415
C40   C     C_R   0.076754 0.565958 0.597134 0.110394
C41   C     C_R   0.623654 0.053800 0.527702 0.077843
C42   C     C_R   0.379358 0.091155 0.464797 0.079947
C43   C     C_R   0.873834 0.502310 0.473993 0.082827
C44   C     C_R   0.113685 0.654156 0.545364 0.080689
C45   C     C_R   0.515469 0.111042 0.544525 -0.003595
C46   C     C_R   0.488243 0.091824 0.444957 -0.003139
C47   C     C_R   0.978082 0.620978 0.464266 -0.006724
C48   C     C_R   0.007347 0.569173 0.560627 -0.004937
C49   C     C_R   0.531039 0.102840 0.388603 -0.012528
C50   C     C_R   0.473372 0.165286 0.597396 -0.011592
C51   C     C_R   0.965436 0.530076 0.616194 -0.008216
C52   C     C_R   0.015437 0.728089 0.418635 -0.018429
C53   C     C_R   0.597693 0.075771 0.430625 -0.227951
C54   C     C_R   0.406285 0.146598 0.557763 -0.227160
C55   C     C_R   0.899660 0.494632 0.571630 -0.226228
C56   C     C_R   0.082703 0.738943 0.459033 -0.230827
H9    H     H_    0.630057 0.077022 0.387452 0.145465
H10   H     H_    0.374414 0.180656 0.599129 0.141873
H11   H     H_    0.867811 0.464971 0.613683 0.141232
H12   H     H_    0.111063 0.820755 0.424459 0.149774
H13   H     H_    0.418553 0.959178 0.269328 0.120384
H14   H     H_    0.582600 0.037522 0.731137 0.116735
H15   H     H_    0.085828 0.392442 0.721202 0.127617
H16   H     H_    0.915022 0.587526 0.274257 0.114519
H17   H     H_    0.720939 0.000670 0.521696 0.122457
H18   H     H_    0.281144 0.094207 0.473016 0.114900
H19   H     H_    0.779293 0.404167 0.474163 0.118478
H20   H     H_    0.209110 0.740436 0.544048 0.115118
N1    N     N_2   0.214006 0.011985 0.297201 -0.535254
H21   H     H_    0.189827 0.097866 0.330789 0.264446
C57   C     C_3   0.188328 0.824536 0.287199 -0.544381
H22   H     H_    0.134840 0.829736 0.254942 0.232586
H23   H     H_    0.199766 0.755090 0.357153 0.186155
H24   H     H_    0.208957 0.740722 0.240867 0.212797
N2    N     N_2   0.785531 0.959353 0.703175 -0.539854
H25   H     H_    0.802579 0.868612 0.662588 0.263904
C58   C     C_3   0.826508 0.121527 0.729006 -0.500208
H26   H     H_    0.823828 0.205903 0.665374 0.189800
H27   H     H_    0.877584 0.076682 0.762245 0.220195
H28   H     H_    0.811464 0.208267 0.780188 0.206417
N3    N     N_2   0.280786 0.634538 0.714444 -0.532675
H29   H     H_    0.297233 0.749941 0.686948 0.259484
C59   C     C_3   0.323198 0.475265 0.722326 -0.516137
H30   H     H_    0.320854 0.425088 0.651121 0.189551
H31   H     H_    0.309386 0.360734 0.762792 0.196008
H32   H     H_    0.373903 0.516304 0.759919 0.227972
N4    N     N_2   0.716023 0.403184 0.291277 -0.525110
H33   H     H_    0.700973 0.299520 0.328086 0.260451
C60   C     C_3   0.670294 0.556596 0.267708 -0.515711
H34   H     H_    0.669089 0.629958 0.332613 0.195508
H35   H     H_    0.621001 0.502364 0.231472 0.217514
H36   H     H_    0.683552 0.656872 0.219650 0.198907
C61   C     C_2   0.510241 0.174576 0.290206 0.726995
O21   O     O_2   0.537435 0.121070 0.233994 -0.573545
O22   O     O_R   0.460871 0.308512 0.262735 -0.659500
H37   H     H_    0.451323 0.347446 0.194454 0.286934
C62   C     C_2   0.495979 0.270767 0.686887 0.724833
O23   O     O_2   0.468830 0.250934 0.747345 -0.580057
O24   O     O_R   0.547395 0.396534 0.701022 -0.656312
H38   H     H_    0.558275 0.459812 0.764495 0.288815
C63   C     C_2   0.984996 0.557795 0.719671 0.727226
O25   O     O_2   0.961962 0.459757 0.768879 -0.577720
O26   O     O_R   0.028224 0.700388 0.760504 -0.660447
H39   H     H_    0.038090 0.704671 0.831342 0.288786
C64   C     C_2   0.985582 0.857636 0.338933 0.734342
O27   O     O_2   0.012713 0.888459 0.279328 -0.576738
O28   O     O_R   0.927349 0.949091 0.333716 -0.655035
H40   H     H_    0.912091 0.034299 0.276716 0.293824

loop_
_geom_bond_atom_site_label_1
_geom_bond_atom_site_label_2
_ccdc_geom_bond_type
O17   V3    S    
C51   C55   A    
C26   C30   A    
N1    H21   S    
C55   H11   S    
O19   V1    S    
O13   V1    S    
C37   C45   A    
O3    C7    A    
C10   C14   A    
C40   C44   A    
O15   V3    S    
C39   C47   A    
C63   O25   D    
O26   H39   S    
C34   C38   A    
C45   C46   A    
O1    C5    A    
C64   O28   S    
O9    V1    S    
C62   O23   D    
C58   H27   S    
C47   C52   A    
O4    C8    A    
C38   C46   A    
C59   H30   S    
O1    V3    S    
C27   H19   S    
O2    V4    S    
C14   H6    S    
C25   C41   A    
O3    V1    S    
C38   C42   A    
C60   H36   S    
C21   C29   A    
C1    O15   A    
C56   H12   S    
C2    O16   A    
C59   H31   S    
C23   C31   A    
O2    C6    A    
N2    H25   S    
C24   C32   A    
C37   C41   A    
O14   V2    S    
C21   C33   A    
C44   C56   A    
C4    C21   S    
C36   C40   A    
C30   N1    S    
C16   C20   A    
O11   C7    A    
N1    C57   S    
N2    C58   S    
O10   V2    S    
C48   C51   A    
C13   C17   A    
O7    C3    A    
O5    V1    S    
N4    C60   S    
C36   H15   S    
O7    V3    S    
O8    V4    S    
C12   H4    S    
C54   H10   S    
C58   H28   S    
C53   H9    S    
O18   V4    S    
C7    C18   S    
C22   C30   A    
C9    C18   A    
C50   C54   A    
C28   C44   A    
C9    H1    S    
C11   H3    S    
O5    C1    A    
C31   N4    S    
O8    C4    A    
C59   H32   S    
C25   H17   S    
O9    C5    A    
C57   H23   S    
C1    C24   S    
C42   C54   A    
C50   C62   S    
C25   C29   A    
C2    C23   S    
C3    C22   S    
C41   C53   A    
C60   H34   S    
C12   C19   A    
C14   C18   A    
C34   H13   S    
C43   C55   A    
C33   H14   S    
O6    V2    S    
C52   C64   S    
C61   O21   D    
C12   C16   A    
O22   H37   S    
C27   C43   A    
C11   C20   A    
C60   H35   S    
C11   C15   A    
C26   C42   A    
C61   O22   S    
N3    H29   S    
O16   V4    S    
C8    C17   S    
C3    O13   A    
C10   C17   A    
C32   N3    S    
C49   C61   S    
C10   H2    S    
C52   C56   A    
C28   H20   S    
O6    C2    A    
C23   C35   A    
O28   H40   S    
O11   V3    S    
C22   C34   A    
C26   H18   S    
O12   V4    S    
C64   O27   D    
C27   C31   A    
C28   C32   A    
C9    C13   A    
O10   C6    A    
O20   V2    S    
C40   C48   A    
C24   C36   A    
C58   H26   S    
C39   C43   A    
C46   C49   A    
C15   C19   A    
C35   H16   S    
C45   C50   A    
C33   C37   A    
C57   H24   S    
C35   C39   A    
C29   N2    S    
O4    V2    S    
C51   C63   S    
C47   C48   A    
C16   H8    S    
O12   C8    A    
N4    H33   S    
C4    O14   A    
C57   H22   S    
C63   O26   S    
C13   H5    S    
C62   O24   S    
C15   H7    S    
C5    C20   S    
C49   C53   A    
O24   H38   S    
C6    C19   S    
N3    C59   S    
