data_mof_unit_38299.cif
_audit_creation_date              2012-10-26T18:44:10-0400
_audit_creation_method            fapswitch 2.2
_symmetry_space_group_name_H-M    P1
_symmetry_Int_Tables_number       1
_space_group_crystal_system       triclinic
_cell_length_a                    19.327828
_cell_length_b                    9.097542
_cell_length_c                    7.782786
_cell_angle_alpha                 89.998657
_cell_angle_beta                  89.999809
_cell_angle_gamma                 90.000104
_cell_volume                      1368.491834

loop_
_atom_site_label
_atom_site_type_symbol
_atom_type_description
_atom_site_fract_x
_atom_site_fract_y
_atom_site_fract_z
_atom_type_partial_charge
C1    C     C_R   0.500000 0.220002 0.500001 0.556839
C2    C     C_R   0.254744 0.550341 0.356083 -0.077573
C3    C     C_R   0.182243 0.447981 0.645720 0.024403
C4    C     C_R   0.817757 0.447923 0.354313 0.024392
C5    C     C_R   0.817754 0.552096 0.645695 0.024393
C6    C     C_R   0.182244 0.552056 0.354285 0.024413
C7    C     C_R   0.145697 0.500019 0.500003 -0.023848
C8    C     C_R   0.854298 0.500013 0.500004 -0.023830
C9    C     C_R   0.291045 0.500008 0.500001 -0.040053
C10   C     C_R   0.708955 0.500005 0.500001 -0.040052
C11   C     C_R   0.930164 0.500019 0.500003 0.273635
C12   C     C_R   0.500000 0.779998 0.499999 0.556837
C13   C     C_R   0.069826 0.500022 0.500004 0.273710
C14   C     C_2   0.145611 0.394532 0.801959 0.290845
C15   C     C_2   0.854398 0.394364 0.198141 0.290823
C16   C     C_2   0.854393 0.605649 0.801876 0.290830
C17   C     C_2   0.145613 0.605522 0.198051 0.290862
C18   C     C_R   0.367039 0.500002 0.500000 0.538739
C19   C     C_R   0.632961 0.500001 0.500000 0.538725
C20   C     C_1   0.500000 0.065360 0.500002 -0.028823
C21   C     C_1   0.500000 0.934639 0.499998 -0.028823
C22   C     C_R   0.254743 0.449684 0.643921 -0.077577
C23   C     C_R   0.745258 0.449640 0.356100 -0.077560
C24   C     C_R   0.745255 0.550372 0.643904 -0.077562
Cu1   Cu    Cu3+1 0.500000 0.500000 0.669080 1.054095
Cu2   Cu    Cu3+1 0.500000 0.500000 0.330920 1.054096
H1    H     H_    0.283231 0.410845 0.754938 0.185043
H2    H     H_    0.716769 0.410759 0.245106 0.185041
H3    H     H_    0.716764 0.589243 0.754902 0.185042
H4    H     H_    0.283234 0.589176 0.245064 0.185041
H5    H     H_    0.090051 0.406637 0.814798 0.132873
H6    H     H_    0.909973 0.406243 0.185439 0.132868
H7    H     H_    0.909969 0.593771 0.814587 0.132863
H8    H     H_    0.090051 0.593423 0.185200 0.132878
N1    N     N_1   0.500000 0.500000 0.076820 -0.073594
N2    N     N_1   0.500000 0.500000 0.923180 -0.073594
N3    N     N_R   0.034404 0.628694 0.499641 -0.207687
N4    N     N_R   0.965583 0.371344 0.500371 -0.207611
N5    N     N_R   0.965582 0.628694 0.499634 -0.207604
N6    N     N_R   0.034406 0.371347 0.500366 -0.207684
O1    O     O_R   0.500000 0.288390 0.642760 -0.492979
O2    O     O_2   0.822751 0.336131 0.080572 -0.482262
O3    O     O_2   0.822743 0.663878 0.919442 -0.482266
O4    O     O_2   0.177252 0.663926 0.080588 -0.482341
O5    O     O_R   0.500000 0.711610 0.357240 -0.492980
O6    O     O_R   0.500000 0.711610 0.642760 -0.492984
O7    O     O_R   0.500000 0.288390 0.357240 -0.492983
O8    O     O_R   0.400140 0.500000 0.642830 -0.501172
O9    O     O_R   0.599860 0.500000 0.357170 -0.501164
O10   O     O_R   0.599860 0.500000 0.642830 -0.501167
O11   O     O_R   0.400140 0.500000 0.357170 -0.501171
O12   O     O_2   0.177250 0.336141 0.919438 -0.482340

loop_
_geom_bond_atom_site_label_1
_geom_bond_atom_site_label_2
_ccdc_geom_bond_type
C11   N4    A    
N4    N6    A    
C6    C7    A    
C16   H7    S    
C5    C8    A    
C14   H5    S    
C13   N3    A    
N1    N2    T    
Cu1   O8    S    
C2    H4    S    
C10   C19   S    
C4    C8    A    
C4    C15   S    
C17   O4    D    
C15   H6    S    
N3    N5    A    
Cu2   O11   S    
C11   N5    A    
C5    C24   A    
C16   O3    D    
C2    C6    A    
C3    C14   S    
Cu2   O7    S    
C8    C11   S    
C12   C21   S    
C1    C20   S    
C1    O1    A    
C18   O11   A    
C3    C7    A    
C22   H1    S    
C10   C23   A    
C14   O12   D    
C9    C22   A    
C23   H2    S    
C17   H8    S    
Cu1   N2    S    
C19   O10   A    
C9    C18   S    
C7    C13   S    
C20   C21   T    
C12   O6    A    
Cu2   O9    S    
Cu1   O1    S    
Cu2   N1    S    
C4    C23   A    
C6    C17   S    
C19   O9    A    
Cu1   O10   S    
C1    O7    A    
C5    C16   S    
Cu2   O5    S    
C10   C24   A    
Cu1   Cu2   S    
C24   H3    S    
C2    C9    A    
Cu1   O6    S    
C3    C22   A    
C15   O2    D    
C12   O5    A    
C13   N6    A    
C18   O8    A    
