data_mof_unit_47117.cif
_audit_creation_date              2012-12-10T16:52:08-0500
_audit_creation_method            fapswitch 2.2
_symmetry_space_group_name_H-M    P1
_symmetry_Int_Tables_number       1
_space_group_crystal_system       triclinic
_cell_length_a                    7.775349
_cell_length_b                    8.555077
_cell_length_c                    14.868323
_cell_angle_alpha                 91.146701
_cell_angle_beta                  85.789818
_cell_angle_gamma                 93.630457
_cell_volume                      984.256042549

loop_
_atom_site_label
_atom_site_type_symbol
_atom_type_description
_atom_site_fract_x
_atom_site_fract_y
_atom_site_fract_z
_atom_type_partial_charge
C1    C     C_R   0.545731 0.794682 0.497671 0.961427
C2    C     C_R   0.581660 0.627839 0.811370 -0.207647
C3    C     C_R   0.494490 0.500866 0.232186 -0.058928
C4    C     C_R   0.505510 0.499134 0.767813 -0.058928
C5    C     C_R   0.573874 0.627745 0.185673 -0.225549
C6    C     C_R   0.426127 0.372254 0.814327 -0.225549
C7    C     C_R   0.574193 0.629217 0.092773 0.103377
C8    C     C_R   0.425808 0.370783 0.907227 0.103376
C9    C     C_R   0.499779 0.498669 0.046804 0.056028
C10   C     C_R   0.500222 0.501330 0.953196 0.056028
C11   C     C_R   0.425270 0.365800 0.094741 0.050239
C12   C     C_R   0.454269 0.205318 0.502329 0.961428
C13   C     C_R   0.574731 0.634199 0.905258 0.050239
C14   C     C_R   0.645569 0.760523 0.046013 -0.213130
C15   C     C_R   0.354433 0.239476 0.953987 -0.213129
C16   C     C_2   0.706472 0.915509 0.907839 0.904859
C17   C     C_2   0.293532 0.084490 0.092160 0.904859
C18   C     C_R   0.643319 0.766684 0.952459 -0.039060
C19   C     C_R   0.356683 0.233315 0.047541 -0.039062
C20   C     C_2   0.569851 0.958193 0.496325 -0.361798
C21   C     C_2   0.430149 0.041807 0.503675 -0.361797
C22   C     C_R   0.502005 0.499982 0.672747 0.883126
C23   C     C_R   0.497995 0.500018 0.327253 0.883126
C24   C     C_R   0.418340 0.372161 0.188630 -0.207647
H1    H     H_    0.355100 0.278595 0.229071 0.171053
H2    H     H_    0.986318 0.617623 0.568048 0.195890
H3    H     H_    0.668655 0.079890 0.817018 0.344670
H4    H     H_    0.331349 0.920111 0.182983 0.344670
H5    H     H_    0.644900 0.721405 0.770929 0.171052
H6    H     H_    0.632099 0.726124 0.222284 0.151921
H7    H     H_    0.367901 0.273875 0.777716 0.151921
H8    H     H_    0.698374 0.860867 0.083025 0.205966
H9    H     H_    0.301628 0.139132 0.916975 0.205967
H10   H     H_    0.701818 0.009196 0.489303 0.181620
H11   H     H_    0.298182 0.990804 0.510696 0.181620
H12   H     H_    0.013682 0.382377 0.431952 0.195890
N1    N     N_2   0.950330 0.457950 0.475660 -0.171139
N2    N     N_2   0.049670 0.542050 0.524340 -0.171139
O1    O     O_R   0.389250 0.738570 0.505970 -0.611836
O2    O     O_R   0.614334 0.976474 0.840665 -0.832451
O3    O     O_2   0.164791 0.011423 0.067210 -0.582491
O4    O     O_R   0.385669 0.023527 0.159335 -0.832452
O5    O     O_R   0.610750 0.261430 0.494030 -0.611836
O6    O     O_R   0.678390 0.711620 0.490370 -0.632591
O7    O     O_R   0.321610 0.288380 0.509630 -0.632592
O8    O     O_R   0.355420 0.513510 0.639950 -0.605681
O9    O     O_R   0.644580 0.486490 0.360050 -0.605681
O10   O     O_R   0.644560 0.486560 0.624350 -0.626965
O11   O     O_R   0.355440 0.513440 0.375650 -0.626965
O12   O     O_2   0.835215 0.988573 0.932789 -0.582491
Zn1   Zn    Zn3+2 0.306940 0.517990 0.510420 0.959093
Zn2   Zn    Zn3+2 0.693060 0.482010 0.489580 0.959093

loop_
_geom_bond_atom_site_label_1
_geom_bond_atom_site_label_2
_ccdc_geom_bond_type
O1    Zn1   S    
O9    Zn2   S    
C21   H11   S    
C8    C15   A    
C4    C22   S    
C9    C10   A    
C14   C18   A    
C1    O6    A    
C2    C4    A    
N1    Zn2   S    
H3    O2    S    
C3    C5    A    
C20   H10   S    
O6    Zn2   S    
C6    H7    S    
C20   C21   D    
C15   C19   A    
C9    C11   A    
C11   C19   A    
C3    C24   A    
N1    N2    D    
C13   C18   A    
C16   O2    S    
C2    H5    S    
C12   C21   S    
H4    O4    S    
H12   N1    S    
C17   C19   S    
C16   O12   D    
C22   O10   A    
C12   O5    A    
C8    C10   A    
C17   O3    D    
O5    Zn2   S    
C23   O11   A    
C4    C6    A    
C23   O9    A    
O7    Zn1   S    
C7    C9    A    
C11   C24   A    
O10   Zn2   S    
C24   H1    S    
C16   C18   S    
C5    H6    S    
C5    C7    A    
C2    C13   A    
C1    O1    A    
C17   O4    S    
H2    N2    S    
C1    C20   S    
C6    C8    A    
N2    Zn1   S    
C22   O8    A    
C3    C23   S    
O8    Zn1   S    
C15   H9    S    
C7    C14   A    
C14   H8    S    
C12   O7    A    
O11   Zn1   S    
C10   C13   A    
