data_mof_unit_42977.cif
_audit_creation_date              2012-12-11T18:09:13-0500
_audit_creation_method            fapswitch 2.2
_symmetry_space_group_name_H-M    P1
_symmetry_Int_Tables_number       1
_space_group_crystal_system       triclinic
_cell_length_a                    8.25494
_cell_length_b                    12.65481
_cell_length_c                    19.109713
_cell_angle_alpha                 100.094415
_cell_angle_beta                  91.733613
_cell_angle_gamma                 98.640435
_cell_volume                      1939.7962624

loop_
_atom_site_label
_atom_site_type_symbol
_atom_type_description
_atom_site_fract_x
_atom_site_fract_y
_atom_site_fract_z
_atom_type_partial_charge
Ba1   Ba    Ba6+2 0.853180 0.547790 0.465300 1.675585
Ba2   Ba    Ba6+2 0.336650 0.452300 0.534710 1.669693
C1    C     C_3   0.630929 0.888472 0.238029 -0.409966
C2    C     C_3   0.664797 0.811472 0.287557 0.341567
C3    C     C_3   0.459987 0.248261 0.312073 0.262863
C4    C     C_3   0.454854 0.193361 0.234119 0.023856
C5    C     C_3   0.066684 0.235334 0.731377 0.363421
C6    C     C_3   0.089280 0.207805 0.805044 -0.345757
C7    C     C_3   0.542994 0.172611 0.693017 0.369009
C8    C     C_3   0.547787 0.073066 0.727045 -0.338773
C9    C     C_R   0.064577 0.571246 0.802671 -0.139860
C10   C     C_R   0.022038 0.548583 0.729002 0.021871
C11   C     C_R   0.844634 0.429407 0.818500 -0.162453
C12   C     C_3   0.131042 0.777221 0.272732 0.341925
C13   C     C_R   0.779053 0.430882 0.750184 0.005850
C14   C     C_R   0.358631 0.569506 0.182143 -0.126744
C15   C     C_R   0.416640 0.562084 0.250073 0.043315
C16   C     C_R   0.100855 0.465506 0.201441 -0.075041
C17   C     C_R   0.160537 0.461981 0.272038 0.082064
C18   C     C_R   0.982899 0.506589 0.849361 0.007382
C19   C     C_R   0.876148 0.480907 0.703927 -0.235151
C20   C     C_R   0.194318 0.529747 0.156186 0.006441
C21   C     C_R   0.316368 0.513916 0.295593 -0.231034
C22   C     C_R   0.742252 0.498070 0.963997 -0.087840
C23   C     C_3   0.112421 0.814041 0.201774 -0.346293
C24   C     C_R   0.627474 0.472453 0.012515 -0.062902
C25   C     C_R   0.678074 0.481472 0.083032 -0.021725
C26   C     C_R   0.841579 0.518507 0.104551 -0.076935
C27   C     C_R   0.963391 0.520811 0.055774 0.015551
C28   C     C_R   0.913247 0.511719 0.981826 0.041818
C29   C     C_R   0.130847 0.547556 0.081199 -0.013867
C30   C     C_R   0.234975 0.593547 0.032317 0.038319
C31   C     C_R   0.198513 0.561525 0.957390 0.030777
C32   C     C_R   0.033120 0.522691 0.929626 -0.010405
C33   C     C_R   0.363699 0.681191 0.054357 -0.081458
C34   C     C_3   0.106837 0.811202 0.670337 0.509698
C35   C     C_R   0.480448 0.711264 0.007443 -0.053272
C36   C     C_R   0.468466 0.655009 0.937772 -0.078400
C37   C     C_R   0.329985 0.578177 0.913335 -0.108412
C38   C     C_R   0.764196 0.184414 0.531013 -0.292284
C39   C     C_R   0.423950 0.808834 0.475865 -0.217821
C40   C     C_R   0.399088 0.985433 0.450639 -0.072289
C41   C     C_R   0.334642 0.876945 0.446919 0.030566
C42   C     C_R   0.574840 0.849820 0.512829 0.077673
C43   C     C_R   0.639937 0.962147 0.520506 -0.067440
C44   C     C_R   0.550821 0.030110 0.487821 -0.051167
C45   C     C_3   0.067589 0.863308 0.744615 -0.357988
C46   C     C_R   0.615034 0.141231 0.493646 0.051491
C47   C     C_R   0.855853 0.118241 0.560716 -0.003433
C48   C     C_R   0.792031 0.008558 0.557987 -0.097600
C49   C     C_3   0.958463 0.211023 0.380561 0.276911
C50   C     C_3   0.945603 0.088285 0.365742 -0.345201
C51   C     C_3   0.684439 0.699213 0.681660 0.401199
C52   C     C_3   0.643897 0.729455 0.758953 -0.360037
H1    H     H_    0.759930 0.854342 0.329344 0.083272
H2    H     H_    0.179684 0.913161 0.773656 0.132808
H3    H     H_    0.972976 0.916168 0.740821 0.116879
H4    H     H_    0.020876 0.799279 0.775127 0.046552
H5    H     H_    0.838035 0.233345 0.394951 0.008076
H6    H     H_    0.049991 0.243119 0.425875 0.072047
H7    H     H_    0.858382 0.053591 0.319444 0.116711
H8    H     H_    0.901653 0.054224 0.412578 0.076983
H9    H     H_    0.068014 0.065820 0.353723 0.144967
H10   H     H_    0.802635 0.669287 0.680205 -0.149160
H11   H     H_    0.590746 0.631125 0.656154 0.107613
H12   H     H_    0.586006 0.960252 0.268709 0.093435
H13   H     H_    0.731031 0.800896 0.786702 0.097191
H14   H     H_    0.652462 0.659752 0.786152 0.066123
H15   H     H_    0.517503 0.749365 0.761957 0.139410
H16   H     H_    0.549257 0.791556 0.314550 -0.077508
H17   H     H_    0.535152 0.846768 0.196402 0.108814
H18   H     H_    0.335335 0.264424 0.326032 0.035214
H19   H     H_    0.547947 0.325660 0.320499 0.070861
H20   H     H_    0.371186 0.114219 0.225876 0.101193
H21   H     H_    0.579746 0.177965 0.219761 0.107921
H22   H     H_    0.744125 0.916274 0.212211 0.126903
H23   H     H_    0.125169 0.747437 0.157642 0.062604
H24   H     H_    0.141525 0.315826 0.730558 0.075457
H25   H     H_    0.934870 0.239404 0.721516 -0.074725
H26   H     H_    0.053036 0.272308 0.845980 0.072150
H27   H     H_    0.011685 0.129163 0.807921 0.107015
H28   H     H_    0.219716 0.201451 0.816547 0.156463
H29   H     H_    0.668767 0.198372 0.676824 -0.093825
H30   H     H_    0.458169 0.150036 0.644686 0.112204
H31   H     H_    0.581734 0.005846 0.687463 0.110472
H32   H     H_    0.425726 0.046203 0.746423 0.158533
H33   H     H_    0.048813 0.698451 0.270543 0.068444
H34   H     H_    0.640345 0.092870 0.772717 0.094033
H35   H     H_    0.160464 0.638917 0.821968 0.061777
H36   H     H_    0.780457 0.372850 0.848450 0.080391
H37   H     H_    0.450192 0.601873 0.150257 0.064306
H38   H     H_    0.984514 0.415941 0.182805 0.100832
H39   H     H_    0.833035 0.472355 0.648866 0.061194
H40   H     H_    0.364674 0.509937 0.348217 0.054633
H41   H     H_    0.692863 0.509974 0.913820 0.075454
H42   H     H_    0.498106 0.452939 0.996447 0.097372
H43   H     H_    0.589523 0.466125 0.121496 0.136618
H44   H     H_    0.260866 0.766690 0.281749 -0.074800
H45   H     H_    0.874080 0.553331 0.159026 0.117852
H46   H     H_    0.372240 0.728990 0.107242 0.055040
H47   H     H_    0.582199 0.775873 0.025683 0.076218
H48   H     H_    0.564192 0.672969 0.902372 0.071340
H49   H     H_    0.323824 0.535165 0.859576 0.130583
H50   H     H_    0.326089 0.033730 0.425594 0.100372
H51   H     H_    0.863816 0.960945 0.584105 0.138439
H52   H     H_    0.814327 0.269053 0.532983 0.059054
H53   H     H_    0.371983 0.724170 0.472324 0.072828
H54   H     H_    0.989185 0.836804 0.194863 0.148436
H55   H     H_    0.207363 0.885276 0.199327 0.108040
H56   H     H_    0.996559 0.767054 0.639369 0.062233
O1    O     O_2   0.875110 0.423180 0.326290 -0.449557
O2    O     O_3   0.693697 0.791448 0.649167 -0.646296
O3    O     O_3   0.085843 0.856635 0.325936 -0.620011
O4    O     O_2   0.314600 0.576860 0.673750 -0.455495
O5    O     O_3   0.066300 0.567050 0.585060 -0.480225
O6    O     O_3   0.528700 0.375020 0.630330 -0.476252
O7    O     O_3   0.227202 0.746406 0.674887 -0.606570
O8    O     O_3   0.611760 0.365720 0.463870 -0.479778
O9    O     O_3   0.107460 0.315620 0.594570 -0.497344
O10   O     O_2   0.190337 0.123491 0.547717 -0.440255
O11   O     O_3   0.118438 0.154687 0.680765 -0.560805
O12   O     O_3   0.123410 0.433040 0.414950 -0.503878
O13   O     O_3   0.577950 0.634370 0.536140 -0.498556
O14   O     O_2   0.341900 0.231310 0.465740 -0.473119
O15   O     O_3   0.511872 0.175676 0.352083 -0.679439
O16   O     O_2   0.449697 0.458631 0.757206 -0.509552
O17   O     O_3   0.486067 0.253688 0.741872 -0.593121
O18   O     O_3   0.661010 0.625070 0.369680 -0.479094
O19   O     O_2   0.725221 0.511211 0.249086 -0.486930
O20   O     O_3   0.004925 0.250137 0.318781 -0.617089
O21   O     O_3   0.722934 0.720539 0.248414 -0.610284
O22   O     O_2   0.847800 0.768730 0.534310 -0.457567
O23   O     O_3   0.082250 0.684470 0.405440 -0.489885
O24   O     O_2   0.001822 0.877985 0.456154 -0.450021
P1    P     P_3+3 0.042930 0.392230 0.337410 0.995903
P2    P     P_3+3 0.672230 0.754900 0.555730 0.993038
P3    P     P_3+3 0.126489 0.824293 0.409153 0.982743
P4    P     P_3+3 0.146790 0.607860 0.662600 0.983572
P5    P     P_3+3 0.066555 0.176654 0.595601 0.999358
P6    P     P_3+3 0.631732 0.604014 0.278228 0.946377
P7    P     P_3+3 0.522418 0.228904 0.443182 0.927612
P8    P     P_3+3 0.561956 0.380450 0.721323 0.937722
Br1   Br    Br    0.378464 0.280310 0.170452 -0.681037
Br2   Br    Br    0.198038 0.922057 0.619616 -0.614807

loop_
_geom_bond_atom_site_label_1
_geom_bond_atom_site_label_2
_ccdc_geom_bond_type
C42   P2    S    
C8    H31   S    
O23   P3    S    
C11   H36   S    
C1    H17   S    
O20   P1    S    
Ba1   O18   S    
Ba1   O22   S    
O24   P3    D    
C2    H16   S    
Ba2   O8    S    
C4    H21   S    
C51   C52   S    
C52   H15   S    
C8    H34   S    
C24   C25   A    
C31   C37   A    
C34   Br2   S    
C23   H23   S    
C5    H25   S    
C26   C27   A    
C33   C35   A    
C22   C24   A    
C12   H33   S    
C16   C17   A    
C3    H18   S    
C50   H7    S    
C36   C37   A    
C51   H10   S    
C52   H14   S    
C17   P1    S    
C38   C47   A    
C34   C45   S    
Ba1   Ba2   S    
C40   C44   A    
Ba1   O12   S    
O21   P6    S    
Ba2   O6    S    
C25   H43   S    
O7    P4    S    
Ba2   O9    S    
O15   P7    S    
C14   C15   A    
C48   H51   S    
C12   H44   S    
Ba1   P2    S    
C51   H11   S    
C7    C8    S    
C23   H55   S    
C18   C32   S    
O8    P7    S    
C39   C41   A    
C5    O11   S    
Ba1   O23   S    
C49   O20   S    
C4    H20   S    
C2    O21   S    
Ba2   O12   S    
C24   H42   S    
C44   C46   A    
C9    C18   A    
C20   C29   S    
C28   C32   A    
C49   C50   S    
Ba2   P4    S    
C30   C33   A    
C5    C6    S    
C22   H41   S    
C52   H13   S    
C43   C44   A    
C10   C19   A    
O16   P8    D    
C6    H27   S    
O17   P8    S    
C17   C21   A    
Ba1   O13   S    
C35   C36   A    
C1    H22   S    
C45   H3    S    
C13   P8    S    
Ba2   O5    S    
C9    H35   S    
C29   C30   A    
O5    P4    S    
O22   P2    D    
C31   C32   A    
O10   P5    D    
C15   C21   A    
C34   O7    S    
C7    H29   S    
C5    H24   S    
O6    P8    S    
C51   O2    S    
C11   C13   A    
C2    H1    S    
C34   H56   S    
C39   C42   A    
O3    P3    S    
O14   P7    D    
C1    H12   S    
C49   H5    S    
C40   C41   A    
C33   H46   S    
C42   C43   A    
C26   H45   S    
C38   H52   S    
C38   C46   A    
C8    H32   S    
C14   C20   A    
C39   H53   S    
C11   C18   A    
C16   C20   A    
C6    H28   S    
C50   H9    S    
C40   H50   S    
C9    C10   A    
C37   H49   S    
Ba2   O14   S    
C12   O3    S    
C21   H40   S    
O13   P2    S    
C16   H38   S    
C30   C31   A    
O11   P5    S    
C47   P5    S    
O18   P6    S    
O2    P2    S    
O9    P5    S    
C36   H48   S    
C50   H8    S    
C7    O17   S    
Ba1   O1    S    
C45   H4    S    
C35   H47   S    
Ba2   O4    S    
O1    P1    D    
C3    C4    S    
O19   P6    D    
C19   H39   S    
C43   C48   A    
C46   P7    S    
C41   P3    S    
C15   P6    S    
C10   P4    S    
Ba1   O8    S    
O4    P4    D    
C12   C23   S    
C3    H19   S    
C22   C28   A    
O12   P1    S    
C7    H30   S    
C27   C28   A    
C13   C19   A    
C14   H37   S    
C27   C29   A    
C47   C48   A    
C3    O15   S    
C25   C26   A    
C6    H26   S    
C49   H6    S    
Ba1   O5    S    
C4    Br1   S    
Ba1   P1    S    
Ba2   O13   S    
C1    C2    S    
C23   H54   S    
C45   H2    S    
