data_mof_unit_52932.cif
_audit_creation_date              2012-12-10T17:51:33-0500
_audit_creation_method            fapswitch 2.2
_symmetry_space_group_name_H-M    P1
_symmetry_Int_Tables_number       1
_space_group_crystal_system       triclinic
_cell_length_a                    9.895786
_cell_length_b                    10.665168
_cell_length_c                    16.794763
_cell_angle_alpha                 92.000913
_cell_angle_beta                  85.139551
_cell_angle_gamma                 91.720868
_cell_volume                      1764.41976332

loop_
_atom_site_label
_atom_site_type_symbol
_atom_type_description
_atom_site_fract_x
_atom_site_fract_y
_atom_site_fract_z
_atom_type_partial_charge
C1    C     C_R   0.502169 0.739938 0.494079 0.857729
C2    C     C_R   0.530844 0.546110 0.265622 -0.024560
C3    C     C_R   0.278639 0.876681 0.435677 -0.240423
C4    C     C_R   0.480936 0.499659 0.653101 0.838520
C5    C     C_R   0.147329 0.920872 0.444277 0.269733
C6    C     C_R   0.120680 0.033934 0.489042 0.066958
C7    C     C_R   0.229100 0.097350 0.527042 0.091692
C8    C     C_R   0.365213 0.056754 0.507536 0.074115
C9    C     C_R   0.383476 0.935965 0.475401 -0.006526
C10   C     C_R   0.503309 0.874287 0.490011 -0.072462
C11   C     C_R   0.613415 0.940786 0.518744 -0.223615
C12   C     C_R   0.340026 0.514051 0.781950 -0.225208
C13   C     C_R   0.606145 0.068046 0.531173 -0.230698
C14   C     C_R   0.485849 0.127646 0.520350 -0.091102
C15   C     C_R   0.849685 0.664130 0.605213 -0.169045
C16   C     C_R   0.495919 0.260550 0.507620 0.887975
C17   C     C_R   0.914985 0.745230 0.657068 -0.222793
C18   C     C_R   0.054587 0.743664 0.658229 -0.197598
C19   C     C_R   0.129720 0.661408 0.607274 -0.132543
C20   C     C_R   0.067092 0.578559 0.553404 0.114630
C21   C     C_R   0.922536 0.579277 0.552873 0.160114
C22   C     C_R   0.933754 0.429931 0.446157 -0.169044
C23   C     C_R   0.440106 0.664464 0.163602 -0.134777
C24   C     C_R   0.077886 0.430524 0.445381 0.248322
C25   C     C_R   0.518982 0.506391 0.347481 0.865680
C26   C     C_R   0.468154 0.503281 0.739907 -0.027893
C27   C     C_R   0.584802 0.500486 0.781385 -0.199032
C28   C     C_R   0.574046 0.513043 0.863846 -0.208923
C29   C     C_R   0.446771 0.529969 0.905709 0.168739
C30   C     C_R   0.329417 0.526998 0.864724 -0.155048
C31   C     C_3   0.038719 0.814467 0.334089 -0.805847
C32   C     C_3   0.977527 0.085235 0.497639 -0.445892
C33   C     C_3   0.915085 0.097953 0.417727 -0.868468
C34   C     C_R   0.431170 0.623614 0.241091 -0.230424
C35   C     C_3   0.192632 0.181007 0.601806 -0.383869
C36   C     C_3   0.285705 0.171074 0.669693 -0.837585
C37   C     C_3   0.134614 0.378646 0.304329 -0.798175
C38   C     C_3   0.211572 0.515766 0.060818 -0.821514
C39   C     C_R   0.644642 0.516919 0.213756 -0.216522
C40   C     C_R   0.651761 0.555422 0.135239 -0.179291
C41   C     C_R   0.546320 0.624477 0.109735 0.200340
C42   C     C_2   0.437949 0.548438 0.992450 0.190388
C43   C     C_2   0.529905 0.626152 0.025008 -0.342356
H1    H     H_    0.684523 0.490355 0.750260 0.161562
H2    H     H_    0.105290 0.807225 0.698448 0.147708
H3    H     H_    0.236438 0.667191 0.611120 0.204462
H4    H     H_    0.724169 0.460177 0.232888 0.146224
H5    H     H_    0.603956 0.679941 0.987675 0.142050
H6    H     H_    0.230260 0.538056 0.896086 0.144395
H7    H     H_    0.358946 0.718585 0.143901 0.143357
H8    H     H_    0.248431 0.515197 0.750971 0.160682
H9    H     H_    0.665375 0.510349 0.894991 0.130206
H10   H     H_    0.948007 0.843633 0.451233 0.239786
H11   H     H_    0.133428 0.769728 0.309019 0.230032
H12   H     H_    0.733758 0.523871 0.093136 0.131555
H13   H     H_    0.952370 0.749224 0.322705 0.245550
H14   H     H_    0.026482 0.903116 0.303049 0.243669
H15   H     H_    0.992350 0.127192 0.369808 0.257018
H16   H     H_    0.864053 0.009628 0.398632 0.268805
H17   H     H_    0.834718 0.168490 0.424627 0.255683
H18   H     H_    0.911564 0.023801 0.537281 0.197647
H19   H     H_    0.976599 0.180700 0.525947 0.203024
H20   H     H_    0.307911 0.071402 0.679024 0.254212
H21   H     H_    0.381551 0.225970 0.657898 0.247324
H22   H     H_    0.234618 0.210757 0.726049 0.240749
H23   H     H_    0.704682 0.894679 0.531748 0.158914
H24   H     H_    0.183159 0.280276 0.586228 0.232108
H25   H     H_    0.091535 0.150480 0.629359 0.187507
H26   H     H_    0.165171 0.266389 0.400695 0.230223
H27   H     H_    0.036172 0.335139 0.289472 0.214200
H28   H     H_    0.216954 0.334673 0.264887 0.242796
H29   H     H_    0.136287 0.480670 0.292669 0.248168
H30   H     H_    0.387251 0.424266 0.085245 0.242470
H31   H     H_    0.135621 0.448378 0.037615 0.243636
H32   H     H_    0.198195 0.609281 0.035675 0.234563
H33   H     H_    0.191861 0.524394 0.126880 0.237893
H34   H     H_    0.296483 0.790700 0.400912 0.178331
H35   H     H_    0.694640 0.120468 0.548775 0.176172
H36   H     H_    0.883068 0.374557 0.402042 0.158940
H37   H     H_    0.742608 0.672401 0.606859 0.205905
H38   H     H_    0.856798 0.810105 0.696305 0.148587
H39   H     H_    0.345282 0.651050 0.281444 0.143380
N1    N     N_R   0.857140 0.501200 0.500750 -0.134003
N2    N     N_R   0.142740 0.501280 0.500770 -0.153352
N3    N     N_2   0.041319 0.838847 0.419284 -0.289898
N4    N     N_2   0.157002 0.358926 0.386944 -0.250295
N5    N     N_2   0.346437 0.469122 0.039789 -0.287441
O1    O     O_R   0.385310 0.683220 0.500000 -0.638052
O2    O     O_R   0.614640 0.683250 0.500010 -0.638510
O3    O     O_R   0.371780 0.500010 0.615800 -0.643970
O4    O     O_R   0.601110 0.500030 0.615800 -0.637554
O5    O     O_R   0.385360 0.316750 0.499990 -0.611988
O6    O     O_R   0.614690 0.316780 0.500000 -0.621811
O7    O     O_R   0.398890 0.499970 0.384200 -0.584978
O8    O     O_R   0.628220 0.499990 0.384200 -0.615399
Zn1   Zn    Zn3+2 0.346870 0.499980 0.499990 0.931872
Zn2   Zn    Zn3+2 0.653130 0.500020 0.500010 0.922178

loop_
_geom_bond_atom_site_label_1
_geom_bond_atom_site_label_2
_ccdc_geom_bond_type
C6    C32   S    
O1    Zn1   S    
C33   H15   S    
C31   N3    S    
C29   C42   S    
C28   H9    S    
C35   C36   S    
C19   H3    S    
C7    C8    A    
C38   H33   S    
C16   O6    A    
C28   C29   A    
C32   H18   S    
C38   H31   S    
C5    C6    A    
O5    Zn1   S    
C18   C19   A    
N2    Zn1   S    
H30   N5    S    
C2    C39   A    
C19   C20   A    
C8    C9    A    
C8    C14   A    
C31   H13   S    
C36   H20   S    
C43   H5    S    
C17   H38   S    
C11   H23   S    
C4    O4    A    
C5    N3    S    
C2    C34   A    
C1    O1    A    
C25   O7    A    
C33   H16   S    
C13   C14   A    
C41   C43   S    
C27   H1    S    
C4    O3    A    
C38   H32   S    
C21   N1    A    
C37   N4    S    
C39   C40   A    
C36   H22   S    
C23   H7    S    
O2    Zn2   S    
C29   C30   A    
C3    C9    A    
C15   H37   S    
C35   H24   S    
C23   C34   A    
C17   C18   A    
C26   C27   A    
O4    Zn2   S    
O7    Zn1   S    
C40   C41   A    
C30   H6    S    
C25   O8    A    
C33   H17   S    
C20   N2    A    
C14   C16   S    
C16   O5    A    
C42   C43   D    
C3    H34   S    
C18   H2    S    
O6    Zn2   S    
C12   H8    S    
C39   H4    S    
C9    C10   A    
C15   C17   A    
C13   H35   S    
C1    O2    A    
C12   C30   A    
C7    C35   S    
C1    C10   S    
C3    C5    A    
C40   H12   S    
C22   H36   S    
C4    C26   S    
O8    Zn2   S    
O3    Zn1   S    
C6    C7    A    
C23   C41   A    
C38   N5    S    
C22   N1    A    
C31   H14   S    
C37   H28   S    
C24   N2    A    
C32   H19   S    
C36   H21   S    
C32   C33   S    
C11   C13   A    
C35   H25   S    
C2    C25   S    
C22   C24   A    
C31   H11   S    
C10   C11   A    
C15   C21   A    
C20   C21   A    
N1    Zn2   S    
C37   H29   S    
C12   C26   A    
C27   C28   A    
H10   N3    S    
C42   N5    S    
C34   H39   S    
C37   H27   S    
C24   N4    S    
H26   N4    S    
