data_mof_unit_15891.cif
_audit_creation_date              2012-12-11T15:17:56-0500
_audit_creation_method            fapswitch 2.2
_symmetry_space_group_name_H-M    P1
_symmetry_Int_Tables_number       1
_space_group_crystal_system       triclinic
_cell_length_a                    15.679886
_cell_length_b                    15.679886
_cell_length_c                    34.389598
_cell_angle_alpha                 89.844941
_cell_angle_beta                  89.84494
_cell_angle_gamma                 119.485377
_cell_volume                      7359.80155601

loop_
_atom_site_label
_atom_site_type_symbol
_atom_type_description
_atom_site_fract_x
_atom_site_fract_y
_atom_site_fract_z
_atom_type_partial_charge
C1    C     C_R   0.577869 0.441792 0.554734 0.573210
C2    C     C_R   0.516045 0.012134 0.208734 0.354312
C3    C     C_3   0.239976 0.909071 0.109553 -0.100123
C4    C     C_3   0.671699 0.753646 0.107556 -0.100125
C5    C     C_3   0.082077 0.330218 0.107402 -0.100472
C6    C     C_R   0.499035 0.479414 0.207852 0.353013
C7    C     C_R   0.917385 0.471578 0.198529 0.350088
C8    C     C_R   0.025824 0.443587 0.850152 -0.115599
C9    C     C_R   0.555135 0.587263 0.848602 -0.120001
C10   C     C_R   0.342425 0.832925 0.835024 -0.113285
C11   C     C_R   0.443586 0.025821 0.350153 -0.115599
C12   C     C_R   0.587263 0.555136 0.348602 -0.120002
C13   C     C_R   0.832929 0.342426 0.335024 -0.113286
C14   C     C_R   0.051219 0.451726 0.889191 -0.122963
C15   C     C_R   0.558393 0.136620 0.555162 0.572107
C16   C     C_R   0.547803 0.603401 0.887869 -0.130169
C17   C     C_R   0.332420 0.824018 0.875324 -0.126461
C18   C     C_R   0.451725 0.051217 0.389191 -0.122962
C19   C     C_R   0.603402 0.547804 0.387869 -0.130170
C20   C     C_R   0.824022 0.332421 0.375325 -0.126461
C21   C     C_R   0.077466 0.617479 0.889811 -0.135462
C22   C     C_R   0.384375 0.462494 0.889750 -0.126465
C23   C     C_R   0.487385 0.825812 0.879721 -0.127549
C24   C     C_R   0.617479 0.077466 0.389811 -0.135461
C25   C     C_R   0.462494 0.384376 0.389750 -0.126465
C26   C     C_R   0.863809 0.421740 0.554771 0.586324
C27   C     C_R   0.825808 0.487383 0.379720 -0.127551
C28   C     C_R   0.052284 0.609457 0.850599 -0.120495
C29   C     C_R   0.391883 0.446101 0.850402 -0.115405
C30   C     C_R   0.498034 0.835910 0.839323 -0.114706
C31   C     C_R   0.609457 0.052283 0.350599 -0.120495
C32   C     C_R   0.446100 0.391884 0.350403 -0.115405
C33   C     C_R   0.835907 0.498031 0.339323 -0.114705
C34   C     C_R   0.030893 0.524020 0.830038 0.035984
C35   C     C_R   0.475499 0.511293 0.829144 0.035394
C36   C     C_R   0.426123 0.840718 0.816607 0.036487
C37   C     C_R   0.441792 0.577869 0.054734 0.573213
C38   C     C_R   0.524019 0.030890 0.330039 0.035984
C39   C     C_R   0.511292 0.475500 0.329144 0.035394
C40   C     C_R   0.840719 0.426122 0.316607 0.036487
C41   C     C_R   0.082284 0.540499 0.908749 0.026629
C42   C     C_R   0.460462 0.544208 0.908239 0.025681
C43   C     C_R   0.405427 0.822006 0.898166 0.019334
C44   C     C_R   0.540498 0.082283 0.408749 0.026629
C45   C     C_R   0.544208 0.460462 0.408239 0.025681
C46   C     C_R   0.822006 0.405426 0.398166 0.019334
C47   C     C_R   0.578323 0.442279 0.445406 0.545039
C48   C     C_R   0.136620 0.558393 0.055162 0.572107
C49   C     C_R   0.558132 0.135684 0.445515 0.548609
C50   C     C_R   0.809323 0.392079 0.440701 0.565695
C51   C     C_R   0.442279 0.578323 0.945406 0.545039
C52   C     C_R   0.135684 0.558132 0.945515 0.548609
C53   C     C_R   0.392079 0.809323 0.940701 0.565695
C54   C     C_R   0.922723 0.458176 0.590446 0.036646
C55   C     C_R   0.539700 0.464461 0.590101 0.036569
C56   C     C_R   0.532409 0.070085 0.589211 0.031312
C57   C     C_R   0.458176 0.922722 0.090447 0.036646
C58   C     C_R   0.464461 0.539701 0.090102 0.036572
C59   C     C_R   0.421740 0.863809 0.054771 0.586326
C60   C     C_R   0.070085 0.532408 0.089211 0.031312
C61   C     C_R   0.962374 0.404835 0.608766 0.272594
C62   C     C_R   0.590114 0.557817 0.607522 0.272612
C63   C     C_R   0.436106 0.021946 0.604576 0.271095
C64   C     C_R   0.404837 0.962375 0.108767 0.272593
C65   C     C_R   0.557817 0.590116 0.107522 0.272614
C66   C     C_R   0.021945 0.436105 0.104576 0.271094
C67   C     C_R   0.000699 0.431120 0.646386 -0.100234
C68   C     C_R   0.562459 0.570763 0.644900 -0.099777
C69   C     C_R   0.415936 0.965965 0.638717 -0.097832
C70   C     C_R   0.012137 0.516047 0.708734 0.354313
C71   C     C_R   0.431121 0.000699 0.146387 -0.100234
C72   C     C_R   0.570762 0.562462 0.144900 -0.099782
C73   C     C_R   0.965963 0.415934 0.138717 -0.097832
C74   C     C_R   0.995360 0.506095 0.666506 -0.006519
C75   C     C_R   0.489259 0.491098 0.665674 -0.006763
C76   C     C_R   0.490948 0.961248 0.659095 -0.008607
C77   C     C_R   0.506094 0.995357 0.166507 -0.006518
C78   C     C_R   0.491097 0.489261 0.165675 -0.006762
C79   C     C_R   0.961246 0.490946 0.159095 -0.008608
C80   C     C_R   0.963413 0.563632 0.646929 -0.138973
C81   C     C_R   0.479412 0.499037 0.707852 0.353013
C82   C     C_R   0.434261 0.401101 0.646903 -0.139024
C83   C     C_R   0.585628 0.006407 0.643001 -0.136702
C84   C     C_R   0.563629 0.963406 0.146930 -0.138975
C85   C     C_R   0.401101 0.434262 0.146903 -0.139024
C86   C     C_R   0.006405 0.585626 0.143001 -0.136703
C87   C     C_R   0.928284 0.540386 0.609125 -0.182950
C88   C     C_R   0.458744 0.388233 0.609325 -0.183141
C89   C     C_R   0.605825 0.059387 0.608267 -0.183740
C90   C     C_R   0.540383 0.928277 0.109126 -0.182949
C91   C     C_R   0.388234 0.458744 0.109325 -0.183142
C92   C     C_R   0.471582 0.917387 0.698530 0.350088
C93   C     C_R   0.059386 0.605824 0.108267 -0.183740
C94   C     C_R   0.021932 0.520783 0.787445 0.348474
C95   C     C_R   0.477247 0.505539 0.786552 0.348342
C96   C     C_R   0.440511 0.860232 0.774340 0.350889
C97   C     C_R   0.520781 0.021929 0.287446 0.348475
C98   C     C_R   0.505538 0.477248 0.286552 0.348343
C99   C     C_R   0.860232 0.440508 0.274340 0.350889
C100  C     C_3   0.909065 0.239973 0.609554 -0.100124
C101  C     C_3   0.753646 0.671685 0.607553 -0.100117
C102  C     C_3   0.330219 0.082078 0.607403 -0.100473
Cr1   Cr    Cr6+3 0.522350 0.263930 0.500020 1.028770
Cr2   Cr    Cr6+3 0.736070 0.258420 0.500020 1.029296
Cr3   Cr    Cr6+3 0.741580 0.477650 0.500020 1.031995
Cr4   Cr    Cr6+3 0.263930 0.522350 0.000020 1.028769
Cr5   Cr    Cr6+3 0.258420 0.736070 0.000020 1.029295
Cr6   Cr    Cr6+3 0.477650 0.741580 0.000020 1.031999
H1    H     H_    0.899652 0.583281 0.595442 0.129643
H2    H     H_    0.390681 0.052879 0.403273 0.136877
H3    H     H_    0.666364 0.607998 0.401517 0.134333
H4    H     H_    0.819131 0.267525 0.388642 0.125490
H5    H     H_    0.030596 0.389879 0.660496 0.140007
H6    H     H_    0.601532 0.642123 0.658366 0.140734
H7    H     H_    0.341659 0.928853 0.649891 0.144238
H8    H     H_    0.389883 0.030599 0.160496 0.140007
H9    H     H_    0.642122 0.601535 0.158367 0.140730
H10   H     H_    0.928851 0.341657 0.149890 0.144238
H11   H     H_    0.960239 0.623178 0.661479 0.145280
H12   H     H_    0.418026 0.316432 0.596316 0.129302
H13   H     H_    0.376017 0.338819 0.661962 0.145323
H14   H     H_    0.644960 0.003387 0.657797 0.145676
H15   H     H_    0.623172 0.960229 0.161480 0.145280
H16   H     H_    0.338819 0.376017 0.161962 0.145323
H17   H     H_    0.003385 0.644958 0.157798 0.145676
H18   H     H_    0.007192 0.375858 0.835289 0.140120
H19   H     H_    0.621449 0.637377 0.833112 0.138807
H20   H     H_    0.285400 0.836009 0.818433 0.141153
H21   H     H_    0.375856 0.007188 0.335290 0.140119
H22   H     H_    0.637377 0.621449 0.333112 0.138806
H23   H     H_    0.680018 0.095007 0.597034 0.125961
H24   H     H_    0.836016 0.285401 0.318434 0.141154
H25   H     H_    0.099741 0.686261 0.904464 0.121292
H26   H     H_    0.316351 0.415375 0.904875 0.132602
H27   H     H_    0.543596 0.821645 0.896488 0.136422
H28   H     H_    0.686261 0.099743 0.404464 0.121292
H29   H     H_    0.415374 0.316352 0.404875 0.132602
H30   H     H_    0.821638 0.543592 0.396487 0.136421
H31   H     H_    0.055351 0.672129 0.835946 0.134914
H32   H     H_    0.329893 0.386134 0.836206 0.140076
H33   H     H_    0.562837 0.840648 0.825945 0.139833
H34   H     H_    0.583275 0.899642 0.095444 0.129650
H35   H     H_    0.672128 0.055351 0.335946 0.134914
H36   H     H_    0.386132 0.329895 0.336207 0.140075
H37   H     H_    0.840641 0.562832 0.325944 0.139834
H38   H     H_    0.837835 0.231185 0.620045 0.105873
H39   H     H_    0.951121 0.233394 0.634198 0.116710
H40   H     H_    0.892131 0.178601 0.589390 0.145156
H41   H     H_    0.765260 0.611494 0.618860 0.106948
H42   H     H_    0.758037 0.720812 0.631595 0.116875
H43   H     H_    0.814577 0.715727 0.587063 0.145212
H44   H     H_    0.393232 0.153100 0.616829 0.109141
H45   H     H_    0.316433 0.418025 0.096316 0.129301
H46   H     H_    0.286161 0.039907 0.633023 0.113850
H47   H     H_    0.282614 0.099268 0.588991 0.145019
H48   H     H_    0.233398 0.951126 0.134197 0.116708
H49   H     H_    0.231185 0.837838 0.120043 0.105874
H50   H     H_    0.178606 0.892141 0.089388 0.145156
H51   H     H_    0.720843 0.758032 0.131590 0.116885
H52   H     H_    0.611517 0.765261 0.118874 0.106939
H53   H     H_    0.715727 0.814580 0.087065 0.145212
H54   H     H_    0.039906 0.286159 0.133022 0.113850
H55   H     H_    0.153099 0.393231 0.116828 0.109142
H56   H     H_    0.095006 0.680017 0.097034 0.125960
H57   H     H_    0.099268 0.282613 0.088990 0.145019
H58   H     H_    0.052881 0.390682 0.903273 0.136877
H59   H     H_    0.607998 0.666363 0.901517 0.134333
H60   H     H_    0.267523 0.819124 0.888641 0.125489
N1    N     N_R   0.024520 0.447851 0.767323 -0.225364
N2    N     N_R   0.445335 0.019361 0.228793 -0.229657
N3    N     N_R   0.578487 0.547914 0.227178 -0.227055
N4    N     N_R   0.882691 0.381773 0.215079 -0.226939
N5    N     N_R   0.010275 0.589611 0.728803 -0.219148
N6    N     N_R   0.409227 0.422982 0.728649 -0.222430
N7    N     N_R   0.545075 0.920519 0.720422 -0.221369
N8    N     N_R   0.589610 0.010273 0.228804 -0.219148
N9    N     N_R   0.422978 0.409232 0.228649 -0.222431
N10   N     N_R   0.920506 0.545069 0.220420 -0.221368
N11   N     N_R   0.015834 0.592350 0.767443 -0.225136
N12   N     N_R   0.546631 0.581837 0.765724 -0.225260
N13   N     N_R   0.407718 0.426476 0.767286 -0.224948
N14   N     N_R   0.529796 0.892338 0.757571 -0.220596
N15   N     N_R   0.592349 0.015832 0.267444 -0.225137
N16   N     N_R   0.426473 0.407722 0.267287 -0.224948
N17   N     N_R   0.892326 0.529790 0.257570 -0.220595
N18   N     N_R   0.366564 0.854746 0.752159 -0.219804
N19   N     N_R   0.447849 0.024516 0.267324 -0.225365
N20   N     N_R   0.581838 0.546628 0.265724 -0.225260
N21   N     N_R   0.854757 0.366564 0.252160 -0.219805
N22   N     N_R   0.019365 0.445337 0.728792 -0.229657
N23   N     N_R   0.547916 0.578487 0.727178 -0.227056
N24   N     N_R   0.381774 0.882681 0.715078 -0.226938
O1    O     O_R   0.498680 0.159540 0.541860 -0.461522
O2    O     O_R   0.358060 0.532760 0.040030 -0.520222
O3    O     O_R   0.174700 0.641940 0.040030 -0.519629
O4    O     O_R   0.467240 0.825300 0.040030 -0.516221
O5    O     O_R   0.498590 0.161190 0.456930 -0.515008
O6    O     O_R   0.838810 0.337400 0.456930 -0.504828
O7    O     O_R   0.662600 0.501410 0.456930 -0.530671
O8    O     O_R   0.161190 0.498590 0.956930 -0.515008
O9    O     O_R   0.337400 0.838810 0.956930 -0.504827
O10   O     O_R   0.501410 0.662600 0.956930 -0.530671
O11   O     O_R   0.532680 0.359580 0.461300 -0.505634
O12   O     O_R   0.840460 0.339140 0.541860 -0.459306
O13   O     O_R   0.640420 0.173100 0.461300 -0.525108
O14   O     O_R   0.826900 0.467320 0.461300 -0.495184
O15   O     O_R   0.359580 0.532680 0.961300 -0.505635
O16   O     O_R   0.173100 0.640420 0.961300 -0.525108
O17   O     O_R   0.467320 0.826900 0.961300 -0.495185
O18   O     O_3   0.666667 0.333333 0.499990 -0.283079
O19   O     O_3   0.333333 0.666667 0.999990 -0.283080
O20   O     O_3   0.965481 0.329075 0.589286 -0.537831
O21   O     O_3   0.664240 0.636077 0.587377 -0.540399
O22   O     O_3   0.360900 0.026238 0.585281 -0.539999
O23   O     O_R   0.660860 0.501320 0.541860 -0.463487
O24   O     O_3   0.329079 0.965486 0.089285 -0.537831
O25   O     O_3   0.636076 0.664242 0.087377 -0.540397
O26   O     O_3   0.026237 0.360900 0.085280 -0.539999
O27   O     O_R   0.159540 0.498680 0.041860 -0.461522
O28   O     O_R   0.339140 0.840460 0.041860 -0.459308
O29   O     O_R   0.501320 0.660860 0.041860 -0.463479
O30   O     O_R   0.532760 0.358060 0.540030 -0.520220
O31   O     O_R   0.641940 0.174700 0.540030 -0.519629
O32   O     O_R   0.825300 0.467240 0.540030 -0.516223

loop_
_geom_bond_atom_site_label_1
_geom_bond_atom_site_label_2
_ccdc_geom_bond_type
C44   C49   S    
N8    N15   A    
C11   C18   A    
Cr3   O23   S    
C22   C29   A    
C25   C45   A    
C13   H24   S    
C25   H29   S    
Cr2   O18   S    
C40   C99   S    
Cr5   O3    S    
Cr6   O17   S    
C85   C91   A    
C96   N14   A    
Cr3   O14   S    
Cr4   O2    S    
C49   O5    A    
C27   C33   A    
C68   C75   A    
C70   N22   A    
C53   O17   A    
C9    H19   S    
C30   H33   S    
C12   H22   S    
N3    N20   A    
C69   C76   A    
Cr2   O12   S    
Cr4   O8    S    
C9    C16   A    
C91   H45   S    
C80   C87   A    
C59   O28   A    
Cr1   O30   S    
C54   C87   A    
C81   N6    A    
C51   O15   A    
C6    C78   S    
C4    H51   S    
Cr5   O19   S    
N5    N11   A    
C16   H59   S    
C55   C62   A    
C26   C54   S    
C101  H42   S    
C23   C43   A    
N6    N13   A    
C85   H16   S    
Cr1   O5    S    
C64   C71   A    
C55   C88   A    
C36   C96   S    
C81   N23   A    
C13   C40   A    
C72   C78   A    
C2    N8    A    
C20   H4    S    
N10   N17   A    
C102  O22   S    
C98   N16   A    
C63   C69   A    
C5    H54   S    
C100  H38   S    
N2    N19   A    
C1    O23   A    
C3    H50   S    
Cr6   O10   S    
C6    N9    A    
C97   N15   A    
C52   O8    A    
C5    H57   S    
C14   H58   S    
C58   C91   A    
C102  H46   S    
Cr2   O31   S    
C37   C58   S    
C51   O10   A    
C42   C51   S    
C60   C93   A    
C24   H28   S    
C25   C32   A    
Cr4   O27   S    
C80   H11   S    
C28   C34   A    
C92   N7    A    
C74   C80   A    
C7    N4    A    
C34   C94   S    
C86   H17   S    
C31   H35   S    
C47   O7    A    
Cr6   O4    S    
C28   H31   S    
C84   C90   A    
N1    N22   A    
C38   C97   S    
C10   H20   S    
C11   H21   S    
C76   C83   A    
C21   H25   S    
C43   C53   S    
C48   C60   S    
C6    N3    A    
C45   C47   S    
C15   O31   A    
C50   O6    A    
C83   C89   A    
C27   H30   S    
C57   C90   A    
C9    C35   A    
C33   C40   A    
C23   C30   A    
C96   N18   A    
C93   H56   S    
C101  O21   S    
Cr4   O15   S    
C99   N21   A    
C75   C81   S    
C39   C98   S    
C77   C84   A    
C3    O24   S    
C66   C73   A    
C100  O20   S    
C53   O9    A    
Cr3   O18   S    
C7    N10   A    
C1    O30   A    
C84   H15   S    
C61   O20   S    
C72   H9    S    
C11   C38   A    
C26   O12   A    
C30   C36   A    
C5    H55   S    
C70   C74   S    
C86   C93   A    
C18   C44   A    
C61   C67   A    
C58   C65   A    
C5    O26   S    
C73   C79   A    
C56   C63   A    
C47   O11   A    
C67   C74   A    
C8    C34   A    
Cr2   O13   S    
Cr5   O16   S    
C90   H34   S    
C33   H37   S    
C76   C92   S    
N7    N14   A    
C21   C41   A    
C50   O14   A    
C78   C85   A    
C8    H18   S    
C56   C89   A    
C21   C28   A    
C22   H26   S    
C19   H3    S    
C14   C41   A    
C48   O3    A    
C26   O32   A    
C24   C44   A    
C62   O21   S    
C88   H12   S    
N9    N16   A    
C16   C42   A    
C71   C77   A    
Cr6   O19   S    
C27   C46   A    
C57   C64   A    
C7    C79   S    
C97   N19   A    
C29   H32   S    
C29   C35   A    
C69   H7    S    
C8    C14   A    
C73   H10   S    
C41   C52   S    
C13   C20   A    
C2    N2    A    
Cr2   O6    S    
C64   O24   S    
Cr3   O32   S    
C95   N13   A    
C18   H2    S    
C49   O13   A    
C17   H60   S    
C3    H49   S    
C100  H39   S    
C19   C45   A    
C75   C82   A    
Cr5   O9    S    
C87   H1    S    
C54   C61   A    
C23   H27   S    
C59   O4    A    
C65   C72   A    
Cr1   O1    S    
N12   N23   A    
C46   C50   S    
C89   H23   S    
C31   C38   A    
C62   C68   A    
C63   O22   S    
N4    N21   A    
C15   C56   S    
C12   C39   A    
C67   H5    S    
C24   C31   A    
C37   O29   A    
C94   N1    A    
C2    C77   S    
C37   O2    A    
C65   O25   S    
Cr6   O29   S    
C68   H6    S    
C4    H52   S    
C100  H40   S    
C82   C88   A    
Cr4   O19   S    
C12   C19   A    
C101  H41   S    
C3    H48   S    
C99   N17   A    
C101  H43   S    
C71   H8    S    
C1    C55   S    
C94   N11   A    
C4    H53   S    
C83   H14   S    
N18   N24   A    
C70   N5    A    
Cr1   O11   S    
C32   H36   S    
C57   C59   S    
C60   C66   A    
Cr5   O28   S    
C15   O1    A    
Cr1   O18   S    
C95   N12   A    
Cr3   O7    S    
C66   O26   S    
C4    O25   S    
C22   C42   A    
C17   C43   A    
C32   C39   A    
C82   H13   S    
C10   C36   A    
C10   C17   A    
C98   N20   A    
C102  H47   S    
C79   C86   A    
C20   C46   A    
C92   N24   A    
C102  H44   S    
C35   C95   S    
C48   O27   A    
C52   O16   A    
