data_mof_unit_36975.cif
_audit_creation_date              2013-03-05T16:44:18-0500
_audit_creation_method            fapswitch 2.2
_symmetry_space_group_name_H-M    P1
_symmetry_Int_Tables_number       1
_space_group_crystal_system       triclinic
_cell_length_a                    23.195241
_cell_length_b                    10.678942
_cell_length_c                    9.89995
_cell_angle_alpha                 89.928167
_cell_angle_beta                  88.596793
_cell_angle_gamma                 89.630796
_cell_volume                      2451.43614419

loop_
_atom_site_label
_atom_site_type_symbol
_atom_site_description
_atom_site_fract_x
_atom_site_fract_y
_atom_site_fract_z
_atom_type_partial_charge
O1    O     O_R   0.500010 0.316790 0.614690 -0.609867
O2    O     O_R   0.500000 0.316760 0.385350 -0.616593
C1    C     C_R   0.503511 0.260067 0.499241 0.876927
O3    O     O_R   0.416160 0.499980 0.614700 -0.615494
O4    O     O_R   0.416150 0.499940 0.385360 -0.598842
C2    C     C_R   0.389450 0.501833 0.501162 0.876184
Zn1   Zn    Zn3+2 0.500000 0.500020 0.653130 0.953960
Zn2   Zn    Zn3+2 0.500000 0.499980 0.346870 0.991245
O5    O     O_R   0.500000 0.683240 0.614650 -0.610474
O6    O     O_R   0.499990 0.683210 0.385310 -0.615083
O7    O     O_R   0.583850 0.500060 0.614640 -0.633075
O8    O     O_R   0.583840 0.500020 0.385300 -0.625111
C3    C     C_R   0.501613 0.739766 0.499890 0.927357
C4    C     C_R   0.610999 0.501543 0.498194 0.857154
C5    C     C_R   0.878481 0.656965 0.414526 0.627816
N1    N     N_R   0.853954 0.540946 0.410044 -0.301799
C6    C     C_R   0.886113 0.436206 0.381541 0.620381
C7    C     C_R   0.944860 0.446250 0.346361 -0.191423
C8    C     C_R   0.972212 0.560582 0.375155 0.010067
C9    C     C_R   0.939099 0.669439 0.406244 -0.180198
C10   C     C_R   0.977562 0.343642 0.293926 -0.087831
C11   C     C_R   0.038126 0.348786 0.294080 0.474838
C12   C     C_R   0.065861 0.458178 0.339475 -0.148707
C13   C     C_R   0.032677 0.564059 0.378961 -0.079874
C14   C     C_R   0.060003 0.671779 0.427962 -0.156842
C15   C     C_R   0.028176 0.784379 0.445151 0.493559
C16   C     C_R   0.967858 0.784078 0.432832 -0.114959
C17   C     C_R   0.126117 0.466210 0.347032 0.525436
N2    N     N_R   0.150082 0.560150 0.419911 -0.353532
C18   C     C_R   0.118155 0.661065 0.462854 0.538788
O9    O     O_2   0.843996 0.758011 0.431775 -0.531333
O10   O     O_2   0.861751 0.322275 0.395042 -0.520850
O11   O     O_2   0.160767 0.380444 0.285759 -0.456103
O12   O     O_2   0.142346 0.748244 0.541714 -0.464337
C19   C     C_R   0.249217 0.641618 0.405867 0.544170
C20   C     C_R   0.306692 0.633047 0.440611 0.364633
C21   C     C_R   0.327479 0.521855 0.500595 -0.410055
C22   C     C_R   0.288950 0.426555 0.542641 0.456642
C23   C     C_R   0.229298 0.447040 0.530597 -0.073786
C24   C     C_R   0.209837 0.550371 0.453484 -0.082288
C25   C     C_R   0.758879 0.465601 0.345078 0.448713
C26   C     C_R   0.701993 0.434487 0.382988 -0.150871
C27   C     C_R   0.674434 0.502241 0.489703 -0.298585
C28   C     C_R   0.707580 0.579137 0.574959 -0.177894
C29   C     C_R   0.768351 0.574687 0.558946 0.466715
C30   C     C_R   0.793065 0.527978 0.437872 0.141329
C31   C     C_R   0.512476 0.063711 0.619766 0.024804
C32   C     C_R   0.515075 0.128456 0.497399 -0.206009
C33   C     C_R   0.527231 0.061525 0.375584 0.431404
C34   C     C_R   0.524043 0.932403 0.378222 -0.169693
H1    H     H_    0.529279 0.881554 0.283964 0.205065
C35   C     C_R   0.510973 0.870695 0.499645 -0.158332
C36   C     C_R   0.510649 0.936067 0.620926 0.087763
C37   C     C_3   0.469112 0.932629 0.738931 0.269367
C38   C     C_3   0.470681 0.074721 0.736944 -0.467206
H2    H     H_    0.487504 0.888255 0.830347 0.122754
H3    H     H_    0.429254 0.119147 0.708244 0.222780
H4    H     H_    0.490874 0.115195 0.827593 0.188983
C39   C     C_R   0.455960 0.446128 0.073515 0.057658
N3    N     N_R   0.499610 0.499140 0.142800 -0.133772
C40   C     C_R   0.544793 0.549595 0.067624 0.493248
C41   C     C_R   0.544981 0.546785 0.924596 -0.086416
H5    H     H_    0.580311 0.588740 0.868114 0.158270
N4    N     N_R   0.499610 0.499180 0.857150 -0.133001
C42   C     C_R   0.456736 0.442325 0.931249 0.042464
C43   C     C_3   0.393646 0.471655 0.925265 -0.337209
C44   C     C_3   0.392958 0.481714 0.080254 -0.180924
H6    H     H_    0.385313 0.561274 0.871247 0.192684
C45   C     C_2   0.948855 0.234309 0.231104 0.605841
H7    H     H_    0.907162 0.246099 0.185230 0.107188
O13   O     O_2   0.971233 0.130510 0.228949 -0.511245
C46   C     C_2   0.673232 0.324037 0.322314 0.537634
H8    H     H_    0.632495 0.292205 0.364521 0.021402
O14   O     O_2   0.695893 0.262305 0.231672 -0.523030
C47   C     C_2   0.679637 0.673549 0.667511 0.457469
H9    H     H_    0.633351 0.680177 0.679643 0.071156
O15   O     O_2   0.707908 0.751831 0.725961 -0.502667
O16   O     O_3   0.804614 0.618583 0.656455 -0.676118
H10   H     H_    0.785700 0.604836 0.746035 0.371493
O17   O     O_3   0.536905 0.116860 0.251408 -0.733903
H11   H     H_    0.563087 0.188106 0.264071 0.348196
O18   O     O_3   0.415241 0.885768 0.703335 -0.714803
H12   H     H_    0.391242 0.886499 0.787654 0.357526
O19   O     O_3   0.589331 0.610804 0.127307 -0.756983
H13   H     H_    0.573704 0.648347 0.211505 0.372486
O20   O     O_3   0.069216 0.244533 0.253597 -0.629763
H14   H     H_    0.092329 0.218608 0.331972 0.374059
C48   C     C_2   0.359749 0.364574 0.869978 0.549957
H15   H     H_    0.381315 0.280211 0.834075 0.048679
O21   O     O_2   0.307255 0.371619 0.867325 -0.454254
C49   C     C_2   0.379307 0.614560 0.125086 0.529534
H16   H     H_    0.334742 0.646210 0.128468 0.131887
O22   O     O_2   0.417120 0.688096 0.154264 -0.539259
C50   C     C_2   0.357624 0.385305 0.157320 0.453104
H17   H     H_    0.378227 0.302579 0.198673 0.094132
O23   O     O_2   0.305510 0.398398 0.172230 -0.503941
O24   O     O_3   0.055083 0.897663 0.465421 -0.647562
H18   H     H_    0.091359 0.898261 0.410390 0.372705
C51   C     C_2   0.936758 0.905909 0.444156 0.686147
H19   H     H_    0.904158 0.930891 0.372055 0.103370
O25   O     O_2   0.947943 0.980430 0.533094 -0.463307
O26   O     O_3   0.233182 0.741248 0.325501 -0.659040
H20   H     H_    0.196967 0.720809 0.279859 0.339896
O27   O     O_3   0.341987 0.732665 0.406410 -0.651253
H21   H     H_    0.377200 0.729177 0.460731 0.357186
O28   O     O_3   0.307664 0.311733 0.590531 -0.654746
H22   H     H_    0.349902 0.302728 0.578503 0.313669
C52   C     C_2   0.186600 0.361073 0.596726 0.644303
H23   H     H_    0.141199 0.385978 0.601339 0.010699
O29   O     O_2   0.201206 0.262586 0.648887 -0.424843
O30   O     O_3   0.782968 0.433307 0.220975 -0.703580
H24   H     H_    0.752033 0.435501 0.153711 0.375787

loop_
_geom_bond_atom_site_label_1
_geom_bond_atom_site_label_2
_geom_bond_distance
_ccdc_geom_bond_type
C43   H6    1.113842 S    
C7    C10   1.420178 A    
C25   C26   1.404764 A    
C8    C9    1.419077 A    
C47   H9    1.079276 S    
C19   O26   1.382240 S    
O24   H18   0.991190 S    
C36   C37   1.496532 S    
C35   C36   1.389469 A    
Zn1   O7    1.972721 S    
C16   C51   1.486590 S    
C15   C16   1.407383 A    
C21   C22   1.414246 A    
C17   N2    1.365498 A    
O2    C1    1.283201 A    
C45   H7    1.084942 S    
C43   C48   1.503201 S    
O4    C2    1.289726 A    
O7    C4    1.300123 A    
O28   H22   0.988108 S    
C5    N1    1.367886 A    
C1    C32   1.429188 S    
C52   H23   1.084391 S    
C7    C8    1.412152 A    
C45   O13   1.220941 D    
O5    C3    1.285705 A    
C41   N4    1.361604 A    
C39   C44   1.507487 S    
C19   C20   1.387367 A    
N1    C6    1.366343 A    
C44   C50   1.513950 S    
C34   C35   1.397823 A    
C25   C30   1.400156 A    
C29   O16   1.380261 S    
N2    C18   1.366006 A    
C31   C36   1.364061 A    
C43   C44   1.537959 S    
C39   N3    1.363247 A    
C10   C11   1.406276 A    
O26   H20   0.989266 S    
O3    Zn1   1.990680 S    
C26   C46   1.492849 S    
O27   H21   0.989347 S    
C34   H1    1.084089 S    
C23   C52   1.493557 S    
C37   H2    1.113926 S    
C18   O12   1.349475 S    
C13   C14   1.409321 A    
O3    C2    1.296747 A    
N1    C30   1.439828 S    
C49   H16   1.085215 S    
O16   H10   0.990935 S    
O17   H11   0.986571 S    
C15   O24   1.381945 S    
C14   C15   1.415192 A    
C29   C30   1.406520 A    
O6    C3    1.287243 A    
C10   C45   1.491814 S    
C5    C9    1.413584 A    
O1    C1    1.294754 A    
C22   O28   1.385093 S    
C28   C47   1.496970 S    
C27   C28   1.421075 A    
C41   H5    1.080115 S    
C49   O22   1.221167 D    
C3    C35   1.416308 S    
C31   C32   1.394301 A    
Zn2   O8    1.990678 S    
C44   C49   1.516151 S    
C6    C7    1.402913 A    
C2    C21   1.452029 S    
C50   H17   1.086118 S    
C12   C17   1.404653 A    
O19   H13   0.985449 S    
C50   O23   1.221338 D    
C47   O15   1.220882 D    
C46   O14   1.220662 D    
C32   C33   1.423954 A    
C51   O25   1.221258 D    
C48   O21   1.220360 D    
C17   O11   1.349377 S    
O18   H12   0.991945 S    
C38   H3    1.111906 S    
C26   C27   1.418151 A    
C37   O18   1.402150 S    
C28   C29   1.415121 A    
O20   H14   0.991975 S    
C31   C38   1.497713 S    
C14   C18   1.404474 A    
Zn1   O5    1.992869 S    
C37   C38   1.518151 S    
C20   C21   1.414191 A    
O30   H24   0.990948 S    
O1    Zn1   1.993831 S    
O2    Zn2   1.992866 S    
O8    C4    1.296500 A    
C46   H8    1.080491 S    
C40   O19   1.372298 S    
O4    Zn2   1.972722 S    
C5    O9    1.347586 S    
C9    C16   1.425805 A    
C33   O17   1.377385 S    
C20   O27   1.383220 S    
N4    C42   1.366263 A    
C8    C13   1.404657 A    
C42   C43   1.497141 S    
C51   H19   1.084349 S    
C39   C42   1.408739 A    
C22   C23   1.407356 A    
N2    C24   1.436338 S    
C52   O29   1.220730 D    
C19   C24   1.412561 A    
C11   O20   1.377211 S    
C40   C41   1.416226 A    
Zn1   N4    2.019595 S    
C12   C13   1.413826 A    
C23   C24   1.418637 A    
C48   H15   1.083732 S    
Zn2   O6    1.993833 S    
C33   C34   1.381522 A    
C25   O30   1.380424 S    
C38   H4    1.111628 S    
C6    O10   1.349894 S    
C11   C12   1.416215 A    
N3    C40   1.382253 A    
Zn2   N3    2.020556 S    
C4    C27   1.471792 S    
