data_mof_unit_19034.cif
_audit_creation_date              2012-12-11T15:24:36-0500
_audit_creation_method            fapswitch 2.2
_symmetry_space_group_name_H-M    P1
_symmetry_Int_Tables_number       1
_space_group_crystal_system       triclinic
_cell_length_a                    23.037266
_cell_length_b                    6.963664
_cell_length_c                    20.678769
_cell_angle_alpha                 89.984373
_cell_angle_beta                  93.232125
_cell_angle_gamma                 89.979724
_cell_volume                      3312.0890318

loop_
_atom_site_label
_atom_site_type_symbol
_atom_type_description
_atom_site_fract_x
_atom_site_fract_y
_atom_site_fract_z
_atom_type_partial_charge
O1    O     O_R   0.188030 0.379840 0.189340 -0.548536
O2    O     O_R   0.811970 0.620160 0.810660 -0.549705
O3    O     O_R   0.311970 0.879840 0.310660 -0.546033
O4    O     O_R   0.688030 0.120160 0.689340 -0.549740
O5    O     O_R   0.307090 0.708420 0.185790 -0.528028
O6    O     O_R   0.692910 0.291580 0.814210 -0.525925
O7    O     O_R   0.192910 0.208420 0.314210 -0.526720
O8    O     O_R   0.807090 0.791580 0.685790 -0.526254
C1    C     C_R   0.326769 0.541346 0.170860 0.756044
C2    C     C_R   0.673330 0.458673 0.829268 0.740837
C3    C     C_R   0.173219 0.041366 0.329126 0.745111
C4    C     C_R   0.826681 0.958658 0.670748 0.741686
O9    O     O_R   0.188180 0.709480 0.181650 -0.524569
O10   O     O_R   0.811820 0.290520 0.818350 -0.525682
O11   O     O_R   0.311820 0.209480 0.318350 -0.515575
O12   O     O_R   0.688180 0.790520 0.681650 -0.527855
O13   O     O_R   0.192210 0.880960 0.306500 -0.544448
O14   O     O_R   0.807790 0.119040 0.693500 -0.539916
O15   O     O_R   0.307790 0.380960 0.193500 -0.542179
O16   O     O_R   0.692210 0.619040 0.806500 -0.539940
C5    C     C_R   0.168690 0.540569 0.164443 0.766684
C6    C     C_R   0.830663 0.459659 0.836629 0.740373
C7    C     C_R   0.331271 0.040431 0.335521 0.769768
C8    C     C_R   0.669373 0.959729 0.663379 0.738612
O17   O     O_3   0.251460 0.546730 0.290970 -0.365141
O18   O     O_3   0.748540 0.453270 0.709030 -0.367460
O19   O     O_3   0.248540 0.046730 0.209030 -0.370405
O20   O     O_3   0.751460 0.953270 0.790970 -0.365984
V1    V     V_3+5 0.249730 0.821120 0.242400 1.580098
V2    V     V_3+5 0.750270 0.178880 0.757600 1.570671
V3    V     V_3+5 0.250270 0.321120 0.257600 1.595642
V4    V     V_3+5 0.749730 0.678880 0.742400 1.568245
C9    C     C_R   0.581855 0.118396 0.613473 -0.176573
C10   C     C_R   0.426749 0.908662 0.373127 -0.117099
C11   C     C_R   0.917772 0.619755 0.886937 -0.176960
C12   C     C_R   0.072805 0.409818 0.127452 -0.132399
C13   C     C_R   0.623282 0.973090 0.609621 -0.119644
C14   C     C_R   0.380414 0.030534 0.384999 -0.100809
C15   C     C_R   0.876669 0.473285 0.890536 -0.116549
C16   C     C_R   0.119047 0.531957 0.115418 -0.118216
C17   C     C_R   0.620294 0.847446 0.555450 -0.016323
C18   C     C_R   0.382617 0.141219 0.442458 -0.013602
C19   C     C_R   0.879663 0.348050 0.944868 -0.015993
C20   C     C_R   0.115968 0.646721 0.058815 -0.031061
C21   C     C_R   0.574918 0.870715 0.505369 0.039175
C22   C     C_R   0.436756 0.158480 0.479225 0.028544
C23   C     C_R   0.924205 0.374494 0.995661 0.033087
C24   C     C_R   0.061527 0.664995 0.022656 0.005425
C25   C     C_R   0.530855 0.011307 0.513741 0.024478
C26   C     C_R   0.481195 0.020813 0.469951 0.009472
C27   C     C_R   0.967821 0.516684 0.987776 0.028342
C28   C     C_R   0.016952 0.528449 0.032292 0.013007
C29   C     C_R   0.536124 0.142146 0.566214 0.083906
C30   C     C_R   0.475347 0.891385 0.417249 0.124971
C31   C     C_R   0.962898 0.645868 0.934786 0.080420
C32   C     C_R   0.022283 0.401663 0.085760 0.116931
C33   C     C_R   0.571454 0.757959 0.447383 -0.147728
C34   C     C_R   0.447894 0.309359 0.524656 -0.115886
C35   C     C_R   0.926612 0.265695 0.054489 -0.165305
C36   C     C_R   0.050204 0.815902 0.977290 -0.120692
C37   C     C_R   0.519963 0.757026 0.406808 -0.052543
C38   C     C_R   0.495782 0.295485 0.570346 -0.072811
C39   C     C_R   0.976448 0.273265 0.097621 -0.068163
C40   C     C_R   0.002880 0.800310 0.930939 -0.069792
H1    H     H_    0.584570 0.208758 0.656019 0.166830
H2    H     H_    0.424197 0.827490 0.328479 0.149901
H3    H     H_    0.915243 0.709372 0.844201 0.168207
H4    H     H_    0.077681 0.317959 0.169522 0.155477
C41   C     C_3   0.043986 0.098380 0.528492 0.338670
C42   C     C_3   0.955447 0.901737 0.470797 0.333484
C43   C     C_3   0.456061 0.598515 0.971533 0.338523
C44   C     C_3   0.544562 0.401481 0.029273 0.337056
C45   C     C_3   0.020281 0.905033 0.552504 0.355501
C46   C     C_3   0.979161 0.095085 0.446777 0.353765
C47   C     C_3   0.479782 0.405189 0.947513 0.354363
C48   C     C_3   0.520827 0.594804 0.053308 0.353831
C49   C     C_1   0.872050 0.964724 0.624980 -0.096696
C50   C     C_1   0.127670 0.035348 0.374669 -0.090286
C51   C     C_1   0.627986 0.464759 0.875070 -0.097083
C52   C     C_1   0.372308 0.535282 0.125310 -0.099041
C53   C     C_3   0.980943 0.172793 0.516973 -0.249564
C54   C     C_3   0.018494 0.827323 0.482310 -0.247621
C55   C     C_3   0.519097 0.672757 0.983125 -0.244338
C56   C     C_3   0.481521 0.327244 0.017689 -0.246114
C57   C     C_3   0.957309 0.979796 0.540933 -0.148057
C58   C     C_3   0.042133 0.020323 0.458359 -0.150208
C59   C     C_3   0.542748 0.479779 0.959150 -0.148347
C60   C     C_3   0.457863 0.520217 0.041647 -0.147124
C61   C     C_1   0.910338 0.968556 0.586989 0.185486
C62   C     C_1   0.089226 0.031551 0.412462 0.188517
C63   C     C_1   0.589717 0.468576 0.913086 0.185275
C64   C     C_1   0.410751 0.531452 0.087519 0.181310
C65   C     C_2   0.661609 0.683938 0.554568 0.526792
H5    H     H_    0.645271 0.538704 0.547796 0.040561
O21   O     O_2   0.714056 0.711201 0.558932 -0.487914
C66   C     C_2   0.327733 0.206927 0.471216 0.483140
H6    H     H_    0.328881 0.259267 0.520634 0.065270
O22   O     O_2   0.280292 0.195042 0.442157 -0.516118
C67   C     C_2   0.839253 0.182086 0.945596 0.520185
H7    H     H_    0.856354 0.038294 0.953774 0.037724
O23   O     O_2   0.786677 0.205849 0.939995 -0.487665
C68   C     C_2   0.170471 0.714733 0.029709 0.492380
H8    H     H_    0.168721 0.771701 0.980859 0.070260
O24   O     O_2   0.218302 0.699257 0.057691 -0.516989
C69   C     C_2   0.622359 0.652397 0.424273 0.425409
H9    H     H_    0.618397 0.502431 0.410434 0.059657
O25   O     O_2   0.668342 0.735534 0.417855 -0.439565
C70   C     C_2   0.415499 0.495398 0.518681 0.370125
H10   H     H_    0.410581 0.586903 0.560372 0.052857
O26   O     O_2   0.395601 0.552118 0.466124 -0.502405
C71   C     C_2   0.874740 0.165091 0.077532 0.478021
H11   H     H_    0.877870 0.017072 0.093735 0.046837
O27   O     O_2   0.828767 0.250678 0.081209 -0.437432
C72   C     C_2   0.081490 0.003634 0.984336 0.328911
H12   H     H_    0.085607 0.098380 0.943294 0.070401
O28   O     O_2   0.101278 0.058092 0.037201 -0.531145
C73   C     C_2   0.513948 0.614985 0.352871 0.373968
H13   H     H_    0.549147 0.593754 0.320888 0.103155
O29   O     O_2   0.470573 0.514771 0.345646 -0.506671
C74   C     C_2   0.503805 0.446759 0.620980 0.317537
H14   H     H_    0.467477 0.489344 0.648924 0.092359
O30   O     O_2   0.550233 0.529476 0.630157 -0.552771
C75   C     C_2   0.978585 0.149459 0.156467 0.441358
H15   H     H_    0.970579 0.996412 0.151756 0.049375
O31   O     O_2   0.986296 0.219000 0.210465 -0.476518
C76   C     C_2   0.995322 0.950235 0.879754 0.317044
H16   H     H_    0.032191 0.994243 0.852907 0.093428
O32   O     O_2   0.948681 0.030470 0.868919 -0.553476
Cl1   Cl    Cl    0.048109 0.781150 0.623031 -0.504478
Cl2   Cl    Cl    0.951312 0.218970 0.376262 -0.428958
Cl3   Cl    Cl    0.452012 0.281556 0.876946 -0.505451
Cl4   Cl    Cl    0.548534 0.718244 0.123953 -0.493145
Cl5   Cl    Cl    0.102901 0.226999 0.567531 -0.429727
Cl6   Cl    Cl    0.896533 0.773151 0.431736 -0.380947
Cl7   Cl    Cl    0.397170 0.727361 0.932456 -0.429207
Cl8   Cl    Cl    0.603464 0.272683 0.068353 -0.388193
C77   C     C_2   0.041103 0.637892 0.460787 0.507414
H17   H     H_    0.013209 0.542720 0.431733 0.105819
O33   O     O_2   0.091519 0.592809 0.474153 -0.461274
C78   C     C_2   0.958317 0.362233 0.538465 0.503460
H18   H     H_    0.986207 0.457491 0.567488 0.105429
O34   O     O_2   0.907895 0.407243 0.525096 -0.456451
C79   C     C_2   0.458885 0.137827 0.039172 0.504185
H19   H     H_    0.486757 0.042478 0.068227 0.104063
O35   O     O_2   0.408468 0.092951 0.025772 -0.460938
C80   C     C_2   0.541754 0.862176 0.961674 0.506555
H20   H     H_    0.513896 0.957584 0.932627 0.104231
O36   O     O_2   0.592173 0.906989 0.975094 -0.455476

loop_
_geom_bond_atom_site_label_1
_geom_bond_atom_site_label_2
_ccdc_geom_bond_type
C34   C38   A    
C53   C78   S    
C33   C69   S    
O1    C5    A    
C65   H5    S    
C59   C63   S    
C39   C75   S    
O19   V1    S    
O13   V1    S    
C69   H9    S    
O3    C7    A    
C71   H11   S    
C44   C48   S    
O4    V2    S    
O15   V3    S    
C10   H2    S    
C72   H12   S    
C9    H1    S    
C75   H15   S    
C27   C31   A    
C50   C62   T    
O7    C3    A    
C69   O25   D    
C49   C61   T    
O5    C1    A    
C26   C30   A    
C18   C66   S    
O9    V1    S    
C78   O34   D    
C14   C18   A    
C54   C77   S    
C73   O29   D    
C43   Cl7   S    
O4    C8    A    
C47   C56   S    
C44   Cl8   S    
C79   H19   S    
O1    V3    S    
C70   H10   S    
O2    V4    S    
C18   C22   A    
O3    V1    S    
C12   C16   A    
C36   C72   S    
C1    O15   A    
C43   C55   S    
C17   C65   S    
C60   C64   S    
C2    O16   A    
C66   O22   D    
O2    C6    A    
C76   O32   D    
C41   C45   S    
O14   V2    S    
C21   C25   A    
C48   C60   S    
C38   C74   S    
O11   C7    A    
C65   O21   D    
C4    C49   S    
O17   V1    S    
O10   V2    S    
C48   C55   S    
C47   Cl3   S    
C24   C36   A    
C80   O36   D    
C9    C29   A    
C45   Cl1   S    
O7    V3    S    
C37   C73   S    
C27   C28   A    
O8    V4    S    
O20   V4    S    
C41   C53   S    
C78   H18   S    
C58   C62   S    
C57   C61   S    
O18   V4    S    
C15   C19   A    
C56   C79   S    
C54   C58   S    
C11   C31   A    
C9    C13   A    
C1    C52   S    
C52   C64   T    
C11   C15   A    
C66   H6    S    
C42   C46   S    
C12   C32   A    
C3    C50   S    
C55   C80   S    
C77   O33   D    
C29   C38   A    
C72   O28   D    
C67   H7    S    
C11   H3    S    
O8    C4    A    
C21   C33   A    
C31   C40   A    
C8    C13   S    
C32   C39   A    
O9    C5    A    
C71   O27   D    
C46   C58   S    
C33   C37   A    
C45   C57   S    
C44   C56   S    
C47   C59   S    
O6    V2    S    
C10   C30   A    
C40   C76   S    
C46   Cl2   S    
O19   V3    S    
C46   C53   S    
O5    V1    S    
C45   C54   S    
C44   C59   S    
C74   H14   S    
C74   O30   D    
C80   H20   S    
O16   V4    S    
C79   O35   D    
C3    O13   A    
C41   Cl5   S    
C67   O23   D    
C10   C14   A    
C51   C63   T    
O17   V3    S    
C56   C60   S    
C19   C67   S    
C55   C59   S    
O6    C2    A    
C23   C27   A    
C2    C51   S    
C12   H4    S    
O11   V3    S    
C30   C37   A    
O12   V4    S    
C7    C14   S    
C77   H17   S    
C22   C26   A    
C35   C39   A    
C68   O24   D    
C36   C40   A    
O10   C6    A    
O20   V2    S    
C73   H13   S    
C43   C47   S    
C48   Cl4   S    
C5    C16   S    
C76   H16   S    
C25   C29   A    
C6    C15   S    
C70   O26   D    
C34   C70   S    
C13   C17   A    
C68   H8    S    
C42   C54   S    
C53   C57   S    
C75   O31   D    
C23   C35   A    
C43   C60   S    
C28   C32   A    
C16   C20   A    
O12   C8    A    
C25   C26   A    
C4    O14   A    
C35   C71   S    
C42   Cl6   S    
C17   C21   A    
C24   C28   A    
C42   C57   S    
C19   C23   A    
C22   C34   A    
C41   C58   S    
C20   C24   A    
O18   V2    S    
C20   C68   S    
