data_mof_unit_47503.cif
_audit_creation_date              2012-12-10T19:56:44-0500
_audit_creation_method            fapswitch 2.2
_symmetry_space_group_name_H-M    P1
_symmetry_Int_Tables_number       1
_space_group_crystal_system       triclinic
_cell_length_a                    28.529711
_cell_length_b                    18.257156
_cell_length_c                    18.228543
_cell_angle_alpha                 90.000668
_cell_angle_beta                  130.404811
_cell_angle_gamma                 90.000541
_cell_volume                      7230.08115183

loop_
_atom_site_label
_atom_site_type_symbol
_atom_type_description
_atom_site_fract_x
_atom_site_fract_y
_atom_site_fract_z
_atom_type_partial_charge
C1    C     C_R   0.499022 0.000036 0.357767 0.997576
C2    C     C_R   0.219932 0.028985 0.286916 -0.055504
C3    C     C_R   0.814824 0.503724 0.127248 0.493073
C4    C     C_R   0.658572 0.979730 0.911893 -0.258861
C5    C     C_R   0.341347 0.979795 0.087974 -0.258601
C6    C     C_R   0.158583 0.479739 0.911912 -0.258771
C7    C     C_R   0.841406 0.479618 0.088084 -0.258891
C8    C     C_R   0.637088 0.907870 0.896750 -0.171816
C9    C     C_R   0.362874 0.907955 0.103153 -0.171963
C10   C     C_R   0.137091 0.407882 0.896760 -0.171635
C11   C     C_R   0.862940 0.407775 0.103323 -0.171833
C12   C     C_R   0.781894 0.981128 0.840485 -0.208484
C13   C     C_R   0.280071 0.529010 0.713094 -0.054125
C14   C     C_R   0.218105 0.981152 0.159502 -0.208655
C15   C     C_R   0.281894 0.481132 0.840486 -0.208424
C16   C     C_R   0.718106 0.481089 0.159523 -0.208354
C17   C     C_3   0.942812 0.237190 0.737537 0.105814
C18   C     C_3   0.958400 0.318326 0.754620 -0.720018
C19   C     C_3   0.057239 0.237207 0.262493 0.105667
C20   C     C_3   0.041672 0.318348 0.245438 -0.719946
C21   C     C_3   0.442800 0.737183 0.737563 0.105885
C22   C     C_3   0.458392 0.818319 0.754607 -0.720013
C23   C     C_3   0.556999 0.737231 0.262811 0.104926
C24   C     C_R   0.719926 0.529053 0.286878 -0.054271
C25   C     C_3   0.541377 0.818332 0.244853 -0.719924
C26   C     C_3   0.755554 0.089159 0.981463 0.081017
C27   C     C_3   0.787556 0.158800 0.988511 -0.755252
C28   C     C_3   0.244333 0.089144 0.018355 0.080605
C29   C     C_3   0.212211 0.158682 0.011255 -0.755849
C30   C     C_3   0.255575 0.589152 0.981491 0.081074
C31   C     C_3   0.287596 0.658778 0.988547 -0.755299
C32   C     C_3   0.744382 0.588992 0.018353 0.080986
C33   C     C_3   0.712266 0.658557 0.011196 -0.755339
C34   C     C_R   0.715499 0.025158 0.647455 0.433728
C35   C     C_R   0.284504 0.025117 0.352556 0.432708
C36   C     C_R   0.215498 0.525150 0.647453 0.433791
C37   C     C_R   0.784498 0.525204 0.352525 0.433698
C38   C     C_R   0.685733 0.000479 0.681713 -0.207266
C39   C     C_R   0.314268 0.000470 0.318283 -0.208018
C40   C     C_R   0.185732 0.500478 0.681713 -0.207246
C41   C     C_R   0.500977 0.000037 0.642231 0.997588
C42   C     C_R   0.814267 0.500478 0.318288 -0.207372
C43   C     C_R   0.718612 0.978806 0.777653 0.005243
C44   C     C_R   0.281386 0.978829 0.222331 0.004965
C45   C     C_R   0.218612 0.478810 0.777655 0.005262
C46   C     C_R   0.781388 0.478768 0.222359 0.005270
C47   C     C_R   0.828334 0.008241 0.640660 -0.067021
C48   C     C_R   0.171653 0.008221 0.359331 -0.066380
C49   C     C_R   0.328336 0.508232 0.640661 -0.066933
C50   C     C_R   0.671678 0.508366 0.359350 -0.066929
C51   C     C_R   0.859280 0.032137 0.609645 -0.185088
C52   C     C_R   0.999023 0.500036 0.357768 0.997577
C53   C     C_R   0.140709 0.032127 0.390346 -0.185327
C54   C     C_R   0.359281 0.532126 0.609645 -0.184962
C55   C     C_R   0.640711 0.532297 0.390313 -0.184761
C56   C     C_R   0.876006 0.105428 0.619723 -0.300621
C57   C     C_R   0.124004 0.105425 0.380291 -0.300574
C58   C     C_R   0.376004 0.605418 0.619715 -0.300603
C59   C     C_R   0.623923 0.605575 0.380088 -0.301414
C60   C     C_R   0.863316 0.155730 0.663305 0.436481
C61   C     C_R   0.136715 0.155723 0.336733 0.436759
C62   C     C_R   0.363308 0.655723 0.663287 0.436426
C63   C     C_R   0.000975 0.500037 0.642230 0.997506
C64   C     C_R   0.636563 0.655833 0.336386 0.436841
C65   C     C_R   0.830716 0.132378 0.693299 0.420452
C66   C     C_R   0.169315 0.132361 0.306744 0.419396
C67   C     C_R   0.330709 0.632373 0.693284 0.420414
C68   C     C_R   0.669211 0.632445 0.306491 0.420828
C69   C     C_R   0.620029 0.000040 0.618563 0.974270
C70   C     C_R   0.379971 0.000038 0.381431 0.974441
C71   C     C_R   0.120029 0.500040 0.618564 0.974275
C72   C     C_R   0.879971 0.500039 0.381442 0.974238
C73   C     C_R   0.813180 0.057742 0.681470 0.021353
C74   C     C_R   0.812785 0.005051 0.809365 -0.130616
C75   C     C_R   0.186828 0.057718 0.318548 0.021712
C76   C     C_R   0.313178 0.557734 0.681465 0.021277
C77   C     C_R   0.686808 0.557822 0.318470 0.021168
C78   C     C_1   0.499919 0.000293 0.282178 -0.094392
C79   C     C_1   0.500077 0.000292 0.717819 -0.094217
C80   C     C_1   0.999921 0.500290 0.282179 -0.094240
C81   C     C_1   0.000078 0.500292 0.717819 -0.094266
C82   C     C_1   0.500621 0.000505 0.218056 -0.171264
C83   C     C_1   0.499377 0.000501 0.781941 -0.171228
C84   C     C_1   0.000622 0.500499 0.218057 -0.171212
C85   C     C_R   0.187215 0.005049 0.190636 -0.131099
C86   C     C_1   0.999377 0.500501 0.781942 -0.171197
C87   C     C_R   1.000000 0.141328 1.000000 1.012281
C88   C     C_R   0.500005 0.641328 0.000008 1.012335
C89   C     C_R   0.879382 0.002395 0.878553 0.946528
C90   C     C_R   0.120618 0.002396 0.121447 0.946794
C91   C     C_R   0.379382 0.502396 0.878553 0.946486
C92   C     C_R   0.620618 0.502388 0.121445 0.946583
C93   C     C_R   0.000000 0.858739 0.000000 0.938588
C94   C     C_R   0.500000 0.358739 1.000000 0.938554
C95   C     C_R   0.500000 0.140913 0.000000 0.925721
C96   C     C_R   0.312785 0.505051 0.809364 -0.130610
C97   C     C_R   0.000001 0.640913 0.000000 0.925708
C98   C     C_R   0.500268 0.000323 0.141201 0.901865
C99   C     C_R   0.499732 0.000320 0.858798 0.901708
C100  C     C_R   0.000268 0.500319 0.141201 0.901670
C101  C     C_R   0.999732 0.500320 0.858799 0.901661
C102  C     C_R   0.500000 0.859066 0.999994 0.889719
C103  C     C_R   0.999999 0.359066 0.000000 0.890183
C104  C     C_1   0.999999 0.217809 1.000000 -0.123977
C105  C     C_1   0.500007 0.717808 0.000023 -0.123124
C106  C     C_R   0.640841 0.859913 0.841069 -0.148080
C107  C     C_R   0.687214 0.505045 0.190629 -0.130634
C108  C     C_R   0.359184 0.860003 0.158906 -0.148315
C109  C     C_R   0.140834 0.359926 0.841067 -0.148081
C110  C     C_R   0.859222 0.359853 0.159069 -0.148079
C111  C     C_1   0.500003 0.782595 0.000013 -0.125492
C112  C     C_1   0.999998 0.282595 1.000000 -0.125617
C113  C     C_1   0.000001 0.782235 0.000000 -0.183633
C114  C     C_1   0.500001 0.282235 0.000000 -0.183599
C115  C     C_1   0.500001 0.217420 0.000001 -0.173140
C116  C     C_1   0.000002 0.717421 0.000001 -0.173176
C117  C     C_R   0.666455 0.883505 0.800837 -0.193060
C118  C     C_R   0.780071 0.029015 0.713097 -0.054211
C119  C     C_R   0.333587 0.883577 0.199171 -0.192872
C120  C     C_R   0.166447 0.383515 0.800832 -0.193038
C121  C     C_R   0.833594 0.383462 0.199275 -0.193007
C122  C     C_R   0.688237 0.955520 0.815734 0.006436
C123  C     C_R   0.311757 0.955570 0.184233 0.006550
C124  C     C_R   0.188238 0.455527 0.815738 0.006417
C125  C     C_R   0.811766 0.455461 0.184287 0.006460
C126  C     C_R   0.685139 0.003820 0.872702 0.493035
C127  C     C_R   0.314791 0.003865 0.127192 0.493008
C128  C     C_R   0.185149 0.503825 0.872718 0.493015
H1    H     H_    0.617052 0.889516 0.927579 0.172208
H2    H     H_    0.376032 0.804458 0.170709 0.140397
H3    H     H_    0.124014 0.304369 0.829284 0.140446
H4    H     H_    0.876073 0.304306 0.170917 0.140412
H5    H     H_    0.669759 0.845594 0.758654 0.161471
H6    H     H_    0.330329 0.845667 0.241404 0.161561
H7    H     H_    0.169743 0.345606 0.758640 0.161499
H8    H     H_    0.830320 0.345576 0.241510 0.161508
H9    H     H_    0.654150 0.016780 0.953429 0.165414
H10   H     H_    0.345723 0.016842 0.046382 0.165317
H11   H     H_    0.154169 0.516788 0.953458 0.165416
H12   H     H_    0.382894 0.889615 0.072295 0.172260
H13   H     H_    0.845801 0.516641 0.046496 0.165381
H14   H     H_    0.807150 0.963155 0.914189 0.160625
H15   H     H_    0.192847 0.963202 0.085788 0.160798
H16   H     H_    0.307150 0.463162 0.914192 0.160645
H17   H     H_    0.692850 0.463091 0.085827 0.160629
H18   H     H_    0.815462 0.951085 0.632096 0.162533
H19   H     H_    0.184508 0.951060 0.367875 0.162587
H20   H     H_    0.315467 0.451075 0.632105 0.162614
H21   H     H_    0.684592 0.451218 0.368020 0.162589
H22   H     H_    0.869863 0.993819 0.576868 0.171303
H23   H     H_    0.117056 0.389530 0.927591 0.172259
H24   H     H_    0.130109 0.993811 0.423102 0.171302
H25   H     H_    0.369869 0.493805 0.576876 0.171431
H26   H     H_    0.630163 0.494019 0.423171 0.171297
H27   H     H_    0.965015 0.212563 0.710914 0.118551
H28   H     H_    0.962230 0.211786 0.807683 0.151889
H29   H     H_    0.936903 0.344723 0.781331 0.276204
H30   H     H_    0.009068 0.325634 0.809138 0.168489
H31   H     H_    0.941091 0.345182 0.686430 0.276565
H32   H     H_    0.035016 0.212581 0.289083 0.118586
H33   H     H_    0.037830 0.211815 0.192345 0.151892
H34   H     H_    0.882987 0.389410 0.072516 0.172143
H35   H     H_    0.063207 0.344752 0.218795 0.276242
H36   H     H_    0.991007 0.325672 0.190878 0.168440
H37   H     H_    0.058954 0.345187 0.313624 0.276601
H38   H     H_    0.465037 0.712519 0.711013 0.118534
H39   H     H_    0.462179 0.711815 0.807707 0.151873
H40   H     H_    0.436824 0.844765 0.781174 0.276306
H41   H     H_    0.509056 0.825625 0.809221 0.168461
H42   H     H_    0.441161 0.845128 0.686434 0.276537
H43   H     H_    0.535364 0.713290 0.290702 0.119174
H44   H     H_    0.537004 0.711138 0.192745 0.151314
H45   H     H_    0.898681 0.123355 0.592999 0.163095
H46   H     H_    0.562307 0.844072 0.216873 0.275497
H47   H     H_    0.490675 0.825593 0.191027 0.168598
H48   H     H_    0.559282 0.845875 0.312987 0.277087
H49   H     H_    0.735730 0.202614 0.742948 0.382069
H50   H     H_    0.264067 0.199729 0.256163 0.381810
H51   H     H_    0.235720 0.702713 0.742911 0.382088
H52   H     H_    0.764186 0.702464 0.256751 0.382072
H53   H     H_    0.789865 0.043710 0.014036 0.130776
H54   H     H_    0.740190 0.097118 0.023524 0.141814
H55   H     H_    0.755202 0.205828 0.958350 0.256727
H56   H     H_    0.101329 0.123359 0.407011 0.163098
H57   H     H_    0.827740 0.170412 0.065096 0.187476
H58   H     H_    0.803839 0.152081 0.947662 0.288238
H59   H     H_    0.210082 0.043624 0.985729 0.130835
H60   H     H_    0.259736 0.097222 0.976365 0.142062
H61   H     H_    0.244506 0.205777 0.041482 0.257031
H62   H     H_    0.172050 0.170274 0.934653 0.187663
H63   H     H_    0.195877 0.151835 0.052015 0.287783
H64   H     H_    0.289876 0.543692 0.014067 0.130805
H65   H     H_    0.240210 0.597128 0.023548 0.141856
H66   H     H_    0.255252 0.705817 0.958385 0.256729
H67   H     H_    0.398682 0.623344 0.592997 0.163152
H68   H     H_    0.327780 0.670383 0.065133 0.187458
H69   H     H_    0.303880 0.652041 0.947703 0.288255
H70   H     H_    0.710123 0.543481 0.985738 0.130736
H71   H     H_    0.759799 0.597024 0.976377 0.141873
H72   H     H_    0.744566 0.705646 0.041401 0.256757
H73   H     H_    0.672110 0.670130 0.934584 0.187454
H74   H     H_    0.695923 0.651760 0.051950 0.288258
H75   H     H_    0.681827 0.078529 0.419569 0.389570
H76   H     H_    0.318198 0.078521 0.580457 0.389562
H77   H     H_    0.181807 0.578625 0.419574 0.389580
H78   H     H_    0.601267 0.623514 0.406836 0.162775
H79   H     H_    0.818168 0.578898 0.580328 0.389541
H80   H     H_    0.624027 0.804353 0.829294 0.140460
O1    O     O_R   0.500010 0.939400 0.392680 -0.632337
O2    O     O_R   0.551740 1.000000 0.944400 -0.642591
O3    O     O_R   0.948260 0.500000 0.055600 -0.642589
O4    O     O_R   0.051740 0.500000 0.944400 -0.642580
O5    O     O_R   0.551720 0.892660 0.051710 -0.597678
O6    O     O_R   0.448280 0.892660 0.948290 -0.597655
O7    O     O_R   0.051720 0.392660 0.051710 -0.597632
O8    O     O_R   0.948280 0.392660 0.948290 -0.597721
O9    O     O_R   0.499990 0.060580 0.392690 -0.593078
O10   O     O_R   0.500010 0.060580 0.607310 -0.593029
O11   O     O_R   0.999990 0.560580 0.392690 -0.593097
O12   O     O_R   0.499990 0.939400 0.607320 -0.632414
O13   O     O_R   0.000010 0.560580 0.607310 -0.593063
O14   O     O_R   0.591620 0.939400 0.591620 -0.637955
O15   O     O_R   0.408380 0.939400 0.408380 -0.637805
O16   O     O_R   0.091620 0.439400 0.591620 -0.637936
O17   O     O_R   0.908380 0.439400 0.408380 -0.637978
O18   O     O_R   0.591600 0.060580 0.591620 -0.574459
O19   O     O_R   0.408400 0.060580 0.408380 -0.574790
O20   O     O_R   0.091600 0.560580 0.591620 -0.574459
O21   O     O_R   0.908400 0.560580 0.408380 -0.574460
O22   O     O_R   0.999970 0.107360 0.060570 -0.643568
O23   O     O_R   0.000010 0.439400 0.392680 -0.632397
O24   O     O_R   0.000030 0.107360 0.939430 -0.643591
O25   O     O_R   0.499970 0.607360 0.060570 -0.643469
O26   O     O_R   0.500030 0.607360 0.939430 -0.643662
O27   O     O_R   0.908370 0.000030 0.968970 -0.623847
O28   O     O_R   0.091630 0.000030 0.031030 -0.623926
O29   O     O_R   0.408370 0.500030 0.968970 -0.623867
O30   O     O_R   0.591630 0.500030 0.031030 -0.623807
O31   O     O_R   0.908380 0.000000 0.847800 -0.644966
O32   O     O_R   0.091620 0.000000 0.152200 -0.644894
O33   O     O_R   0.408380 0.500000 0.847800 -0.644967
O34   O     O_R   0.999990 0.439400 0.607320 -0.632455
O35   O     O_R   0.591620 0.500000 0.152200 -0.644977
O36   O     O_R   0.000000 0.892710 0.060610 -0.618420
O37   O     O_R   0.000000 0.892710 0.939390 -0.618414
O38   O     O_R   0.500000 0.392710 0.060610 -0.618396
O39   O     O_R   0.500000 0.392710 0.939390 -0.618412
O40   O     O_R   0.551710 0.107310 0.051740 -0.618766
O41   O     O_R   0.448290 0.107310 0.948260 -0.618746
O42   O     O_R   0.051710 0.607310 0.051740 -0.618728
O43   O     O_R   0.948290 0.607310 0.948260 -0.618770
O44   O     O_3   0.878217 0.228834 0.669268 -0.550262
O45   O     O_R   0.551700 0.999990 0.159040 -0.596574
O46   O     O_3   0.121831 0.228832 0.330786 -0.550334
O47   O     O_3   0.378208 0.728826 0.669241 -0.550235
O48   O     O_3   0.621626 0.728953 0.330247 -0.550063
O49   O     O_2   0.851305 0.175118 0.852156 -0.398198
O50   O     O_2   0.827323 0.272807 0.740650 -0.223369
O51   O     O_3   0.738340 0.188655 0.693178 -0.509742
O52   O     O_2   0.148696 0.175133 0.147886 -0.399308
O53   O     O_2   0.172771 0.272795 0.259457 -0.221454
O54   O     O_3   0.261716 0.188600 0.306890 -0.509066
O55   O     O_2   0.351308 0.675132 0.852142 -0.398194
O56   O     O_R   0.448300 0.999990 0.840960 -0.596749
O57   O     O_2   0.327299 0.772805 0.740600 -0.223470
O58   O     O_3   0.238337 0.688637 0.693179 -0.509793
O59   O     O_2   0.648633 0.675025 0.147590 -0.398229
O60   O     O_2   0.672549 0.772824 0.258930 -0.222914
O61   O     O_3   0.761581 0.688688 0.306576 -0.509875
O62   O     O_3   0.704425 0.075610 0.883684 -0.604828
O63   O     O_3   0.295444 0.075631 0.116154 -0.605327
O64   O     O_3   0.204446 0.575612 0.883711 -0.604826
O65   O     O_3   0.795479 0.575497 0.116165 -0.604852
O66   O     O_2   0.635205 0.979739 0.465081 -0.356309
O67   O     O_R   0.051700 0.499990 0.159040 -0.596734
O68   O     O_2   0.626872 0.107846 0.495194 -0.253517
O69   O     O_3   0.712192 0.073567 0.490604 -0.548059
O70   O     O_2   0.364804 0.979655 0.534909 -0.355823
O71   O     O_2   0.373131 0.107781 0.504851 -0.253577
O72   O     O_3   0.287815 0.073450 0.509435 -0.547989
O73   O     O_2   0.135200 0.479724 0.465081 -0.356065
O74   O     O_2   0.126873 0.607835 0.495189 -0.253671
O75   O     O_3   0.212189 0.573541 0.490593 -0.548045
O76   O     O_2   0.864783 0.479882 0.534944 -0.356049
O77   O     O_2   0.873121 0.607954 0.504722 -0.253655
O78   O     O_R   0.948300 0.499990 0.840960 -0.596707
O79   O     O_3   0.787789 0.573757 0.509314 -0.548102
O80   O     O_R   0.448260 1.000000 0.055600 -0.642624
S1    S     S_3+6 0.813414 0.194998 0.747685 0.037826
S2    S     S_3+6 0.186637 0.194976 0.252385 0.038530
S3    S     S_3+6 0.313405 0.694996 0.747664 0.037758
S4    S     S_3+6 0.686498 0.695002 0.252028 0.038095
S5    S     S_3+6 0.670966 0.047027 0.522130 0.031835
S6    S     S_3+6 0.329040 0.046950 0.477893 0.031877
S7    S     S_3+6 0.170964 0.547011 0.522126 0.031857
S8    S     S_3+6 0.829025 0.547149 0.477830 0.031836
Zn1   Zn    Zn3+2 0.500000 0.919080 0.500000 0.978235
Zn2   Zn    Zn3+2 0.430940 0.999980 0.930930 0.998033
Zn3   Zn    Zn3+2 0.069060 0.499980 0.069070 0.998355
Zn4   Zn    Zn3+2 0.930940 0.499980 0.930930 0.998071
Zn5   Zn    Zn3+2 0.000000 0.419080 0.500000 0.978173
Zn6   Zn    Zn3+2 0.500000 0.080900 0.500000 1.108814
Zn7   Zn    Zn3+2 0.000000 0.580900 0.500000 1.108702
Zn8   Zn    Zn3+2 0.999980 0.000040 0.080910 0.954133
Zn9   Zn    Zn3+2 0.000020 0.000040 0.919090 0.954085
Zn10  Zn    Zn3+2 0.499980 0.500040 0.080910 0.954213
Zn11  Zn    Zn3+2 0.500020 0.500040 0.919090 0.954171
Zn12  Zn    Zn3+2 0.569060 0.999980 0.069070 0.998218

loop_
_geom_bond_atom_site_label_1
_geom_bond_atom_site_label_2
_ccdc_geom_bond_type
C55   H26   S    
C40   C71   S    
C55   C59   A    
C19   C20   S    
C117  H5    S    
C41   O10   A    
C9    C108  A    
C106  H80   S    
O74   S7    D    
O51   S1    S    
C67   S3    S    
C58   H67   S    
C37   C42   A    
C18   H31   S    
C91   C96   S    
O6    Zn2   S    
C91   O33   A    
C53   H24   S    
O1    Zn1   S    
O60   S4    D    
C94   O39   A    
O10   Zn6   S    
H52   O61   S    
C22   H40   S    
C47   H18   S    
C21   C22   S    
H77   O75   S    
C82   C98   S    
C102  C111  S    
C62   O47   S    
O19   Zn6   S    
O9    Zn6   S    
O5    Zn12  S    
O67   Zn3   S    
O28   Zn9   S    
C114  C115  T    
C101  O4    A    
O52   S2    D    
O17   Zn5   S    
O16   Zn5   S    
C100  O67   A    
C84   C100  S    
O61   S4    S    
C28   H59   S    
C15   C96   A    
C20   H35   S    
C11   H34   S    
C21   H38   S    
C103  C112  S    
C10   H23   S    
C78   C82   T    
C102  O5    A    
O7    Zn3   S    
O53   S2    D    
C91   O29   A    
C42   C72   S    
C70   O15   A    
C24   C107  A    
C43   C122  S    
C22   H42   S    
C93   O37   A    
C26   H54   S    
O50   S1    D    
O33   Zn11  S    
C60   C65   A    
C72   O17   A    
C29   H61   S    
O27   Zn8   S    
C17   H27   S    
C50   C77   A    
C41   O12   A    
C68   C77   A    
C17   O44   S    
O55   S3    D    
C126  O62   S    
C93   O36   A    
C85   C90   S    
C57   C61   A    
C119  C123  A    
C44   C123  S    
O43   Zn4   S    
C120  H7    S    
C38   C43   A    
C18   H29   S    
C27   H55   S    
C24   C77   S    
C23   H43   S    
C8    H1    S    
O57   S3    D    
C103  O8    A    
C2    C75   S    
C109  C120  A    
C34   C118  A    
O4    Zn3   S    
C69   O18   A    
O49   S1    D    
C97   O43   A    
C5    C9    A    
C88   O25   A    
C92   O30   A    
C19   H32   S    
C64   C68   A    
O59   S4    D    
O66   S5    D    
O56   Zn2   S    
C32   H71   S    
C110  C121  A    
C19   H33   S    
C9    H12   S    
C30   H65   S    
O70   S6    D    
C10   C109  A    
C27   H57   S    
C6    H11   S    
C19   O46   S    
C4    H9    S    
C98   O45   A    
C51   H22   S    
O75   S7    S    
O72   S6    S    
C29   H63   S    
C30   H64   S    
C108  H2    S    
O41   Zn2   S    
O40   Zn12  S    
C127  O63   S    
C11   C110  A    
C128  O64   S    
O37   Zn9   S    
C24   C37   A    
C48   C53   A    
C74   C118  A    
C119  H6    S    
C13   C96   A    
C1    O1    A    
C30   O64   S    
H50   O54   S    
C104  C112  T    
C49   H20   S    
C16   H17   S    
C117  C122  A    
C121  C125  A    
C25   H47   S    
C123  C127  A    
O24   Zn9   S    
O20   Zn7   S    
C17   C18   S    
O32   Zn8   S    
O14   Zn1   S    
O22   Zn8   S    
O23   Zn5   S    
C52   O11   A    
C73   C118  S    
C81   C86   T    
C23   O48   S    
C52   O23   A    
C39   C44   A    
C100  O3    A    
C4    C126  A    
C89   O27   A    
C6    C128  A    
O73   S7    D    
C88   C105  S    
C50   H21   S    
C38   C69   S    
H51   O58   S    
O42   Zn3   S    
C57   H56   S    
C2    C35   A    
C58   C62   A    
C12   C74   A    
C71   O20   A    
C63   O13   A    
C46   C125  S    
C7    H13   S    
C80   C84   T    
O3    Zn4   S    
O15   Zn1   S    
C26   C27   S    
C28   C29   S    
C3    C7    A    
C28   H60   S    
H79   O79   S    
C30   C31   S    
C92   O35   A    
O76   S8    D    
C87   O24   A    
C20   H36   S    
C48   H19   S    
C33   H74   S    
C2    C85   A    
C42   C46   A    
C32   H70   S    
C32   O65   S    
C16   C107  A    
C26   O62   S    
O29   Zn10  S    
C102  O6    A    
C109  H3    S    
C110  H4    S    
C71   O16   A    
C124  C128  A    
C105  C111  T    
C83   C99   S    
C1    C78   S    
C108  C119  A    
C3    O65   S    
C40   C45   A    
O35   Zn10  S    
C70   O19   A    
C47   C73   A    
C16   C46   A    
C53   C57   A    
C47   C51   A    
C33   H72   S    
C63   O34   A    
O13   Zn7   S    
C56   C60   A    
C35   C39   A    
C18   H30   S    
C21   O47   S    
C5    C127  A    
C90   O28   A    
C93   C113  S    
C97   C116  S    
C94   O38   A    
O38   Zn10  S    
C99   O56   A    
C68   S4    S    
C106  C117  A    
O18   Zn6   S    
O21   Zn7   S    
C103  O7    A    
C31   H69   S    
C14   C44   A    
C65   S1    S    
C14   H15   S    
C8    C106  A    
C6    C10   A    
C97   O42   A    
C87   O22   A    
C88   O26   A    
C21   H39   S    
C56   H45   S    
C32   C33   S    
C79   C83   T    
O68   S5    D    
O39   Zn11  S    
O30   Zn11  S    
H75   O69   S    
C66   C75   A    
O77   S8    D    
C12   H14   S    
C101  O78   A    
C121  H8    S    
C22   H41   S    
O36   Zn8   S    
C87   C104  S    
C26   H53   S    
C35   S6    S    
C29   H62   S    
C1    O9    A    
C52   C80   S    
C17   H28   S    
C61   O46   S    
O8    Zn4   S    
C89   O31   A    
O25   Zn10  S    
C4    C8    A    
C95   O41   A    
C54   H25   S    
C94   C114  S    
O11   Zn7   S    
C5    H10   S    
C7    C11   A    
C59   C64   A    
C62   C67   A    
C63   C81   S    
C74   C89   S    
C69   O14   A    
C12   C43   A    
C31   H68   S    
H76   O72   S    
C49   C54   A    
C65   C73   A    
O79   S8    S    
C51   C56   A    
C61   C66   A    
C36   S7    S    
C23   H44   S    
C95   C115  S    
O58   S3    S    
C113  C116  T    
C28   O63   S    
C48   C75   A    
O78   Zn4   S    
C25   H46   S    
C98   O80   A    
O34   Zn5   S    
C45   C124  S    
C72   O21   A    
C36   C40   A    
C13   C36   A    
O2    Zn12  S    
O31   Zn9   S    
O54   S2    S    
C27   H58   S    
C122  C126  A    
C95   O40   A    
C34   S5    S    
C92   C107  S    
C13   C76   S    
O12   Zn1   S    
O45   Zn12  S    
C49   C76   A    
H49   O51   S    
C37   S8    S    
C15   C45   A    
O26   Zn11  S    
C59   H78   S    
C54   C58   A    
C34   C38   A    
C14   C85   A    
C41   C79   S    
C31   H66   S    
C3    C125  A    
O71   S6    D    
C50   C55   A    
C90   O32   A    
C25   H48   S    
C33   H73   S    
C39   C70   S    
C23   C25   S    
C15   H16   S    
O69   S5    S    
C66   S2    S    
C60   O44   S    
O80   Zn2   S    
C67   C76   A    
C86   C101  S    
C120  C124  A    
C64   O48   S    
C99   O2    A    
C20   H37   S    
