data_mof_unit_36469.cif
_audit_creation_date              2012-12-11T15:27:40-0500
_audit_creation_method            fapswitch 2.2
_symmetry_space_group_name_H-M    P1
_symmetry_Int_Tables_number       1
_space_group_crystal_system       triclinic
_cell_length_a                    23.052099
_cell_length_b                    7.301244
_cell_length_c                    15.123561
_cell_angle_alpha                 89.619398
_cell_angle_beta                  107.21494
_cell_angle_gamma                 90.328134
_cell_volume                      2431.3267148

loop_
_atom_site_label
_atom_site_type_symbol
_atom_type_description
_atom_site_fract_x
_atom_site_fract_y
_atom_site_fract_z
_atom_type_partial_charge
O1    O     O_R   0.711000 0.648610 0.341170 -0.518104
O2    O     O_R   0.289000 0.351390 0.658830 -0.518186
O3    O     O_R   0.789000 0.148610 0.158830 -0.508315
O4    O     O_R   0.211000 0.851390 0.841170 -0.509251
O5    O     O_R   0.829650 0.322030 0.336650 -0.514196
O6    O     O_R   0.170350 0.677970 0.663350 -0.532380
O7    O     O_R   0.670350 0.822030 0.163350 -0.536273
O8    O     O_R   0.329650 0.177970 0.836650 -0.550611
C1    C     C_R   0.854339 0.485957 0.356749 0.768326
C2    C     C_R   0.145672 0.514021 0.643214 0.715874
C3    C     C_R   0.645624 0.985766 0.143403 0.753672
C4    C     C_R   0.354280 0.014170 0.856924 0.738409
O9    O     O_R   0.713950 0.319280 0.352070 -0.519011
O10   O     O_R   0.286050 0.680720 0.647930 -0.524487
O11   O     O_R   0.786050 0.819280 0.147930 -0.541977
O12   O     O_R   0.213950 0.180720 0.852070 -0.543156
O13   O     O_R   0.672470 0.142870 0.174360 -0.544431
O14   O     O_R   0.327530 0.857130 0.825640 -0.514126
O15   O     O_R   0.827530 0.642870 0.325640 -0.537677
O16   O     O_R   0.172470 0.357130 0.674360 -0.530019
C5    C     C_R   0.702053 0.486872 0.377355 0.746317
C6    C     C_R   0.299088 0.513101 0.624088 0.754595
C7    C     C_R   0.798031 0.988118 0.123110 0.768358
C8    C     C_R   0.202575 0.011169 0.877093 0.774735
O17   O     O_3   0.736530 0.478650 0.191680 -0.386667
O18   O     O_3   0.263470 0.521350 0.808320 -0.375540
O19   O     O_3   0.763470 0.978650 0.308320 -0.369066
O20   O     O_3   0.236530 0.021350 0.691680 -0.369671
V1    V     V_3+5 0.752500 0.206170 0.260820 1.643981
V2    V     V_3+5 0.247500 0.793830 0.739180 1.633003
V3    V     V_3+5 0.747500 0.706170 0.239180 1.598726
V4    V     V_3+5 0.252500 0.293830 0.760820 1.570448
C9    C     C_R   0.827406 0.994516 0.048779 -0.162755
C10   C     C_R   0.173204 0.997213 0.950727 -0.162197
C11   C     C_R   0.676403 0.487144 0.456503 -0.153940
C12   C     C_R   0.328054 0.502254 0.549041 -0.158089
C13   C     C_R   0.836493 0.885035 0.900332 -0.094880
C14   C     C_R   0.175896 0.925369 0.108774 -0.110475
C15   C     C_R   0.678923 0.361652 0.608082 -0.089154
C16   C     C_R   0.325096 0.405733 0.393375 -0.106699
C17   C     C_R   0.804025 0.890818 0.966814 -0.146902
C18   C     C_R   0.206740 0.950111 0.041634 -0.161738
C19   C     C_R   0.708755 0.404998 0.541024 -0.120220
C20   C     C_R   0.295087 0.435784 0.461209 -0.150671
C21   C     C_R   0.885340 0.073859 0.067766 0.322671
C22   C     C_R   0.109851 0.002872 0.926258 0.320835
C23   C     C_R   0.615709 0.535729 0.442079 0.314079
C24   C     C_R   0.390848 0.532827 0.569313 0.326035
C25   C     C_R   0.921860 0.030381 0.011511 0.032693
C26   C     C_R   0.080300 0.021725 0.996085 0.057316
C27   C     C_R   0.582523 0.460349 0.499191 0.047659
C28   C     C_R   0.422293 0.472933 0.507107 0.048994
C29   C     C_R   0.893028 0.978893 0.919241 -0.062278
C30   C     C_R   0.114317 0.984016 0.089530 -0.018973
C31   C     C_R   0.614844 0.392083 0.588385 -0.026759
C32   C     C_R   0.388651 0.440935 0.414021 -0.029874
C33   C     C_R   0.986474 0.030528 0.042459 0.047165
C34   C     C_R   0.016977 0.058552 0.974749 0.027699
C35   C     C_R   0.517818 0.448509 0.468566 0.030322
C36   C     C_R   0.486050 0.439382 0.535315 0.033190
C37   C     C_R   0.980993 0.111179 0.885269 -0.047404
C38   C     C_R   0.020525 0.985956 0.134915 -0.152948
C39   C     C_R   0.517196 0.369330 0.624657 -0.051071
C40   C     C_R   0.484284 0.424750 0.373566 -0.044647
C41   C     C_R   0.922499 0.031434 0.852287 -0.072329
C42   C     C_R   0.084505 0.985328 0.159759 -0.048338
C43   C     C_R   0.581200 0.350025 0.651952 -0.074518
C44   C     C_R   0.420106 0.431869 0.345997 -0.076689
C45   C     C_1   0.416679 0.006794 0.919235 -0.133928
C46   C     C_1   0.583062 0.992961 0.081633 -0.122113
C47   C     C_1   0.083186 0.506514 0.581225 -0.114788
C48   C     C_1   0.916838 0.493354 0.418701 -0.086836
C49   C     C_1   0.468966 0.002209 0.970543 0.059004
C50   C     C_1   0.530704 0.997492 0.030587 0.066470
C51   C     C_1   0.030873 0.502098 0.530016 0.090350
C52   C     C_1   0.969158 0.497675 0.469889 0.090481
C53   C     C_2   0.893921 0.012756 0.751071 0.898662
O21   O     O_2   0.924179 0.959176 0.702267 -0.487595
O22   O     O_R   0.832849 0.054790 0.711346 -0.659197
H1    H     H_    0.817559 0.016281 0.644201 0.330597
C54   C     C_2   0.120100 0.987699 0.259485 0.772003
O23   O     O_2   0.157576 0.108726 0.288176 -0.529489
O24   O     O_R   0.112204 0.849885 0.319624 -0.614058
H2    H     H_    0.139599 0.866931 0.385209 0.321262
C55   C     C_2   0.611230 0.292005 0.748758 0.855602
O25   O     O_2   0.606611 0.133368 0.772462 -0.504822
O26   O     O_R   0.643196 0.420412 0.813070 -0.613432
H3    H     H_    0.660514 0.364930 0.877057 0.331684
C56   C     C_2   0.386757 0.449621 0.245844 0.858171
O27   O     O_2   0.354823 0.583505 0.218186 -0.524848
O28   O     O_R   0.391255 0.313604 0.183683 -0.631319
H4    H     H_    0.366657 0.343022 0.117654 0.318117
Cl1   Cl    Cl    0.070661 0.937230 0.810654 -0.632436
Cl2   Cl    Cl    0.909348 0.247366 0.152366 -0.611422
Cl3   Cl    Cl    0.428341 0.666491 0.667254 -0.582326
Cl4   Cl    Cl    0.584471 0.712074 0.361086 -0.578666
C57   C     C_2   0.271817 0.900616 0.062457 0.811379
O29   O     O_2   0.286951 0.775267 0.020911 -0.546772
O30   O     O_R   0.315601 0.996605 0.129965 -0.602903
H5    H     H_    0.358189 0.949507 0.138276 0.350807
C58   C     C_2   0.745799 0.790194 0.951262 0.879120
O31   O     O_2   0.743810 0.625205 0.937540 -0.526075
O32   O     O_R   0.693815 0.883742 0.954856 -0.660241
H6    H     H_    0.657106 0.800243 0.944010 0.316206
C59   C     C_2   0.229218 0.396848 0.440808 0.827551
O33   O     O_2   0.192393 0.490655 0.384113 -0.495945
O34   O     O_R   0.209472 0.253960 0.486843 -0.645106
H7    H     H_    0.163579 0.242741 0.468011 0.299041
C60   C     C_2   0.774872 0.370571 0.560556 0.748281
O35   O     O_2   0.792849 0.254714 0.517053 -0.552160
O36   O     O_R   0.816449 0.471824 0.628807 -0.620274
H8    H     H_    0.860069 0.437287 0.635474 0.352146
C61   C     C_2   0.815819 0.760811 0.819735 0.927118
O37   O     O_2   0.852062 0.657044 0.801478 -0.513596
O38   O     O_R   0.755185 0.761990 0.765133 -0.594462
H9    H     H_    0.747455 0.680229 0.709006 0.349155
C62   C     C_2   0.201871 0.795534 0.186314 0.901162
O39   O     O_2   0.171649 0.663258 0.196378 -0.489175
O40   O     O_R   0.259634 0.823616 0.247622 -0.587243
H10   H     H_    0.270460 0.729890 0.299520 0.339676
C63   C     C_2   0.713485 0.253212 0.689263 0.857030
O41   O     O_2   0.704323 0.088504 0.690978 -0.503465
O42   O     O_R   0.756165 0.338208 0.763085 -0.610638
H11   H     H_    0.775563 0.249875 0.815335 0.331633
C64   C     C_2   0.293860 0.294673 0.311475 0.884216
O43   O     O_2   0.314701 0.145564 0.301545 -0.490705
O44   O     O_R   0.242428 0.360932 0.245068 -0.598696
H12   H     H_    0.227276 0.274987 0.190663 0.334680
C65   C     C_2   0.000367 0.268751 0.836361 0.892496
O45   O     O_2   0.969849 0.315873 0.758920 -0.530663
O46   O     O_R   0.052596 0.368933 0.881311 -0.651976
H13   H     H_    0.060804 0.473124 0.841929 0.327514
C66   C     C_2   0.990484 0.907052 0.201647 0.921225
O47   O     O_2   0.960794 0.766187 0.181703 -0.500494
O48   O     O_R   0.995725 0.989529 0.286939 -0.616285
H14   H     H_    0.018319 0.110634 0.294887 0.296072
C67   C     C_2   0.482405 0.281709 0.683031 0.863801
O49   O     O_2   0.442347 0.170369 0.648635 -0.526900
O50   O     O_R   0.495571 0.326131 0.776761 -0.627190
H15   H     H_    0.468396 0.259076 0.808130 0.302973
C68   C     C_2   0.514898 0.354283 0.306376 0.856932
O51   O     O_2   0.547710 0.219863 0.326645 -0.529966
O52   O     O_R   0.506756 0.441670 0.220968 -0.625137
H16   H     H_    0.530234 0.380623 0.182254 0.302320

loop_
_geom_bond_atom_site_label_1
_geom_bond_atom_site_label_2
_ccdc_geom_bond_type
O17   V3    S    
O26   H3    S    
O1    C5    A    
C58   O31   D    
C24   Cl3   S    
O19   V1    S    
C9    C21   A    
C49   C50   S    
O3    C7    A    
O36   H8    S    
C10   C18   A    
C1    C48   S    
C4    C45   S    
C11   C23   A    
C54   O23   D    
C3    C46   S    
C25   C33   A    
O42   H11   S    
C53   O21   D    
O7    C3    A    
C67   O50   S    
C35   C40   A    
C26   C30   A    
C36   C39   A    
O48   H14   S    
C40   C44   A    
C38   C66   S    
O9    V1    S    
C14   C18   A    
C62   O40   S    
C55   O25   D    
O4    C8    A    
C13   C61   S    
C40   C68   S    
O38   H9    S    
O1    V3    S    
O13   V1    S    
O2    V4    S    
O3    V1    S    
C28   C36   A    
C60   O36   S    
C54   O24   S    
C14   C62   S    
C68   O51   D    
C1    O15   A    
C15   C31   A    
O24   H2    S    
C2    O16   A    
C7    C9    S    
C46   C50   T    
O34   H7    S    
C45   C49   T    
C10   C22   A    
C56   O28   S    
C11   C19   A    
C16   C20   A    
C37   C65   S    
C13   C29   A    
C2    C47   S    
C34   C37   A    
O11   C7    A    
C67   O49   D    
O15   V3    S    
C35   C36   A    
O12   C8    A    
C39   C67   S    
O10   V2    S    
C21   Cl2   S    
C57   O30   S    
C57   O29   D    
O5    V1    S    
C53   O22   S    
O50   H15   S    
C39   C43   A    
C43   C55   S    
C41   C53   S    
C38   C42   A    
C55   O26   S    
C26   C34   A    
C33   C38   A    
O7    V3    S    
C60   O35   D    
C18   C57   S    
O28   H4    S    
O18   V4    S    
C15   C19   A    
C16   C32   A    
C20   C59   S    
C23   Cl4   S    
C8    C10   S    
O8    V4    S    
C51   C52   S    
O5    C1    A    
C37   C41   A    
C59   O34   S    
C31   C43   A    
O30   H5    S    
C14   C30   A    
C21   C25   A    
O8    C4    A    
C44   C56   S    
O9    C5    A    
C48   C52   T    
C63   O41   D    
C5    C11   S    
O6    V2    S    
C66   O47   D    
C12   C20   A    
C27   C35   A    
O44   H12   S    
C29   C41   A    
C64   O44   S    
C61   O37   D    
O16   V4    S    
C3    O13   A    
O6    C2    A    
C23   C27   A    
O40   H10   S    
O11   V3    S    
C30   C42   A    
O12   V4    S    
C6    C12   S    
C59   O33   D    
C22   C26   A    
C15   C63   S    
C9    C17   A    
O10   C6    A    
C68   O52   S    
C65   O45   D    
C32   C44   A    
O2    C6    A    
C42   C54   S    
C47   C51   T    
C33   C34   A    
C64   O43   D    
C22   Cl1   S    
C25   C29   A    
C16   C64   S    
O20   V2    S    
C17   C58   S    
C12   C24   A    
C27   C31   A    
C13   C17   A    
O46   H13   S    
C63   O42   S    
O14   V2    S    
O22   H1    S    
C28   C32   A    
C24   C28   A    
C58   O32   S    
C4    O14   A    
O32   H6    S    
C66   O48   S    
C19   C60   S    
C65   O46   S    
C56   O27   D    
C62   O39   D    
O4    V2    S    
O52   H16   S    
C61   O38   S    
