data_mof_unit_48085.cif
_audit_creation_date              2012-12-10T18:58:48-0500
_audit_creation_method            fapswitch 2.2
_symmetry_space_group_name_H-M    P1
_symmetry_Int_Tables_number       1
_space_group_crystal_system       triclinic
_cell_length_a                    13.027339
_cell_length_b                    10.738673
_cell_length_c                    9.618874
_cell_angle_alpha                 91.028154
_cell_angle_beta                  96.945181
_cell_angle_gamma                 90.613524
_cell_volume                      1335.44377928

loop_
_atom_site_label
_atom_site_type_symbol
_atom_type_description
_atom_site_fract_x
_atom_site_fract_y
_atom_site_fract_z
_atom_type_partial_charge
C1    C     C_R   0.499195 0.262863 0.498892 0.879768
C2    C     C_R   0.028519 0.499290 0.567216 0.069375
C3    C     C_R   0.969709 0.484391 0.434154 0.090626
C4    C     C_R   0.862261 0.483491 0.424461 -0.083816
C5    C     C_R   0.869492 0.510509 0.675500 -0.265903
C6    C     C_R   0.977428 0.507959 0.689512 0.040391
C7    C     C_R   0.576318 0.065799 0.569215 -0.034874
C8    C     C_R   0.494664 0.129433 0.497533 -0.262084
C9    C     C_R   0.404594 0.064825 0.439460 0.422032
C10   C     C_R   0.402408 0.932925 0.442047 0.355235
C11   C     C_R   0.491828 0.870228 0.503164 -0.194726
C12   C     C_R   0.300174 0.500793 0.472211 0.826785
C13   C     C_R   0.574921 0.937889 0.571773 0.065245
C14   C     C_3   0.687424 0.928593 0.555396 -0.445892
C15   C     C_3   0.689549 0.070338 0.552828 0.352625
C16   C     C_R   0.556221 0.586834 0.084584 0.137734
C17   C     C_R   0.449463 0.408737 0.062076 0.034566
C18   C     C_R   0.450859 0.409331 0.914160 0.037784
C19   C     C_R   0.556806 0.586537 0.937820 -0.077454
C20   C     C_3   0.550246 0.726755 0.932993 0.218785
C21   C     C_3   0.547460 0.726344 0.092058 0.636886
C22   C     C_R   0.498921 0.737071 0.500843 0.825361
C23   C     C_R   0.699237 0.499906 0.527090 0.801411
C24   C     C_R   0.812033 0.498504 0.543463 -0.080408
C25   C     C_R   0.185921 0.498967 0.453159 -0.138452
C26   C     C_R   0.017841 0.472114 0.311480 0.370933
C27   C     C_R   0.126398 0.483695 0.320003 -0.101881
C28   C     C_R   0.135955 0.508583 0.573760 -0.202470
Cu1   Cu    Cu3+1 0.499990 0.499980 0.640670 0.979121
Cu2   Cu    Cu3+1 0.500010 0.500020 0.359330 1.003305
H1    H     H_    0.816828 0.472315 0.322924 0.221401
H2    H     H_    0.700492 0.881744 0.455003 0.167143
H3    H     H_    0.408251 0.338999 0.848052 0.188956
H4    H     H_    0.830219 0.519368 0.768310 0.161924
H5    H     H_    0.182058 0.527228 0.672971 0.218247
H6    H     H_    0.733209 0.889528 0.649068 0.238384
N1    N     N_R   0.500660 0.500930 0.148010 -0.241959
N2    N     N_R   0.500660 0.500890 0.852110 -0.203398
O1    O     O_R   0.500000 0.319640 0.618810 -0.572538
O2    O     O_R   0.500010 0.319680 0.381230 -0.598590
O3    O     O_R   0.348990 0.499960 0.599490 -0.584316
O4    O     O_R   0.349000 0.500000 0.361910 -0.594618
O5    O     O_R   0.499990 0.680320 0.618770 -0.555858
O6    O     O_R   0.500000 0.680360 0.381190 -0.525065
O7    O     O_R   0.651000 0.500000 0.638090 -0.595539
O8    O     O_R   0.651010 0.500040 0.400510 -0.567541
O9    O     O_3   0.749445 0.122795 0.671145 -0.619311
H7    H     H_    0.728973 0.211373 0.677244 0.339174
C29   C     C_2   0.714894 0.121870 0.415642 0.357204
H8    H     H_    0.669532 0.092706 0.318097 0.073277
O10   O     O_2   0.786377 0.195807 0.412826 -0.502011
C30   C     C_2   0.386634 0.310095 0.117544 0.428878
H9    H     H_    0.351954 0.324252 0.212286 0.142003
O11   O     O_2   0.370599 0.210507 0.054905 -0.508937
C31   C     C_2   0.645322 0.785686 0.886435 0.512632
H10   H     H_    0.700556 0.729311 0.838140 0.010189
O12   O     O_2   0.660432 0.897796 0.901237 -0.489387
O13   O     O_3   0.458959 0.773143 0.858774 -0.646208
H11   H     H_    0.401493 0.712496 0.863466 0.337554
O14   O     O_3   0.634491 0.780666 0.171644 -0.730441
H12   H     H_    0.622685 0.871803 0.173107 0.356930
O15   O     O_3   0.453930 0.771143 0.133497 -0.644577
H13   H     H_    0.397590 0.709913 0.103791 0.344284
O16   O     O_3   0.955971 0.453568 0.184920 -0.736195
H14   H     H_    0.996390 0.415294 0.115204 0.332695
C32   C     C_2   0.031814 0.511068 0.833905 0.362839
H15   H     H_    0.000033 0.564356 0.915238 0.107260
O17   O     O_2   0.108214 0.448118 0.865523 -0.550303
C33   C     C_2   0.174455 0.486393 0.188709 0.404404
H16   H     H_    0.176117 0.402218 0.125193 0.097727
O18   O     O_2   0.209964 0.583549 0.149516 -0.505276
O19   O     O_3   0.321220 0.133031 0.381320 -0.731355
H17   H     H_    0.263607 0.076303 0.344345 0.389954
O20   O     O_3   0.314093 0.870140 0.382500 -0.686491
H18   H     H_    0.318638 0.780609 0.404234 0.336848

loop_
_geom_bond_atom_site_label_1
_geom_bond_atom_site_label_2
_ccdc_geom_bond_type
C32   O17   D    
C31   H10   S    
C16   C21   S    
C23   O7    A    
C1    C8    S    
C11   C13   A    
C19   C20   S    
C9    O19   S    
C15   O9    S    
C7    C8    A    
C25   C28   A    
C26   C27   A    
Cu1   Cu2   S    
C14   H6    S    
C5    C6    A    
C4    C24   A    
C33   O18   D    
C26   O16   S    
C12   O4    A    
C1    O2    A    
C22   O6    A    
C22   O5    A    
C28   H5    S    
C8    C9    A    
C29   O10   D    
Cu1   N2    S    
C23   C24   S    
C9    C10   A    
C27   C33   S    
C16   N1    A    
C7    C15   S    
C32   H15   S    
C23   O8    A    
C13   C14   S    
Cu1   O5    S    
Cu2   O6    S    
C2    C6    A    
C20   C31   S    
C17   C30   S    
C30   O11   D    
O20   H18   S    
C21   O14   S    
O13   H11   S    
Cu2   N1    S    
Cu1   O7    S    
O14   H12   S    
O15   H13   S    
C19   N2    A    
O9    H7    S    
C6    C32   S    
C5    H4    S    
Cu1   O1    S    
C17   C18   A    
Cu2   O2    S    
C17   N1    A    
C21   O15   S    
C31   O12   D    
C20   O13   S    
C3    C4    A    
C30   H9    S    
C12   O3    A    
Cu1   O3    S    
Cu2   O8    S    
C3    C26   A    
C14   H2    S    
O19   H17   S    
C25   C27   A    
C11   C22   S    
C12   C25   S    
O16   H14   S    
C2    C3    A    
C18   N2    A    
C10   O20   S    
C5    C24   A    
C16   C19   A    
C15   C29   S    
C33   H16   S    
C18   H3    S    
C4    H1    S    
C10   C11   A    
C1    O1    A    
C7    C13   A    
C20   C21   S    
C29   H8    S    
C14   C15   S    
Cu2   O4    S    
C2    C28   A    
