data_mof_unit_62402.cif
_audit_creation_date              2013-03-05T15:41:12-0500
_audit_creation_method            fapswitch 2.2
_symmetry_space_group_name_H-M    P1
_symmetry_Int_Tables_number       1
_space_group_crystal_system       triclinic
_cell_length_a                    18.991627
_cell_length_b                    18.811794
_cell_length_c                    19.027756
_cell_angle_alpha                 109.19206
_cell_angle_beta                  110.411725
_cell_angle_gamma                 109.091153
_cell_volume                      5214.19839511

loop_
_atom_site_label
_atom_site_type_symbol
_atom_site_description
_atom_site_fract_x
_atom_site_fract_y
_atom_site_fract_z
_atom_type_partial_charge
O1    O     O_R   0.589740 0.537510 0.449170 -0.575511
O2    O     O_R   0.588290 0.640550 0.550800 -0.582952
C1    C     C_R   0.615474 0.618082 0.498534 0.847927
O3    O     O_R   0.410430 0.448470 0.358910 -0.583410
O4    O     O_R   0.408980 0.551520 0.460540 -0.591335
C2    C     C_R   0.381246 0.499748 0.381081 0.798846
Cu1   Cu    Cu3+1 0.500860 0.438990 0.439830 0.991983
Cu2   Cu    Cu3+1 0.499140 0.561010 0.560170 0.976281
O5    O     O_R   0.411710 0.359450 0.449200 -0.557057
O6    O     O_R   0.410260 0.462490 0.550830 -0.593416
O7    O     O_R   0.591020 0.448480 0.539460 -0.592258
O8    O     O_R   0.589570 0.551530 0.641090 -0.570940
C3    C     C_R   0.385083 0.382072 0.502385 0.886293
C4    C     C_R   0.619441 0.500851 0.619801 0.754562
C5    C     C_3   0.324300 0.519985 0.244694 -0.206608
C6    C     C_3   0.283840 0.578828 0.261232 -0.215427
H1    H     H_    0.307450 0.644022 0.267133 0.164872
H2    H     H_    0.382383 0.535623 0.237886 0.154518
C7    C     C_3   0.193129 0.499441 0.192656 -0.072928
C8    C     C_3   0.233077 0.441848 0.177236 0.401178
C9    C     C_3   0.223488 0.419732 0.245290 -0.204791
C10   C     C_3   0.183455 0.479019 0.261837 -0.220119
C11   C     C_3   0.274856 0.558524 0.331209 -0.139792
C12   C     C_3   0.313886 0.499424 0.313415 -0.023685
H3    H     H_    0.200105 0.354343 0.238943 0.151988
H4    H     H_    0.125149 0.462797 0.268284 0.164624
H5    H     H_    0.293396 0.607047 0.396262 0.156691
C13   C     C_2   0.741947 0.749513 0.425633 -0.148735
C14   C     C_2   0.819015 0.810570 0.497053 -0.287050
H6    H     H_    0.725153 0.749984 0.365120 0.166331
H7    H     H_    0.839748 0.804784 0.554825 0.163375
C15   C     C_2   0.681269 0.676683 0.425740 -0.150318
C16   C     C_2   0.677153 0.687345 0.497119 -0.300787
H8    H     H_    0.636611 0.615237 0.365426 0.167909
H9    H     H_    0.714894 0.751209 0.554640 0.158616
C17   C     C_2   0.828685 0.507316 0.750691 0.392959
C18   C     C_2   0.818669 0.481257 0.806383 -0.361891
H10   H     H_    0.753786 0.443961 0.793115 0.156185
C19   C     C_2   0.752177 0.495688 0.680260 -0.271007
C20   C     C_2   0.688950 0.506213 0.690664 0.250077
H11   H     H_    0.750123 0.481814 0.619202 0.165436
C21   C     C_2   0.255358 0.174030 0.497214 0.254209
C22   C     C_2   0.180750 0.172599 0.486743 -0.493680
H12   H     H_    0.161790 0.212347 0.462803 0.151223
C23   C     C_2   0.312078 0.234401 0.481227 0.412013
C24   C     C_2   0.325859 0.316289 0.510070 -0.474481
H13   H     H_    0.296102 0.337832 0.545754 0.145128
O9    O     O_R   0.954280 0.537480 0.094820 -0.586092
O10   O     O_R   0.057320 0.640510 0.094780 -0.592104
C25   C     C_R   0.007579 0.618124 0.124495 0.867812
O11   O     O_R   0.045810 0.448440 0.097300 -0.587115
O12   O     O_R   0.148850 0.551460 0.097260 -0.586656
C26   C     C_R   0.125755 0.500012 0.125782 0.848233
Cu3   Cu    Cu3+1 0.946020 0.438950 0.007030 0.985753
Cu4   Cu    Cu3+1 0.068040 0.560950 0.006980 1.042225
O13   O     O_R   0.956740 0.359390 0.919230 -0.586075
O14   O     O_R   0.059790 0.462410 0.919190 -0.558274
O15   O     O_R   0.865220 0.448430 0.916750 -0.603089
O16   O     O_R   0.968260 0.551460 0.916710 -0.531479
C27   C     C_R   0.005036 0.381918 0.888038 0.941086
C28   C     C_R   0.888034 0.494460 0.883034 0.853498
O17   O     O_R   0.946480 0.089020 0.535540 -0.539623
O18   O     O_R   0.051000 0.089020 0.640050 -0.591256
C29   C     C_R   0.001618 0.120149 0.616382 0.893351
O19   O     O_R   0.858720 0.910970 0.447760 -0.590403
O20   O     O_R   0.963250 0.910970 0.552260 -0.582105
C30   C     C_R   0.882784 0.880709 0.498455 0.827359
Cu5   Cu    Cu3+1 0.938110 1.000000 0.438130 1.020739
Cu6   Cu    Cu3+1 0.061890 0.000000 0.561870 1.059039
O21   O     O_R   0.949000 0.910980 0.359950 -0.614223
O22   O     O_R   0.053520 0.910980 0.464460 -0.517959
O23   O     O_R   0.036750 0.089030 0.447740 -0.572566
O24   O     O_R   0.141280 0.089030 0.552240 -0.540177
C31   C     C_R   0.998644 0.879908 0.383703 0.886157
C32   C     C_R   0.117140 0.114160 0.496626 0.953901
C33   C     C_2   0.010382 0.748241 0.327732 0.484565
C34   C     C_2   0.991168 0.807680 0.315720 -0.359512
H14   H     H_    0.963124 0.800036 0.251394 0.120334
C35   C     C_2   0.994399 0.674461 0.251937 -0.279020
C36   C     C_2   0.015129 0.687409 0.195132 -0.371643
H15   H     H_    0.970854 0.610736 0.246128 0.178318
H16   H     H_    0.046172 0.752676 0.205393 0.161502
C37   C     C_2   0.004307 0.260198 0.682249 0.353042
C38   C     C_2   0.009028 0.191154 0.685465 -0.416839
H17   H     H_    0.027326 0.189879 0.745657 0.153740
C39   C     C_2   0.016501 0.329524 0.758825 -0.178598
C40   C     C_2   0.994711 0.313499 0.814167 -0.329937
H18   H     H_    0.041673 0.394782 0.768152 0.222638
H19   H     H_    0.961752 0.247501 0.801334 0.158320
N1    N     N_R   0.909676 0.539251 0.752627 0.144798
O25   O     O_R   0.929894 0.596488 0.728568 -0.333441
O26   O     O_R   0.953424 0.498754 0.760158 -0.343768
O27   O     O_3   0.699086 0.539695 0.772773 -0.594640
C41   C     C_3   0.623912 0.487534 0.770111 0.046275
H20   H     H_    0.600410 0.416912 0.731293 0.137122
H21   H     H_    0.571267 0.501156 0.742077 0.174402
C42   C     C_3   0.645553 0.509242 0.862415 -0.331124
H22   H     H_    0.698668 0.496796 0.892118 0.225088
H23   H     H_    0.668152 0.579212 0.901782 0.234667
C43   C     C_3   0.566768 0.454782 0.863732 -0.869896
H24   H     H_    0.513257 0.467313 0.835695 0.260132
H25   H     H_    0.584587 0.472194 0.931572 0.260501
H26   H     H_    0.544080 0.384555 0.826095 0.269089
N2    N     N_R   0.278105 0.113738 0.515811 0.154549
O28   O     O_R   0.359303 0.138113 0.562623 -0.321230
O29   O     O_R   0.220821 0.031519 0.473586 -0.384281
O30   O     O_3   0.357539 0.208411 0.445179 -0.552891
C44   C     C_3   0.305881 0.163551 0.353646 0.097662
H27   H     H_    0.350604 0.176898 0.328554 0.179699
H28   H     H_    0.260640 0.186839 0.329094 0.115335
C45   C     C_3   0.255534 0.065315 0.317248 -0.345057
H29   H     H_    0.300336 0.043794 0.346146 0.262173
H30   H     H_    0.204103 0.049612 0.333919 0.230522
C46   C     C_3   0.212711 0.015433 0.218905 -0.893378
H31   H     H_    0.167091 0.035525 0.188656 0.261688
H32   H     H_    0.175874 0.944726 0.194552 0.265440
H33   H     H_    0.262573 0.027597 0.199813 0.264006
O31   O     O_3   0.032789 0.750244 0.406559 -0.590515
C47   C     C_3   0.101652 0.732568 0.433113 0.092955
H34   H     H_    0.152033 0.785038 0.500765 0.177036
H35   H     H_    0.134905 0.733289 0.394938 0.133640
C48   C     C_3   0.069308 0.646101 0.432213 -0.348417
H36   H     H_    0.046307 0.650655 0.478984 0.244855
H37   H     H_    0.013979 0.593198 0.366887 0.216464
C49   C     C_3   0.140922 0.623082 0.456499 -0.894343
H38   H     H_    0.162894 0.615624 0.408864 0.244703
H39   H     H_    0.115828 0.560740 0.456307 0.272396
H40   H     H_    0.196882 0.674547 0.522190 0.263412
N3    N     N_R   0.996257 0.273195 0.609938 0.144354
O32   O     O_R   0.958381 0.316303 0.591350 -0.313755
O33   O     O_R   0.039745 0.256667 0.573239 -0.359295
N4    N     N_R   0.211189 0.377435 0.093392 0.116614
O34   O     O_R   0.250719 0.332626 0.089850 -0.343771
O35   O     O_R   0.152568 0.364274 0.021996 -0.381690

loop_
_geom_bond_atom_site_label_1
_geom_bond_atom_site_label_2
_geom_bond_distance
_ccdc_geom_bond_type
C5    H2    1.110211 S    
O27   C41   1.415678 S    
Cu4   O16   1.969728 S    
C7    C8    1.522976 S    
C33   C35   1.483723 S    
C20   O27   1.392345 S    
N2    O29   1.301501 A    
C46   H31   1.110935 S    
Cu1   Cu2   2.675575 S    
C19   H11   1.087094 S    
C34   H14   1.087155 S    
Cu1   O7    1.967467 S    
O4    C2    1.285571 A    
C17   C18   1.349278 D    
C37   N3    1.440563 S    
O3    Cu1   1.971914 S    
C3    C24   1.463234 S    
Cu2   O6    1.960482 S    
O7    C4    1.298192 A    
C39   H18   1.086634 S    
O20   Cu6   1.963458 S    
C1    C16   1.455062 S    
C5    C6    1.552681 S    
C44   H27   1.111130 S    
C24   H13   1.086831 S    
Cu6   O22   1.960792 S    
O5    C3    1.294428 A    
O31   C47   1.417845 S    
C29   C38   1.457906 S    
O17   C29   1.299509 A    
C14   C30   1.455129 S    
O18   Cu6   1.965545 S    
N4    O34   1.300231 A    
O19   C30   1.298887 A    
C31   C34   1.459377 S    
O21   C31   1.292980 A    
C49   H40   1.110800 S    
O30   C44   1.417136 S    
Cu6   O24   1.963289 S    
C11   H5    1.110077 S    
O12   Cu4   1.969785 S    
Cu2   O8    1.971916 S    
C7    C26   1.462474 S    
O15   C28   1.289498 A    
O9    C25   1.295580 A    
O20   C30   1.289956 A    
C9    C10   1.552996 S    
O24   C32   1.298365 A    
C8    N4    1.457115 S    
O23   C32   1.291441 A    
N2    O28   1.300961 A    
C42   H23   1.111674 S    
C27   C40   1.457372 S    
C42   H22   1.111579 S    
C47   H35   1.116914 S    
C22   C32   1.459098 S    
C5    C8    1.533695 S    
Cu3   O13   1.965992 S    
O16   C28   1.296282 A    
C13   C15   1.475035 S    
C7    C10   1.539186 S    
C38   H17   1.085802 S    
C36   H16   1.087080 S    
C19   C20   1.347530 D    
C35   H15   1.084901 S    
C39   C40   1.342434 D    
Cu5   Cu6   2.684970 S    
O14   C27   1.294375 A    
C41   C42   1.528250 S    
C23   C24   1.350176 D    
C43   H26   1.110940 S    
C33   O31   1.392605 S    
O13   C27   1.289958 A    
C21   N2    1.440831 S    
C46   H32   1.110538 S    
O1    C1    1.295256 A    
C21   C23   1.482609 S    
C15   H8    1.086332 S    
O9    Cu3   1.960077 S    
C22   H12   1.087149 S    
C18   H10   1.084169 S    
O22   C31   1.297281 A    
N1    O26   1.301520 A    
C37   C38   1.350335 D    
Cu5   O23   1.963455 S    
O19   Cu5   1.963292 S    
C2    C12   1.461223 S    
C43   H25   1.110355 S    
C45   H30   1.109479 S    
C33   C34   1.346268 D    
C41   H21   1.111438 S    
N4    O35   1.299958 A    
C5    C12   1.536697 S    
O8    C4    1.286462 A    
C6    C11   1.548567 S    
Cu4   O14   1.960296 S    
C49   H38   1.110798 S    
O3    C2    1.288784 A    
C21   C22   1.350074 D    
C48   H37   1.109592 S    
C42   C43   1.526180 S    
O12   C26   1.287352 A    
N3    O32   1.301110 A    
Cu3   O15   1.969569 S    
C47   C48   1.531078 S    
C17   N1    1.438639 S    
Cu1   O5    1.966223 S    
C9    H3    1.110185 S    
Cu3   Cu4   2.676062 S    
C13   C14   1.339757 D    
C45   H29   1.111562 S    
O1    Cu1   1.960480 S    
C17   C19   1.481954 S    
O2    Cu2   1.966223 S    
O18   C29   1.289695 A    
O6    C3    1.292074 A    
C25   C36   1.455138 S    
O4    Cu2   1.967467 S    
C18   C28   1.460115 S    
C47   H34   1.111094 S    
C44   C45   1.532892 S    
O17   Cu5   1.960790 S    
O11   Cu3   1.969847 S    
C15   C16   1.340230 D    
C48   C49   1.526201 S    
C13   H6    1.086277 S    
O2    C1    1.287912 A    
C14   H7    1.086319 S    
O10   Cu4   1.965993 S    
N1    O25   1.300993 A    
C6    H1    1.110130 S    
C6    C7    1.539034 S    
C43   H24   1.110928 S    
C16   H9    1.086272 S    
C44   H28   1.117654 S    
C45   C46   1.525875 S    
C41   H20   1.116578 S    
C46   H33   1.110834 S    
C11   C12   1.538439 S    
C4    C20   1.467240 S    
C35   C36   1.337832 D    
C37   C39   1.481611 S    
C8    C9    1.533676 S    
Cu5   O21   1.965546 S    
O10   C25   1.287747 A    
C10   H4    1.110261 S    
C9    C12   1.536752 S    
C49   H39   1.110346 S    
C40   H19   1.085599 S    
C10   C11   1.548531 S    
O11   C26   1.287222 A    
C48   H36   1.111598 S    
C23   O30   1.386980 S    
N3    O33   1.301505 A    
