data_mof_unit_49821.cif
_audit_creation_date              2012-12-10T17:12:04-0500
_audit_creation_method            fapswitch 2.2
_symmetry_space_group_name_H-M    P1
_symmetry_Int_Tables_number       1
_space_group_crystal_system       triclinic
_cell_length_a                    11.699596
_cell_length_b                    12.812387
_cell_length_c                    15.592005
_cell_angle_alpha                 93.788616
_cell_angle_beta                  75.107581
_cell_angle_gamma                 102.300203
_cell_volume                      2206.72178716

loop_
_atom_site_label
_atom_site_type_symbol
_atom_type_description
_atom_site_fract_x
_atom_site_fract_y
_atom_site_fract_z
_atom_type_partial_charge
C1    C     C_R   0.524278 0.703767 0.499006 0.863264
C2    C     C_R   0.469250 0.300478 0.517221 0.820874
C3    C     C_R   0.387896 0.336762 0.067549 0.155520
C4    C     C_R   0.660173 0.454168 0.900150 0.109722
C5    C     C_R   0.295484 0.325002 0.022307 0.170815
C6    C     C_R   0.739698 0.505440 0.950532 0.169094
C7    C     C_R   0.439161 0.187555 0.551113 -0.151057
C8    C     C_R   0.535794 0.822659 0.508171 -0.133710
C9    C     C_R   0.614566 0.983496 0.584476 0.389149
C10   C     C_R   0.316953 0.007050 0.555529 0.467240
C11   C     C_R   0.631944 0.888394 0.537558 -0.011693
C12   C     C_R   0.324032 0.118941 0.558593 -0.047041
C13   C     C_R   0.438736 0.868341 0.501290 0.121827
C14   C     C_R   0.525480 0.145724 0.581554 0.081761
C15   C     C_R   0.425584 0.969020 0.541733 -0.089700
C16   C     C_R   0.521129 0.033016 0.573688 -0.056650
C17   C     C_R   0.949378 0.597735 0.583315 -0.216317
C18   C     C_R   0.049568 0.399723 0.418606 -0.256820
C19   C     C_R   0.829375 0.588083 0.577662 0.337100
C20   C     C_R   0.167364 0.405180 0.428217 0.376001
C21   C     C_R   0.855938 0.457016 0.463608 0.084417
C22   C     C_R   0.145683 0.546089 0.533611 0.118698
C23   C     C_R   0.426658 0.490755 0.669240 0.822284
C24   C     C_R   0.573672 0.508099 0.330620 0.876967
C25   C     C_R   0.976799 0.465010 0.469221 0.020145
C26   C     C_R   0.024540 0.537376 0.528624 0.016744
C27   C     C_R   0.382415 0.459351 0.764576 -0.204754
C28   C     C_R   0.620949 0.509964 0.231812 -0.221004
C29   C     C_R   0.237988 0.345957 0.880722 0.060833
C30   C     C_R   0.787651 0.530338 0.097578 0.058746
C31   C     C_R   0.262062 0.407704 0.803666 0.365586
C32   C     C_R   0.744777 0.549131 0.189447 0.425858
C33   C     C_R   0.469841 0.463509 0.811883 -0.289855
C34   C     C_R   0.542465 0.462267 0.179223 -0.299332
C35   C     C_R   0.444415 0.413642 0.894247 0.027753
C36   C     C_R   0.582633 0.450914 0.086166 0.034792
C37   C     C_R   0.324261 0.360724 0.933028 0.035993
C38   C     C_R   0.704373 0.496428 0.044375 0.031543
C39   C     C_R   0.535575 0.423558 0.941326 0.008532
C40   C     C_R   0.501273 0.404233 0.033145 0.011044
Cu1   Cu    Cu3+1 0.386820 0.492450 0.493500 0.988193
Cu2   Cu    Cu3+1 0.613180 0.507550 0.506500 0.956709
H1    H     H_    0.983461 0.651970 0.631663 0.201269
H2    H     H_    0.012457 0.341042 0.374340 0.143912
H3    H     H_    0.447888 0.437901 0.211398 0.190891
H4    H     H_    0.558619 0.510515 0.784771 0.195096
H5    H     H_    0.182370 0.603207 0.578694 0.202905
H6    H     H_    0.819941 0.401029 0.417310 0.142734
N1    N     N_R   0.216750 0.481110 0.483710 -0.187667
N2    N     N_R   0.783250 0.518890 0.516290 -0.183786
O1    O     O_R   0.419950 0.645670 0.495380 -0.581240
O2    O     O_R   0.580050 0.354330 0.504620 -0.589699
O3    O     O_R   0.611110 0.658410 0.506370 -0.585844
O4    O     O_R   0.388890 0.341590 0.493630 -0.588337
O5    O     O_R   0.350820 0.490050 0.621260 -0.499566
O6    O     O_R   0.649180 0.509950 0.378740 -0.517602
O7    O     O_R   0.541970 0.502800 0.632250 -0.612213
O8    O     O_R   0.458030 0.497200 0.367750 -0.596463
C41   C     C_3   0.166050 0.290505 0.075947 -0.829285
H7    H     H_    0.157595 0.302863 0.148188 0.235980
H8    H     H_    0.108211 0.341052 0.060238 0.236085
H9    H     H_    0.131153 0.204621 0.064650 0.242150
C42   C     C_3   0.846943 0.588759 0.904411 -0.765926
H10   H     H_    0.830904 0.619180 0.844398 0.228847
H11   H     H_    0.861144 0.659687 0.948215 0.236128
H12   H     H_    0.929834 0.556019 0.883759 0.285038
C43   C     C_3   0.229841 0.318900 0.380725 -0.780372
H13   H     H_    0.179581 0.272782 0.334371 0.180579
H14   H     H_    0.321388 0.350280 0.341066 0.241406
H15   H     H_    0.230917 0.259561 0.428145 0.241452
C44   C     C_3   0.758677 0.656338 0.644155 -0.813322
H16   H     H_    0.814240 0.738118 0.643999 0.240942
H17   H     H_    0.672663 0.664719 0.633386 0.271307
H18   H     H_    0.741221 0.625682 0.711824 0.196089
S1    S     S_3+6 0.847185 0.629670 0.246383 0.003054
O9    O     O_2   0.908225 0.558075 0.283884 -0.333348
O10   O     O_2   0.941908 0.706511 0.183677 -0.262728
O11   O     O_3   0.775178 0.701579 0.328398 -0.539951
H19   H     H_    0.819621 0.705607 0.375052 0.380338
S2    S     S_3+6 0.137760 0.432523 0.767385 -0.022004
O12   O     O_2   0.126059 0.370229 0.684201 -0.276262
O13   O     O_2   0.021583 0.400661 0.836893 -0.338010
O14   O     O_3   0.159476 0.563508 0.747224 -0.527362
H20   H     H_    0.166877 0.599816 0.804208 0.343337
C45   C     C_3   0.135951 0.248616 0.892484 -0.693217
H21   H     H_    0.114389 0.222268 0.828105 0.264250
H22   H     H_    0.163573 0.179672 0.915133 0.220564
H23   H     H_    0.052622 0.265138 0.939160 0.250499
C46   C     C_3   0.919996 0.525996 0.060671 -0.731859
H24   H     H_    0.958340 0.500604 0.112081 0.257003
H25   H     H_    0.930831 0.464405 0.007402 0.238340
H26   H     H_    0.973854 0.604814 0.035079 0.259844
C47   C     C_3   0.373688 0.257495 0.139185 -0.846446
H27   H     H_    0.461475 0.253369 0.152308 0.242811
H28   H     H_    0.312368 0.278338 0.201040 0.219116
H29   H     H_    0.335245 0.176000 0.117856 0.256489
C48   C     C_3   0.714078 0.409487 0.809896 -0.748909
H30   H     H_    0.645240 0.352347 0.783869 0.226843
H31   H     H_    0.759079 0.473281 0.761072 0.223056
H32   H     H_    0.782621 0.364187 0.815919 0.291297
C49   C     C_3   0.619999 0.221069 0.619129 -0.665952
H33   H     H_    0.601241 0.302114 0.633972 0.213296
H34   H     H_    0.616465 0.197672 0.686185 0.276942
H35   H     H_    0.711339 0.225609 0.574093 0.241001
C50   C     C_3   0.372554 0.824961 0.430314 -0.648497
H36   H     H_    0.433881 0.791869 0.373384 0.198960
H37   H     H_    0.293101 0.760924 0.456240 0.273988
H38   H     H_    0.343046 0.889388 0.402626 0.229752
C51   C     C_3   0.208462 0.161091 0.582057 -0.632451
H39   H     H_    0.149410 0.125401 0.537772 0.250873
H40   H     H_    0.161100 0.142444 0.652103 0.279984
H41   H     H_    0.221031 0.247874 0.580122 0.252987
C52   C     C_3   0.760046 0.872780 0.501894 -0.692801
H42   H     H_    0.826604 0.938415 0.522636 0.273594
H43   H     H_    0.773913 0.797554 0.523153 0.248914
H44   H     H_    0.782306 0.874411 0.428426 0.237325
S3    S     S_3+6 0.678368 0.008688 0.678004 -0.000884
O15   O     O_2   0.788014 0.097635 0.658819 -0.259980
O16   O     O_2   0.586858 0.036762 0.758421 -0.290475
O17   O     O_3   0.721088 0.899124 0.701843 -0.522517
H45   H     H_    0.644661 0.847142 0.724240 0.349163
S4    S     S_3+6 0.174173 0.914700 0.581510 -0.028494
O18   O     O_2   0.124171 0.897589 0.500833 -0.321634
O19   O     O_2   0.190204 0.809871 0.609530 -0.322412
O20   O     O_3   0.072778 0.958832 0.665343 -0.507153
H46   H     H_    0.995350 0.908042 0.667339 0.398969

loop_
_geom_bond_atom_site_label_1
_geom_bond_atom_site_label_2
_ccdc_geom_bond_type
C42   H11   S    
C8    C13   A    
C5    C37   A    
C1    C8    S    
C9    S3    S    
Cu1   Cu2   S    
C20   C43   S    
C19   C44   S    
C2    C7    S    
C32   S1    S    
C48   H30   S    
C31   S2    S    
C45   H21   S    
C27   C33   A    
C50   H37   S    
C47   H27   S    
C17   C26   A    
C35   C37   A    
C9    C16   A    
Cu1   O8    S    
C10   C15   A    
S3    O16   D    
Cu2   O3    S    
C33   C35   A    
C15   C16   A    
C30   C38   A    
C18   C20   A    
S1    O10   D    
C1    O3    A    
Cu1   O5    S    
Cu2   O6    S    
C7    C14   A    
C6    C38   A    
C23   C27   S    
C46   H25   S    
C29   C45   S    
C21   H6    S    
C22   H5    S    
C42   H12   S    
C28   C34   A    
C41   H7    S    
C47   H28   S    
C4    C48   S    
C33   H4    S    
C18   C25   A    
S2    O14   S    
C10   C12   A    
Cu2   O7    S    
Cu1   N1    S    
C12   C51   S    
C48   H31   S    
C45   H22   S    
C7    C12   A    
C50   H38   S    
C41   H8    S    
C30   C46   S    
C5    C41   S    
C27   C31   A    
C43   H13   S    
C49   H33   S    
C36   C40   A    
S2    O13   D    
C2    O4    A    
S3    O17   S    
C39   C40   A    
C44   H17   S    
O11   H19   S    
C14   C49   S    
C10   S4    S    
C25   C26   A    
C43   H14   S    
C6    C42   S    
C35   C39   A    
S1    O9    D    
C17   H1    S    
C20   N1    A    
C18   H2    S    
C9    C11   A    
O14   H20   S    
C4    C39   A    
C28   C32   A    
C3    C47   S    
C34   H3    S    
C46   H26   S    
C1    O1    A    
C2    O2    A    
Cu2   N2    S    
C22   N1    A    
C24   O8    A    
C4    C6    A    
C3    C40   A    
C47   H29   S    
C13   C15   A    
O20   H46   S    
C14   C16   A    
C51   H41   S    
S4    O19   D    
C48   H32   S    
O17   H45   S    
C52   H42   S    
C45   H23   S    
C23   O7    A    
C21   C25   A    
C41   H9    S    
C24   C28   S    
S2    O12   D    
C3    C5    A    
C44   H18   S    
C23   O5    A    
C24   O6    A    
C50   H36   S    
C43   H15   S    
C52   H44   S    
S4    O20   S    
C51   H40   S    
S4    O18   D    
C44   H16   S    
C29   C31   A    
C51   H39   S    
C30   C32   A    
C19   N2    A    
C8    C11   A    
C36   C38   A    
C17   C19   A    
C34   C36   A    
C21   N2    A    
C11   C52   S    
S1    O11   S    
Cu1   O4    S    
C42   H10   S    
C49   H34   S    
C22   C26   A    
C29   C37   A    
C49   H35   S    
C46   H24   S    
S3    O15   D    
Cu1   O1    S    
Cu2   O2    S    
C13   C50   S    
C52   H43   S    
