data_mof_unit_15283.cif
_audit_creation_date              2012-12-10T17:18:57-0500
_audit_creation_method            fapswitch 2.2
_symmetry_space_group_name_H-M    P1
_symmetry_Int_Tables_number       1
_space_group_crystal_system       triclinic
_cell_length_a                    9.724367
_cell_length_b                    10.91698
_cell_length_c                    13.486945
_cell_angle_alpha                 94.606591
_cell_angle_beta                  73.55507
_cell_angle_gamma                 88.553403
_cell_volume                      1367.0517155

loop_
_atom_site_label
_atom_site_type_symbol
_atom_type_description
_atom_site_fract_x
_atom_site_fract_y
_atom_site_fract_z
_atom_type_partial_charge
C1    C     C_R   0.500421 0.736055 0.492976 0.821616
C2    C     C_R   0.442619 0.450485 0.973630 0.061452
C3    C     C_R   0.488670 0.445536 0.863790 -0.013589
C4    C     C_R   0.546213 0.478534 0.028261 0.049384
C5    C     C_R   0.691688 0.488729 0.971014 -0.085583
C6    C     C_R   0.736714 0.439115 0.866432 -0.027675
C7    C     C_R   0.634185 0.410746 0.814625 0.142064
C8    C     C_R   0.510721 0.501255 0.136718 -0.177682
C9    C     C_R   0.752402 0.553595 0.130234 0.151510
C10   C     C_R   0.385842 0.457177 0.807943 -0.177219
C11   C     C_R   0.252757 0.894388 0.459455 -0.130767
C12   C     C_R   0.424688 0.488341 0.698077 0.807541
C13   C     C_R   0.117881 0.955247 0.505110 -0.166240
C14   C     C_R   0.106528 0.065490 0.567248 0.187730
C15   C     C_R   0.230723 0.123201 0.573179 -0.179207
C16   C     C_R   0.366944 0.065999 0.524190 0.060415
C17   C     C_R   0.374038 0.940855 0.486912 0.003554
C18   C     C_R   0.499032 0.869102 0.484812 -0.187729
C19   C     C_R   0.621531 0.927842 0.492175 -0.150886
C20   C     C_R   0.623388 0.054040 0.502491 0.125260
C21   C     C_R   0.496284 0.127425 0.515115 -0.163829
C22   C     C_R   0.907447 0.334565 0.363885 -0.214484
C23   C     C_R   0.498689 0.262814 0.507063 0.748047
C24   C     C_R   0.992311 0.237007 0.306607 -0.338097
C25   C     C_R   0.128428 0.217911 0.313517 0.136271
C26   C     C_R   0.190314 0.309436 0.364413 0.208797
C27   C     C_R   0.101452 0.410625 0.433616 0.152045
C28   C     C_R   0.952119 0.415811 0.433429 0.120861
C29   C     C_R   0.900090 0.582631 0.561822 0.299520
C30   C     C_R   0.048046 0.583776 0.559934 0.012026
C31   C     C_R   0.576272 0.508058 0.301313 0.815421
C32   C     C_R   0.786726 0.545072 0.021593 0.205982
C33   C     C_R   0.616543 0.518551 0.187969 -0.157980
C34   C     C_R   0.244063 0.433457 0.857452 -0.198102
C35   C     C_R   0.203116 0.404702 0.960022 0.183755
C36   C     C_R   0.299402 0.418046 0.020365 0.119506
Cu1   Cu    Cu3+1 0.359340 0.500010 0.500010 0.981955
Cu2   Cu    Cu3+1 0.640660 0.499990 0.499990 0.944418
H1    H     H_    0.021931 0.918859 0.490745 0.175800
H2    H     H_    0.219512 0.209873 0.620054 0.146902
H3    H     H_    0.802391 0.335422 0.356435 0.229640
H4    H     H_    0.949076 0.172146 0.259500 0.169449
H5    H     H_    0.081254 0.652041 0.610050 0.129076
H6    H     H_    0.401157 0.509008 0.183589 0.229155
H7    H     H_    0.167327 0.428710 0.813865 0.190860
H8    H     H_    0.719564 0.875720 0.488436 0.185583
N1    N     N_R   0.852480 0.498790 0.499000 -0.200697
N2    N     N_R   0.148360 0.498710 0.498970 -0.192597
O1    O     O_R   0.381190 0.680360 0.500010 -0.576450
O2    O     O_R   0.618760 0.680340 0.500000 -0.557881
O3    O     O_R   0.323240 0.499990 0.650990 -0.588836
O4    O     O_R   0.560820 0.499960 0.650980 -0.557584
O5    O     O_R   0.381240 0.319660 0.500000 -0.568485
O6    O     O_R   0.618810 0.319640 0.499990 -0.623514
O7    O     O_R   0.439180 0.500040 0.349020 -0.529202
O8    O     O_R   0.676760 0.500010 0.349010 -0.622209
N3    N     N_3   0.851892 0.608074 0.179510 -0.545368
H9    H     H_    0.798306 0.679883 0.233822 0.233789
H10   H     H_    0.891323 0.541847 0.217549 0.232012
C37   C     C_2   0.266092 0.796931 0.372441 0.909684
O9    O     O_2   0.163437 0.735719 0.370248 -0.583512
O10   O     O_R   0.392397 0.775828 0.290519 -0.745896
H11   H     H_    0.466950 0.838496 0.291690 0.285423
N4    N     N_3   0.968598 0.121698 0.620193 -0.576783
H12   H     H_    0.958922 0.129801 0.699598 0.264259
H13   H     H_    0.965189 0.210318 0.596553 0.225040
N5    N     N_3   0.757754 0.102713 0.500498 -0.577845
H14   H     H_    0.791509 0.143077 0.431724 0.244695
H15   H     H_    0.743676 0.166892 0.564082 0.265188
N6    N     N_3   0.799264 0.670171 0.631284 -0.521487
H16   H     H_    0.833438 0.758216 0.614647 0.192365
H17   H     H_    0.802058 0.658052 0.706822 0.208071
N7    N     N_3   0.210461 0.108182 0.261338 -0.608341
H18   H     H_    0.211690 0.101241 0.183366 0.222801
H19   H     H_    0.157535 0.032734 0.294389 0.239229
N8    N     N_3   0.343105 0.300391 0.331629 -0.492496
H20   H     H_    0.378866 0.307565 0.251823 0.228254
H21   H     H_    0.378972 0.212457 0.342091 0.230047
C38   C     C_2   0.883535 0.386794 0.817866 0.812030
O11   O     O_2   0.929686 0.302634 0.855660 -0.588100
O12   O     O_R   0.962974 0.425338 0.723554 -0.822657
H22   H     H_    0.056271 0.375240 0.692051 0.317978
N9    N     N_3   0.905679 0.611152 0.966033 -0.548131
H23   H     H_    0.982701 0.550810 0.915702 0.235436
H24   H     H_    0.868515 0.671718 0.921978 0.212154
N10   N     N_3   0.256739 0.381053 0.123290 -0.641684
H25   H     H_    0.229956 0.289404 0.119134 0.225031
H26   H     H_    0.166978 0.435563 0.167394 0.235262
N11   N     N_3   0.064758 0.356906 0.000891 -0.538925
H27   H     H_    0.011092 0.408124 0.070181 0.226914
H28   H     H_    0.078457 0.265944 0.016613 0.229288
N12   N     N_3   0.673401 0.318029 0.727936 -0.576687
H29   H     H_    0.740029 0.355182 0.663564 0.268477
H30   H     H_    0.583358 0.283168 0.710021 0.215411

loop_
_geom_bond_atom_site_label_1
_geom_bond_atom_site_label_2
_ccdc_geom_bond_type
C27   N2    A    
C28   N1    A    
C16   C21   A    
C24   H4    S    
N7    H18   S    
C20   N5    S    
C19   C20   A    
C4    C8    A    
O12   H22   S    
C6    C38   S    
C19   H8    S    
C1    C18   S    
O10   H11   S    
C29   N1    A    
C30   N2    A    
Cu1   Cu2   S    
N8    H21   S    
C18   C19   A    
C3    C7    A    
C5    C6    A    
Cu1   O3    S    
N10   H26   S    
N3    H10   S    
C22   H3    S    
Cu2   O4    S    
C15   C16   A    
C37   O10   S    
C34   C35   A    
C9    C32   A    
C35   C36   A    
C16   C17   A    
C26   N8    S    
C31   C33   S    
N6    H16   S    
C31   O8    A    
N11   H28   S    
C1    O2    A    
C25   N7    S    
C5    C32   A    
Cu1   O5    S    
C22   C28   A    
C13   C14   A    
C9    C33   A    
N7    H19   S    
C12   O4    A    
C23   O5    A    
N5    H14   S    
N8    H20   S    
C38   O12   S    
N10   H25   S    
C36   N10   S    
C25   C26   A    
C37   O9    D    
N5    H15   S    
N4    H13   S    
C2    C4    A    
C29   C30   A    
Cu1   O1    S    
N9    H23   S    
Cu2   O6    S    
C14   N4    S    
N12   H30   S    
C17   C18   A    
C26   C27   A    
C10   C34   A    
C34   H7    S    
C24   C25   A    
Cu1   N2    S    
Cu2   N1    S    
C10   C12   S    
C35   N11   S    
N9    H24   S    
C21   C23   S    
C22   C24   A    
C30   H5    S    
C11   C37   S    
C12   O3    A    
C23   O6    A    
C29   N6    S    
C2    C36   A    
C32   N9    S    
C11   C17   A    
C8    H6    S    
C4    C5    A    
C6    C7    A    
Cu2   O2    S    
N4    H12   S    
C2    C3    A    
C3    C10   A    
C11   C13   A    
N3    H9    S    
C7    N12   S    
N12   H29   S    
C9    N3    S    
C8    C33   A    
C15   H2    S    
C13   H1    S    
C38   O11   D    
Cu1   O7    S    
Cu2   O8    S    
C20   C21   A    
C27   C28   A    
C14   C15   A    
N6    H17   S    
C31   O7    A    
N11   H27   S    
C1    O1    A    
