data_mof_unit_19306.cif
_audit_creation_date              2013-03-05T15:45:20-0500
_audit_creation_method            fapswitch 2.2
_symmetry_space_group_name_H-M    P1
_symmetry_Int_Tables_number       1
_space_group_crystal_system       triclinic
_cell_length_a                    10.86171
_cell_length_b                    11.011138
_cell_length_c                    9.965831
_cell_angle_alpha                 110.843095
_cell_angle_beta                  99.89655
_cell_angle_gamma                 92.025079
_cell_volume                      1091.29186318

loop_
_atom_site_label
_atom_site_type_symbol
_atom_site_description
_atom_site_fract_x
_atom_site_fract_y
_atom_site_fract_z
_atom_type_partial_charge
O1    O     O_R   0.511700 0.332340 0.577400 -0.547051
O2    O     O_R   0.488300 0.667660 0.422600 -0.522088
O3    O     O_R   0.474680 0.295500 0.332650 -0.643354
O4    O     O_R   0.525320 0.704500 0.667350 -0.553033
C1    C     C_R   0.489543 0.254213 0.440861 0.798635
C2    C     C_R   0.511848 0.745793 0.559415 0.902250
O5    O     O_R   0.338170 0.518410 0.622370 -0.542678
O6    O     O_R   0.661830 0.481590 0.377630 -0.525972
O7    O     O_R   0.301150 0.481570 0.377630 -0.585930
O8    O     O_R   0.698850 0.518430 0.622370 -0.599583
C3    C     C_R   0.263037 0.500580 0.498946 0.822752
C4    C     C_R   0.736629 0.486121 0.497826 0.798159
Cu1   Cu    Cu3+1 0.521920 0.521810 0.644910 1.062447
Cu2   Cu    Cu3+1 0.478080 0.478190 0.355090 1.041669
H1    H     H_    0.075045 0.066506 0.175951 0.225694
H2    H     H_    0.006055 0.747033 0.985224 0.205475
C5    C     C_R   0.149066 0.711935 0.697073 -0.098766
C6    C     C_R   0.844830 0.264870 0.268156 -0.166199
C7    C     C_R   0.122576 0.768972 0.838907 0.348890
C8    C     C_R   0.900930 0.151037 0.199128 0.320012
C9    C     C_R   0.023297 0.710720 0.874589 -0.080226
C10   C     C_R   0.030839 0.152489 0.229027 -0.137363
C11   C     C_R   0.941059 0.610252 0.765882 -0.130782
C12   C     C_R   0.105403 0.265421 0.321997 -0.190742
C13   C     C_R   0.960725 0.559916 0.620690 0.036873
C14   C     C_R   0.051747 0.378337 0.398660 0.061480
C15   C     C_R   0.078956 0.592047 0.598663 0.043025
C16   C     C_R   0.919251 0.374655 0.384383 0.031282
C17   C     C_R   0.872084 0.471838 0.498998 -0.138872
C18   C     C_R   0.128466 0.494038 0.493416 -0.067730
H3    H     H_    0.870620 0.564382 0.800695 0.182689
H4    H     H_    0.205827 0.260651 0.337620 0.162199
H5    H     H_    0.436394 0.866118 0.378923 0.244763
H6    H     H_    0.525616 0.137033 0.631739 0.220524
C19   C     C_2   0.477736 0.114466 0.408762 -0.276744
C20   C     C_2   0.520571 0.885832 0.593287 -0.304550
C21   C     C_2   0.496626 0.070461 0.518455 -0.104781
C22   C     C_2   0.480794 0.931556 0.488283 -0.039587
H7    H     H_    0.560336 0.951799 0.704495 0.192864
H8    H     H_    0.451833 0.047368 0.295465 0.218962
N1    N     N_2   0.445130 0.445420 0.137360 -0.304208
N2    N     N_2   0.554870 0.554580 0.862640 -0.288411
C23   C     C_2   0.497952 0.524253 0.084048 0.360233
C24   C     C_2   0.477904 0.501183 0.921184 0.320911
C25   C     C_2   0.240664 0.782204 0.649305 0.409115
H9    H     H_    0.318474 0.847267 0.728193 0.129942
O9    O     O_2   0.226860 0.771708 0.521285 -0.539748
C26   C     C_2   0.723022 0.276129 0.185687 0.498818
H10   H     H_    0.639741 0.215203 0.178265 0.121632
O10   O     O_2   0.717260 0.348590 0.116725 -0.527202
N3    N     N_R   0.196537 0.882899 0.948107 0.103287
O11   O     O_R   0.211017 0.989441 0.921585 -0.369468
O12   O     O_R   0.232936 0.886626 0.081029 -0.360007
N4    N     N_R   0.827180 0.035617 0.091464 0.127772
O13   O     O_R   0.871366 0.964565 0.978618 -0.320132
O14   O     O_R   0.721003 0.994516 0.112568 -0.316592
N5    N     N_R   0.356278 0.439659 0.836821 0.137049
O15   O     O_R   0.344517 0.324779 0.733783 -0.317795
O16   O     O_R   0.256227 0.487086 0.881571 -0.379772
N6    N     N_R   0.557896 0.650543 0.181566 0.104364
O17   O     O_R   0.667242 0.660665 0.264221 -0.322252
O18   O     O_R   0.521170 0.753556 0.157718 -0.349028
C27   C     C_2   0.676933 0.611829 0.942544 0.624855
H11   H     H_    0.730793 0.570154 0.014587 0.058988
O19   O     O_2   0.722217 0.709194 0.930083 -0.457956
C28   C     C_2   0.399402 0.313529 0.046728 0.635619
H12   H     H_    0.318752 0.267594 0.067896 0.097164
O20   O     O_2   0.455355 0.247939 0.954071 -0.541794

loop_
_geom_bond_atom_site_label_1
_geom_bond_atom_site_label_2
_geom_bond_distance
_ccdc_geom_bond_type
C7    C9    1.394966 A    
C28   O20   1.221868 D    
O7    Cu2   1.972945 S    
C27   O19   1.218700 D    
H2    C9    1.083123 S    
C14   C18   1.416884 A    
C21   C22   1.447665 S    
C7    N3    1.435314 S    
C4    C17   1.483661 S    
C13   C15   1.393763 A    
H6    C21   1.087944 S    
N1    C23   1.327681 D    
C14   C16   1.419289 A    
H5    C22   1.084201 S    
O6    C4    1.310531 A    
C24   N5    1.435502 S    
C23   C24   1.525619 S    
C26   O10   1.221386 D    
C19   H8    1.087360 S    
C6    C26   1.466837 S    
H1    C10   1.081550 S    
Cu1   Cu2   2.706209 S    
C15   C18   1.408325 A    
O5    C3    1.299718 A    
O7    C3    1.294210 A    
C12   C14   1.413343 A    
N5    O15   1.300008 A    
O2    C2    1.301718 A    
O3    Cu2   1.941594 S    
N2    C24   1.327400 D    
C23   N6    1.434906 S    
N6    O17   1.300210 A    
Cu2   N1    2.033064 S    
O1    C1    1.299744 A    
O8    C4    1.306390 A    
O4    C2    1.297629 A    
C26   H10   1.082861 S    
C19   C21   1.333720 D    
C2    C20   1.452214 S    
Cu1   N2    2.033063 S    
C28   H12   1.084361 S    
C10   C12   1.382637 A    
C9    C11   1.392853 A    
C13   C17   1.426184 A    
O2    Cu2   1.943358 S    
N4    O14   1.301270 A    
N5    O16   1.301366 A    
O1    Cu1   1.943359 S    
C8    C10   1.389448 A    
N1    C28   1.425820 S    
C20   C22   1.330448 D    
C5    C15   1.426649 A    
C1    C19   1.451987 S    
O5    Cu1   1.967195 S    
C11   C13   1.410825 A    
C6    C16   1.438434 A    
N3    O12   1.301124 A    
C3    C18   1.451460 S    
C6    C8    1.414238 A    
C8    N4    1.438868 S    
C25   O9    1.221333 D    
C12   H4    1.080867 S    
N4    O13   1.301195 A    
C16   C17   1.443032 A    
O6    Cu2   1.967195 S    
C5    C7    1.412810 A    
C25   H9    1.083337 S    
N2    C27   1.417767 S    
C20   H7    1.087598 S    
N6    O18   1.301331 A    
N3    O11   1.301073 A    
O4    Cu1   1.941594 S    
C5    C25   1.478401 S    
C27   H11   1.085061 S    
O3    C1    1.299974 A    
O8    Cu1   1.972944 S    
C11   H3    1.072137 S    
