data_mof_unit_10990.cif
_audit_creation_date              2012-12-11T16:29:23-0500
_audit_creation_method            fapswitch 2.2
_symmetry_space_group_name_H-M    P1
_symmetry_Int_Tables_number       1
_space_group_crystal_system       triclinic
_cell_length_a                    6.94997
_cell_length_b                    17.360658
_cell_length_c                    18.726691
_cell_angle_alpha                 106.228358
_cell_angle_beta                  89.745259
_cell_angle_gamma                 90.38223
_cell_volume                      2169.40426065

loop_
_atom_site_label
_atom_site_type_symbol
_atom_type_description
_atom_site_fract_x
_atom_site_fract_y
_atom_site_fract_z
_atom_type_partial_charge
O1    O     O_R   0.494360 0.415680 0.413760 -0.535076
O2    O     O_R   0.818810 0.432910 0.557230 -0.539923
O3    O     O_R   0.994290 0.584320 0.586240 -0.546504
C1    C     C_R   0.649737 0.415574 0.580283 0.744274
O4    O     O_R   0.823740 0.406440 0.412520 -0.535599
O5    O     O_R   0.999250 0.557660 0.440500 -0.529319
C2    C     C_R   0.654929 0.383758 0.384783 0.688604
O6    O     O_R   0.489400 0.442340 0.559500 -0.501765
O7    O     O_3   0.662500 0.549650 0.509350 -0.362158
V1    V     V_3+5 0.935340 0.490790 0.498270 1.409986
O8    O     O_R   0.329270 0.567090 0.442770 -0.526988
C3    C     C_R   0.161000 0.584071 0.419411 0.701126
O9    O     O_R   0.324340 0.593560 0.587480 -0.511566
C4    C     C_R   0.155372 0.615613 0.615722 0.762289
V2    V     V_3+5 0.435970 0.509210 0.501730 1.461443
O10   O     O_3   0.158940 0.450350 0.490650 -0.360192
H1    H     H_    0.809486 0.839021 0.565261 0.112830
C5    C     C_R   0.329146 0.606160 0.757931 0.370603
C6    C     C_R   0.439413 0.607844 0.820485 -0.280972
C7    C     C_R   0.428707 0.672308 0.884166 0.416662
C8    C     C_R   0.320327 0.738952 0.882811 -0.213841
C9    C     C_R   0.225253 0.743991 0.817447 -0.037607
C10   C     C_R   0.232818 0.676997 0.752502 -0.029793
C11   C     C_R   0.121506 0.814153 0.816820 -0.134311
C12   C     C_R   0.033692 0.819416 0.750159 0.077137
C13   C     C_R   0.047004 0.754331 0.684364 0.061486
C14   C     C_R   0.144480 0.682824 0.685374 -0.178325
C15   C     C_R   0.938371 0.890294 0.746775 -0.148173
C16   C     C_R   0.856627 0.896560 0.680936 -0.125584
C17   C     C_R   0.870759 0.833447 0.616628 -0.115887
C18   C     C_R   0.966005 0.763501 0.617799 -0.137769
H2    H     H_    0.526422 0.556355 0.820654 0.133355
H3    H     H_    0.313316 0.786505 0.934178 0.145489
H4    H     H_    0.928126 0.942405 0.794356 0.111145
H5    H     H_    0.784366 0.951199 0.679618 0.121465
H6    H     H_    0.977128 0.717553 0.565430 0.105482
C19   C     C_1   0.111656 0.864532 0.133146 -0.215599
C20   C     C_1   0.118608 0.822260 0.176993 -0.010424
C21   C     C_1   0.127792 0.771997 0.228838 -0.002918
C22   C     C_1   0.135796 0.729468 0.272443 -0.006214
C23   C     C_1   0.145227 0.678958 0.324074 -0.006771
C24   C     C_1   0.152840 0.636195 0.367488 -0.219204
C25   C     C_1   0.640346 0.362730 0.631449 -0.198124
C26   C     C_1   0.634793 0.319544 0.674475 -0.032889
C27   C     C_1   0.630688 0.269392 0.726437 -0.013806
C28   C     C_1   0.628644 0.227432 0.770575 0.001518
C29   C     C_1   0.626355 0.177655 0.822877 -0.010725
C30   C     C_1   0.623050 0.135463 0.866831 -0.223283
C31   C     C_R   0.800944 0.397124 0.243543 -0.144684
C32   C     C_R   0.871282 0.405825 0.176432 -0.123638
C33   C     C_R   0.858996 0.342410 0.112086 -0.120395
C34   C     C_R   0.776516 0.269761 0.114352 -0.132855
C35   C     C_R   0.705831 0.258678 0.181849 0.067304
C36   C     C_R   0.718062 0.323800 0.247857 0.069125
C37   C     C_R   0.620356 0.184867 0.183974 -0.168894
C38   C     C_R   0.547359 0.176314 0.252311 0.072307
C39   C     C_R   0.560257 0.241330 0.318348 0.013639
C40   C     C_R   0.644677 0.315267 0.316111 -0.159438
C41   C     C_R   0.464264 0.103087 0.256646 -0.215453
C42   C     C_R   0.396174 0.094034 0.323921 -0.200845
C43   C     C_R   0.412690 0.156848 0.388971 0.452329
C44   C     C_R   0.491676 0.230098 0.386058 -0.208517
H7    H     H_    0.811333 0.448770 0.291671 0.107324
H8    H     H_    0.934460 0.462316 0.174266 0.118500
H9    H     H_    0.912508 0.349693 0.059965 0.113348
H10   H     H_    0.767543 0.222864 0.062441 0.102956
H11   H     H_    0.451960 0.051711 0.208361 0.130654
H12   H     H_    0.332215 0.037547 0.325710 0.132645
H13   H     H_    0.500907 0.277252 0.437807 0.116524
O11   O     O_R   0.775690 0.057750 0.940570 -0.527802
O12   O     O_R   0.441200 0.093570 0.087490 -0.534964
O13   O     O_R   0.265840 0.942320 0.059480 -0.527702
C45   C     C_R   0.610010 0.116356 0.115246 0.693863
O14   O     O_R   0.446270 0.067110 0.942790 -0.524367
O15   O     O_R   0.270950 0.915660 0.913750 -0.534720
C46   C     C_R   0.615080 0.083943 0.919262 0.708153
O16   O     O_R   0.770580 0.084400 0.086300 -0.534328
O17   O     O_3   0.602640 0.950400 0.990690 -0.354802
V3    V     V_3+5 0.329740 0.009200 0.001730 1.420796
O18   O     O_R   0.940900 0.906360 0.912450 -0.534094
C47   C     C_R   0.110233 0.883193 0.885136 0.689932
O19   O     O_R   0.935830 0.932820 0.057160 -0.519602
C48   C     C_R   0.104003 0.916063 0.080707 0.716059
V4    V     V_3+5 0.829130 0.990680 0.998180 1.432700
O20   O     O_3   0.106100 0.049590 0.009310 -0.360938
O21   O     O_3   0.321347 0.534269 0.702663 -0.571660
C49   C     C_3   0.159592 0.489058 0.714328 0.095195
H14   H     H_    0.127553 0.444386 0.660360 0.157768
H15   H     H_    0.027737 0.526435 0.730001 0.092084
C50   C     C_3   0.201913 0.443998 0.772412 -0.362051
H16   H     H_    0.344950 0.415037 0.761243 0.215281
H17   H     H_    0.203583 0.486804 0.828909 0.181715
C51   C     C_3   0.050099 0.380104 0.771505 -0.799014
H18   H     H_    0.906391 0.408337 0.784141 0.232734
H19   H     H_    0.084611 0.349277 0.814402 0.230542
H20   H     H_    0.047336 0.334774 0.716297 0.237085
O22   O     O_3   0.533401 0.673618 0.947286 -0.566806
C52   C     C_3   0.461756 0.615314 0.980684 0.071831
H21   H     H_    0.578091 0.602279 0.016050 0.149023
H22   H     H_    0.425204 0.557011 0.939794 0.096809
C53   C     C_3   0.287901 0.647679 0.030385 -0.314728
H23   H     H_    0.330182 0.704091 0.072402 0.210828
H24   H     H_    0.169097 0.661116 0.996267 0.190642
C54   C     C_3   0.215623 0.587295 0.070093 -0.825039
H25   H     H_    0.172510 0.530322 0.028929 0.226300
H26   H     H_    0.088425 0.612090 0.104798 0.236340
H27   H     H_    0.329585 0.574899 0.106731 0.232337
O23   O     O_3   0.342850 0.148145 0.455434 -0.574403
C55   C     C_3   0.489415 0.115001 0.489467 0.059159
H28   H     H_    0.617350 0.155694 0.501306 0.123264
H29   H     H_    0.533149 0.055116 0.453063 0.121049
C56   C     C_3   0.413820 0.104464 0.562942 -0.264604
H30   H     H_    0.373700 0.163968 0.600516 0.203363
H31   H     H_    0.283041 0.065759 0.552292 0.198059
C57   C     C_3   0.564460 0.066113 0.601080 -0.845042
H32   H     H_    0.601877 0.005365 0.565429 0.226393
H33   H     H_    0.506147 0.060361 0.654667 0.234118
H34   H     H_    0.696674 0.103812 0.612489 0.237721

loop_
_geom_bond_atom_site_label_1
_geom_bond_atom_site_label_2
_ccdc_geom_bond_type
C37   C38   A    
C51   H18   S    
C31   H7    S    
C32   H8    S    
C23   C24   T    
C30   C46   S    
C6    C7    A    
O18   V4    S    
O12   V3    S    
O22   C52   S    
C39   C40   A    
C39   C44   A    
C35   C36   A    
C38   C39   A    
C12   C15   A    
C13   C14   A    
C5    O21   S    
O14   C46   A    
C15   C16   A    
C19   C20   T    
O13   V3    S    
C55   H29   S    
O5    C3    A    
C17   C18   A    
C8    H3    S    
C31   C36   A    
C52   H21   S    
O23   C55   S    
C5    C6    A    
C33   H9    S    
C43   O23   S    
C56   H30   S    
C3    C24   S    
C41   H11   S    
O8    V2    S    
C7    O22   S    
C57   H33   S    
O1    V2    S    
C10   C14   A    
C4    C14   S    
O11   V4    S    
O7    V1    S    
C2    C40   S    
C1    O6    A    
C15   H4    S    
C41   C42   A    
C53   H24   S    
O1    C2    A    
C8    C9    A    
H1    C17   S    
C6    H2    S    
C54   H26   S    
C54   H25   S    
C35   C37   A    
V2    O10   S    
C33   C34   A    
C53   H23   S    
C11   C12   A    
C55   C56   S    
C21   C22   T    
O12   C45   A    
O17   V3    S    
O15   C47   A    
O16   V4    S    
C12   C13   A    
C27   C28   T    
C5    C10   A    
C44   H13   S    
C42   C43   A    
O2    C1    A    
C11   C47   S    
C16   C17   A    
C50   H17   S    
C29   C30   T    
C57   H34   S    
C32   C33   A    
V4    O20   S    
O3    C4    A    
C56   H31   S    
C22   C23   S    
C31   C32   A    
O6    V2    S    
O19   V4    S    
O14   V3    S    
C49   H15   S    
C25   C26   T    
O11   C46   A    
C9    C11   A    
O2    V1    S    
V3    O20   S    
C34   H10   S    
C34   C35   A    
C50   C51   S    
O4    C2    A    
C36   C40   A    
C28   C29   S    
O21   C49   S    
C9    C10   A    
C26   C27   S    
O18   C47   A    
O5    V1    S    
O8    C3    A    
C1    C25   S    
C51   H20   S    
C52   C53   S    
C16   H5    S    
C52   H22   S    
C38   C41   A    
O9    V2    S    
O7    V2    S    
O4    V1    S    
O3    V1    S    
V1    O10   S    
C55   H28   S    
C50   H16   S    
C20   C21   S    
C56   C57   S    
C43   C44   A    
O13   C48   A    
C37   C45   S    
O17   V4    S    
C13   C18   A    
C7    C8    A    
C42   H12   S    
C49   H14   S    
C51   H19   S    
O19   C48   A    
C49   C50   S    
C45   O16   A    
C18   H6    S    
C19   C48   S    
C53   C54   S    
O9    C4    A    
O15   V3    S    
C54   H27   S    
C57   H32   S    
