data_mof_unit_13135.cif
_audit_creation_date              2012-12-10T17:42:38-0500
_audit_creation_method            fapswitch 2.2
_symmetry_space_group_name_H-M    P1
_symmetry_Int_Tables_number       1
_space_group_crystal_system       triclinic
_cell_length_a                    9.937609
_cell_length_b                    10.662387
_cell_length_c                    13.112717
_cell_angle_alpha                 91.072848
_cell_angle_beta                  69.455526
_cell_angle_gamma                 89.967147
_cell_volume                      1300.77352339

loop_
_atom_site_label
_atom_site_type_symbol
_atom_type_description
_atom_site_fract_x
_atom_site_fract_y
_atom_site_fract_z
_atom_type_partial_charge
C1    C     C_R   0.502842 0.739217 0.493400 0.852140
C2    C     C_R   0.442230 0.508134 0.981008 -0.059861
C3    C     C_R   0.453058 0.454313 0.879263 -0.113398
C4    C     C_R   0.546393 0.474902 0.027069 0.135076
C5    C     C_R   0.650209 0.380027 0.976646 0.083103
C6    C     C_R   0.649309 0.319077 0.882091 -0.347167
C7    C     C_R   0.547842 0.351355 0.836055 0.596455
C8    C     C_R   0.546721 0.529526 0.124619 -0.225612
C9    C     C_R   0.736037 0.389043 0.128081 -0.202768
C10   C     C_R   0.365349 0.501437 0.824313 -0.296916
C11   C     C_R   0.381922 0.866567 0.346764 -0.304465
C12   C     C_R   0.419014 0.497834 0.704712 0.999567
C13   C     C_R   0.311068 0.930818 0.287576 0.587344
C14   C     C_R   0.321777 0.060865 0.281535 -0.218670
C15   C     C_R   0.391781 0.126893 0.340742 -0.280981
C16   C     C_R   0.448530 0.063986 0.410967 0.100785
C17   C     C_R   0.445778 0.932332 0.412756 0.041343
C18   C     C_R   0.510153 0.871241 0.479328 -0.062512
C19   C     C_R   0.585201 0.937065 0.534619 -0.243192
C20   C     C_R   0.587951 0.064521 0.532534 -0.215962
C21   C     C_R   0.513028 0.127999 0.477160 -0.107833
C22   C     C_R   0.798460 0.671008 0.636732 -0.162457
C23   C     C_R   0.503870 0.260621 0.492151 0.900926
C24   C     C_R   0.839130 0.756068 0.702081 -0.235328
C25   C     C_R   0.978590 0.755412 0.701452 -0.153903
C26   C     C_R   0.077892 0.669217 0.635833 -0.104622
C27   C     C_R   0.041606 0.583800 0.566835 0.114568
C28   C     C_R   0.897204 0.584141 0.566978 0.174568
C29   C     C_R   0.958506 0.420111 0.435474 -0.115705
C30   C     C_R   0.101412 0.420211 0.435457 -0.113525
C31   C     C_R   0.580555 0.498850 0.295848 0.837889
C32   C     C_R   0.747327 0.340873 0.025934 -0.218784
C33   C     C_R   0.631127 0.479743 0.178814 -0.041037
C34   C     C_R   0.241338 0.571847 0.882468 0.372734
C35   C     C_R   0.224118 0.619388 0.986458 0.490043
C36   C     C_R   0.324534 0.589398 0.034340 -0.335874
H1    H     H_    0.801547 0.349275 0.170398 0.147756
H2    H     H_    0.388284 0.765861 0.337824 0.173780
H3    H     H_    0.275600 0.111193 0.230599 0.151399
H4    H     H_    0.402742 0.226857 0.329060 0.176057
H5    H     H_    0.642745 0.113737 0.579503 0.211855
H6    H     H_    0.929456 0.354762 0.382688 0.140523
H7    H     H_    0.688674 0.676419 0.644190 0.196654
H8    H     H_    0.761259 0.821947 0.754501 0.151815
H9    H     H_    0.009364 0.820094 0.753911 0.160473
H10   H     H_    0.180767 0.669139 0.643748 0.234466
H11   H     H_    0.722639 0.241657 0.846654 0.163358
H12   H     H_    0.179239 0.355010 0.382505 0.145644
H13   H     H_    0.825932 0.267725 0.988622 0.135738
H14   H     H_    0.474646 0.604962 0.165459 0.140133
H15   H     H_    0.303068 0.627494 0.115034 0.200122
H16   H     H_    0.637215 0.890132 0.583590 0.158540
N1    N     N_R   0.856860 0.501200 0.500990 -0.114525
N2    N     N_R   0.142450 0.501280 0.501020 -0.123238
O1    O     O_R   0.385310 0.683220 0.500000 -0.654939
O2    O     O_R   0.614640 0.683250 0.500010 -0.639243
O3    O     O_R   0.328400 0.499950 0.653610 -0.594545
O4    O     O_R   0.557730 0.499970 0.653620 -0.607695
O5    O     O_R   0.385360 0.316750 0.499990 -0.621413
O6    O     O_R   0.614690 0.316780 0.500000 -0.591561
O7    O     O_R   0.442270 0.500030 0.346380 -0.631254
O8    O     O_R   0.671600 0.500050 0.346390 -0.609924
Zn1   Zn    Zn3+2 0.346880 0.499980 0.499990 0.925868
Zn2   Zn    Zn3+2 0.653120 0.500020 0.500010 0.952643
O9    O     O_3   0.239871 0.868124 0.228311 -0.639491
C37   C     C_3   0.130961 0.792134 0.298098 -0.313019
H17   H     H_    0.066484 0.842549 0.375041 0.165126
H18   H     H_    0.176890 0.704000 0.316419 0.166670
H19   H     H_    0.055833 0.765345 0.255935 0.232956
O10   O     O_3   0.140571 0.600632 0.836106 -0.624570
C38   C     C_3   0.029725 0.511487 0.870649 -0.234723
H20   H     H_    0.975124 0.515767 0.960631 0.197718
H21   H     H_    0.071033 0.414891 0.843185 0.142900
H22   H     H_    0.947561 0.532983 0.834015 0.197183
O11   O     O_3   0.106437 0.693157 0.043503 -0.602672
C39   C     C_3   0.135293 0.817808 0.008593 -0.259284
H23   H     H_    0.142283 0.826875 0.922518 0.168511
H24   H     H_    0.235432 0.853132 0.018684 0.182685
H25   H     H_    0.045309 0.878552 0.059653 0.187530
O12   O     O_3   0.534471 0.274927 0.753835 -0.604486
C40   C     C_3   0.423248 0.188612 0.801429 -0.398636
H26   H     H_    0.319506 0.236584 0.847485 0.161547
H27   H     H_    0.453442 0.123403 0.855282 0.172062
H28   H     H_    0.404871 0.131622 0.736164 0.197537

loop_
_geom_bond_atom_site_label_1
_geom_bond_atom_site_label_2
_ccdc_geom_bond_type
C37   H18   S    
C16   C21   A    
C25   H9    S    
C29   H6    S    
C31   O7    A    
C35   C36   A    
C39   H25   S    
C4    C8    A    
C20   H5    S    
C27   N2    A    
C13   O9    S    
C23   O5    A    
C30   N2    A    
C35   O11   S    
C26   C27   A    
C30   H12   S    
C1    O2    A    
C39   H24   S    
C18   C19   A    
C3    C7    A    
C5    C6    A    
N1    Zn2   S    
C37   H19   S    
N2    Zn1   S    
C15   C16   A    
C34   C35   A    
O7    Zn1   S    
O8    Zn2   S    
C9    C32   A    
C14   H3    S    
C19   H16   S    
C19   C20   A    
C16   C17   A    
O1    Zn1   S    
O2    Zn2   S    
O10   C38   S    
C34   O10   S    
C5    C32   A    
C12   O4    A    
C37   H17   S    
C22   C28   A    
C13   C14   A    
C9    C33   A    
C31   O8    A    
C40   H27   S    
O3    Zn1   S    
O4    Zn2   S    
C23   O6    A    
C15   H4    S    
C6    H11   S    
C39   H23   S    
C38   H21   S    
C4    C5    A    
C25   C26   A    
C40   H26   S    
C11   H2    S    
C2    C4    A    
O11   C39   S    
C29   C30   A    
C22   H7    S    
C9    H1    S    
C17   C18   A    
C1    C18   S    
C10   C34   A    
C24   C25   A    
C36   H15   S    
C10   C12   S    
C12   O3    A    
C21   C23   S    
C24   H8    S    
C22   C24   A    
C8    H14   S    
C40   H28   S    
C2    C36   A    
C11   C17   A    
C31   C33   S    
O12   C40   S    
C38   H22   S    
C28   N1    A    
C6    C7    A    
O5    Zn1   S    
O6    Zn2   S    
C2    C3    A    
C1    O1    A    
C38   H20   S    
C3    C10   A    
C11   C13   A    
C29   N1    A    
C8    C33   A    
C32   H13   S    
C26   H10   S    
C20   C21   A    
O9    C37   S    
C27   C28   A    
C14   C15   A    
C7    O12   S    
