data_mof_unit_20870.cif
_audit_creation_date              2012-12-11T14:07:16-0500
_audit_creation_method            fapswitch 2.2
_symmetry_space_group_name_H-M    P1
_symmetry_Int_Tables_number       1
_space_group_crystal_system       triclinic
_cell_length_a                    19.725551
_cell_length_b                    17.018779
_cell_length_c                    15.411241
_cell_angle_alpha                 90.276626
_cell_angle_beta                  53.416526
_cell_angle_gamma                 90.288271
_cell_volume                      4154.30472251

loop_
_atom_site_label
_atom_site_type_symbol
_atom_type_description
_atom_site_fract_x
_atom_site_fract_y
_atom_site_fract_z
_atom_type_partial_charge
C1    C     C_R   0.373869 0.197074 0.999138 -0.171219
C2    C     C_R   0.344661 0.819979 0.038747 -0.159722
C3    C     C_R   0.876441 0.698014 0.994455 -0.174035
C4    C     C_R   0.838879 0.327050 0.053106 -0.168836
C5    C     C_R   0.669068 0.917422 0.051217 -0.161347
C6    C     C_R   0.633304 0.105871 0.105255 -0.161101
C7    C     C_R   0.165565 0.415468 0.058403 -0.158699
C8    C     C_R   0.132602 0.606344 0.105838 -0.165256
C9    C     C_R   0.650516 0.184551 0.073641 0.166405
C10   C     C_R   0.710083 0.852845 0.982746 0.168608
C11   C     C_R   0.150207 0.684848 0.073206 0.159945
C12   C     C_R   0.203569 0.348222 0.996485 0.170097
C13   C     C_R   0.615553 0.816634 0.694265 0.018426
C14   C     C_R   0.690520 0.139477 0.678361 0.015712
C15   C     C_R   0.188434 0.359756 0.676595 0.016508
C16   C     C_R   0.114063 0.683543 0.696873 0.019470
C17   C     C_3   0.369850 0.222221 0.473684 -0.406865
C18   C     C_3   0.225338 0.865331 0.525144 -0.410142
C19   C     C_3   0.711604 0.629615 0.523933 -0.404948
C20   C     C_3   0.753951 0.306756 0.482779 -0.394954
C21   C     C_3   0.312347 0.268745 0.579216 -0.393163
C22   C     C_3   0.167908 0.818213 0.628524 -0.402146
C23   C     C_3   0.657780 0.678995 0.626843 -0.398483
C24   C     C_3   0.703204 0.260925 0.587684 -0.391646
C25   C     C_3   0.354841 0.324884 0.369722 -0.442715
C26   C     C_3   0.312326 0.744314 0.426450 -0.435400
C27   C     C_3   0.809033 0.745378 0.424054 -0.422936
C28   C     C_3   0.888085 0.256153 0.449948 -0.441560
C29   C     C_3   0.680484 0.723923 0.426853 -0.403753
C30   C     C_3   0.822698 0.183010 0.374270 -0.422928
C31   C     C_3   0.248985 0.213309 0.458125 -0.397718
C32   C     C_3   0.184960 0.777465 0.430574 -0.397838
C33   C     C_3   0.342826 0.236182 0.398514 0.359240
C34   C     C_3   0.260471 0.811561 0.424921 0.357038
C35   C     C_3   0.752406 0.682801 0.422285 0.353671
C36   C     C_3   0.839419 0.265611 0.400304 0.363829
C37   C     C_3   0.663317 0.767062 0.597240 0.354547
C38   C     C_3   0.749185 0.183524 0.576936 0.351353
C39   C     C_3   0.248602 0.318140 0.574538 0.351817
C40   C     C_3   0.165272 0.731101 0.600081 0.358166
C41   C     C_3   0.757087 0.796517 0.525693 0.162102
C42   C     C_3   0.838015 0.201328 0.550289 0.169576
C43   C     C_3   0.298575 0.374381 0.473954 0.167577
C44   C     C_3   0.256205 0.694702 0.528286 0.159794
C45   C     C_R   0.357492 0.820878 0.222923 -0.134953
C46   C     C_R   0.397130 0.199215 0.208512 -0.143920
C47   C     C_R   0.897458 0.300859 0.208142 -0.153061
C48   C     C_R   0.849399 0.671004 0.219402 -0.134081
C49   C     C_3   0.627609 0.774013 0.530480 -0.482687
C50   C     C_3   0.765480 0.136736 0.478584 -0.491851
C51   C     C_3   0.193739 0.261587 0.560670 -0.481714
C52   C     C_3   0.127879 0.729887 0.535164 -0.488161
C53   C     C_2   0.190077 0.741158 0.100868 -0.251674
C54   C     C_2   0.274668 0.309508 0.980174 -0.261130
C55   C     C_2   0.694928 0.239415 0.096136 -0.259732
C56   C     C_2   0.781863 0.813375 0.966124 -0.255006
C57   C     C_2   0.704098 0.316926 0.071398 0.291036
C58   C     C_2   0.821131 0.752643 0.896967 0.281395
C59   C     C_2   0.206178 0.815958 0.064407 0.289971
C60   C     C_2   0.316126 0.251925 0.906452 0.296252
C61   C     C_R   0.328932 0.913376 0.952998 -0.136547
C62   C     C_R   0.366910 0.112517 0.895772 -0.149397
C63   C     C_R   0.827289 0.414497 0.956695 -0.132556
C64   C     C_R   0.868307 0.612465 0.893738 -0.137838
C65   C     C_R   0.407480 0.108328 0.303159 -0.146271
C66   C     C_R   0.363305 0.918764 0.315696 -0.147639
C67   C     C_R   0.858422 0.577716 0.313871 -0.139349
C68   C     C_R   0.905506 0.392626 0.304469 -0.154115
C69   C     C_R   0.347864 0.188501 0.934967 0.099950
C70   C     C_R   0.289046 0.849257 0.021209 0.096538
C71   C     C_R   0.850751 0.689234 0.929756 0.100963
C72   C     C_R   0.784906 0.353878 0.031588 0.100473
C73   C     C_R   0.317833 0.854075 0.324597 0.016045
C74   C     C_R   0.389686 0.186191 0.302151 0.015059
C75   C     C_R   0.885017 0.315599 0.304432 0.018892
C76   C     C_R   0.808342 0.637944 0.321742 0.008759
C77   C     C_R   0.625341 0.199719 0.009380 -0.131741
C78   C     C_R   0.659111 0.820682 0.957305 -0.134758
C79   C     C_R   0.126484 0.699374 0.007150 -0.128972
C80   C     C_R   0.152920 0.315195 0.971466 -0.130337
C81   C     C_R   0.603695 0.801558 0.790343 -0.128352
C82   C     C_R   0.649405 0.172367 0.781014 -0.135314
C83   C     C_R   0.147110 0.325512 0.778192 -0.138714
C84   C     C_R   0.102919 0.698580 0.792323 -0.121826
C85   C     C_R   0.641905 0.076907 0.686188 -0.147830
C86   C     C_R   0.595718 0.894063 0.694668 -0.166048
C87   C     C_R   0.094473 0.606087 0.695871 -0.162219
C88   C     C_R   0.139509 0.421202 0.684720 -0.151254
H1    H     H_    0.382211 0.251353 0.028479 0.090263
H2    H     H_    0.341249 0.765249 0.075069 0.086042
H3    H     H_    0.886889 0.752981 0.020294 0.087842
H4    H     H_    0.827901 0.280851 0.107496 0.096179
H5    H     H_    0.364714 0.159293 0.495448 0.147822
H6    H     H_    0.190081 0.915691 0.523993 0.158976
H7    H     H_    0.672328 0.582954 0.522960 0.158901
H8    H     H_    0.717318 0.311291 0.449227 0.163228
H9    H     H_    0.590984 0.658628 0.675038 0.156866
H10   H     H_    0.639632 0.247739 0.608639 0.160139
H11   H     H_    0.278785 0.225901 0.646656 0.155686
H12   H     H_    0.103188 0.843587 0.677236 0.158845
H13   H     H_    0.350679 0.306801 0.593550 0.173244
H14   H     H_    0.192475 0.824144 0.676971 0.152305
H15   H     H_    0.680485 0.668916 0.676679 0.150905
H16   H     H_    0.693094 0.298699 0.653475 0.153825
H17   H     H_    0.422816 0.340699 0.324443 0.177952
H18   H     H_    0.366765 0.769936 0.421296 0.178200
H19   H     H_    0.861418 0.715405 0.419012 0.179028
H20   H     H_    0.897981 0.314978 0.472618 0.170029
H21   H     H_    0.639544 0.679275 0.425860 0.168124
H22   H     H_    0.790713 0.187183 0.334522 0.159272
H23   H     H_    0.239459 0.149727 0.479446 0.164919
H24   H     H_    0.148161 0.825916 0.428707 0.169921
H25   H     H_    0.560524 0.754441 0.579825 0.178677
H26   H     H_    0.705042 0.126126 0.489552 0.173839
H27   H     H_    0.156891 0.220987 0.630899 0.176246
H28   H     H_    0.063093 0.755056 0.584739 0.179674
H29   H     H_    0.629486 0.835800 0.506240 0.148611
H30   H     H_    0.794685 0.078738 0.470402 0.155994
H31   H     H_    0.147373 0.295316 0.556730 0.159811
H32   H     H_    0.123081 0.668982 0.513007 0.150010
H33   H     H_    0.336220 0.338295 0.316087 0.124144
H34   H     H_    0.339509 0.705289 0.354754 0.130368
H35   H     H_    0.839216 0.784147 0.351871 0.131343
H36   H     H_    0.951703 0.230923 0.388859 0.136858
H37   H     H_    0.346168 0.762935 0.205771 0.079637
H38   H     H_    0.392704 0.254441 0.178042 0.087272
H39   H     H_    0.897878 0.244358 0.175527 0.086363
H40   H     H_    0.831210 0.722831 0.197944 0.089322
H41   H     H_    0.226439 0.712881 0.123395 0.095371
H42   H     H_    0.277875 0.316140 0.047686 0.099477
H43   H     H_    0.737944 0.209694 0.106668 0.099277
H44   H     H_    0.786338 0.821909 0.032362 0.098297
H45   H     H_    0.305402 0.950644 0.919786 0.108215
H46   H     H_    0.364854 0.088034 0.832466 0.103593
H47   H     H_    0.804369 0.449894 0.921123 0.106650
H48   H     H_    0.866865 0.587234 0.830297 0.101667
H49   H     H_    0.413941 0.078828 0.359675 0.082218
H50   H     H_    0.355137 0.956140 0.377873 0.091300
H51   H     H_    0.849275 0.541233 0.376914 0.090622
H52   H     H_    0.910622 0.421721 0.362871 0.082518
H53   H     H_    0.624519 0.254919 0.976198 0.113582
H54   H     H_    0.667713 0.767213 0.914060 0.118744
H55   H     H_    0.126660 0.753762 0.971668 0.115613
H56   H     H_    0.157244 0.257262 0.939972 0.109836
H57   H     H_    0.606647 0.745763 0.820961 0.086861
H58   H     H_    0.665965 0.225081 0.803597 0.106521
H59   H     H_    0.161832 0.270494 0.797299 0.089486
H60   H     H_    0.106343 0.753996 0.823979 0.085446
H61   H     H_    0.652740 0.039367 0.622671 0.095857
H62   H     H_    0.590606 0.923244 0.636756 0.083902
H63   H     H_    0.090423 0.576559 0.636920 0.082542
H64   H     H_    0.148381 0.456536 0.620900 0.091525
H65   H     H_    0.689962 0.951406 0.090677 0.097781
H66   H     H_    0.637955 0.078972 0.164951 0.089521
H67   H     H_    0.185609 0.450052 0.098405 0.096970
H68   H     H_    0.135933 0.580124 0.166987 0.090882
H69   H     H_    0.436768 0.240399 0.432159 0.161220
H70   H     H_    0.277385 0.889200 0.526259 0.149120
H71   H     H_    0.760397 0.600518 0.526949 0.147968
H72   H     H_    0.763417 0.367618 0.500663 0.149061
N1    N     N_R   0.408680 0.130160 0.995800 -0.035614
N2    N     N_R   0.408680 0.869840 0.995800 -0.034972
N3    N     N_R   0.908680 0.630160 0.995800 -0.032048
N4    N     N_R   0.908680 0.369840 0.995800 -0.038888
N5    N     N_R   0.421680 0.867580 0.153120 -0.035034
N6    N     N_R   0.421680 0.132420 0.153120 -0.032411
N7    N     N_R   0.921680 0.367580 0.153120 -0.031718
N8    N     N_R   0.921680 0.632420 0.153120 -0.036897
N9    N     N_R   0.403730 0.921770 0.935950 -0.040856
N10   N     N_R   0.403730 0.078230 0.935950 -0.040936
N11   N     N_R   0.903730 0.421770 0.935950 -0.044813
N12   N     N_R   0.903730 0.578230 0.935950 -0.038454
N13   N     N_R   0.426630 0.075970 0.212960 -0.032064
N14   N     N_R   0.426630 0.924030 0.212960 -0.036241
N15   N     N_R   0.926630 0.575970 0.212960 -0.036328
N16   N     N_R   0.926630 0.424030 0.212960 -0.030297
N17   N     N_R   0.591320 0.134600 0.004200 -0.045180
N18   N     N_R   0.591320 0.865400 0.004200 -0.050404
N19   N     N_R   0.091320 0.634600 0.004200 -0.048780
N20   N     N_R   0.091320 0.365400 0.004200 -0.045260
N21   N     N_R   0.578320 0.867660 0.846880 -0.036623
N22   N     N_R   0.578320 0.132340 0.846880 -0.038345
N23   N     N_R   0.078320 0.367660 0.846880 -0.036207
N24   N     N_R   0.078320 0.632340 0.846880 -0.036959
N25   N     N_R   0.573370 0.074390 0.787040 -0.035172
N26   N     N_R   0.573370 0.925610 0.787040 -0.030813
N27   N     N_R   0.073370 0.574390 0.787040 -0.030949
N28   N     N_R   0.073370 0.425610 0.787040 -0.035419
N29   N     N_R   0.596270 0.927870 0.064040 -0.041665
N30   N     N_R   0.596270 0.072130 0.064040 -0.035927
N31   N     N_R   0.096270 0.427870 0.064040 -0.038712
N32   N     N_R   0.096270 0.572130 0.064040 -0.038371
Ni1   Ni    Ni4+2 0.500000 0.131190 0.000000 0.205882
Ni2   Ni    Ni4+2 0.500000 0.868810 0.000000 0.206980
Ni3   Ni    Ni4+2 0.000000 0.631190 0.000000 0.205223
Ni4   Ni    Ni4+2 0.000000 0.368810 0.000000 0.208159
Ni5   Ni    Ni4+2 0.488650 0.000000 0.862740 0.206650
Ni6   Ni    Ni4+2 0.988650 0.500000 0.862740 0.207404
Ni7   Ni    Ni4+2 0.511350 0.000000 0.137260 0.207431
Ni8   Ni    Ni4+2 0.011350 0.500000 0.137260 0.208486
C89   C     C_3   0.799630 0.800539 0.583380 -1.041886
H73   H     H_    0.798944 0.742473 0.616251 0.265266
H74   H     H_    0.866420 0.819598 0.525415 0.256013
H75   H     H_    0.768362 0.844609 0.649529 0.263860
C90   C     C_3   0.837173 0.235528 0.643534 -1.071034
H76   H     H_    0.799920 0.290554 0.675413 0.256530
H77   H     H_    0.811848 0.191915 0.709442 0.260885
H78   H     H_    0.902767 0.249158 0.614354 0.260523
C91   C     C_3   0.350532 0.438147 0.481722 -1.044263
H79   H     H_    0.403542 0.412135 0.478309 0.263996
H80   H     H_    0.377515 0.479574 0.412972 0.254123
H81   H     H_    0.310296 0.472617 0.557503 0.260635
C92   C     C_3   0.298599 0.683591 0.585364 -1.027221
H82   H     H_    0.303346 0.739998 0.617786 0.256441
H83   H     H_    0.263563 0.640221 0.651838 0.264775
H84   H     H_    0.363355 0.659912 0.527097 0.254453
H85   H     H_    0.706339 0.762689 0.355684 0.148822
H86   H     H_    0.883364 0.151219 0.318485 0.158299
H87   H     H_    0.228801 0.223292 0.405202 0.160290
H88   H     H_    0.207217 0.738527 0.360180 0.149529
H89   H     H_    0.757998 0.857675 0.499338 0.110269
H90   H     H_    0.872799 0.144664 0.528071 0.119616
H91   H     H_    0.252901 0.405646 0.466545 0.099222
H92   H     H_    0.251609 0.634893 0.502220 0.115279
C93   C     C_3   0.636982 0.366323 0.080071 -1.041246
H93   H     H_    0.628044 0.421009 0.125345 0.252651
H94   H     H_    0.656869 0.382784 0.998336 0.238818
H95   H     H_    0.574956 0.335778 0.125620 0.252483
C94   C     C_3   0.832416 0.745552 0.791294 -1.037831
H96   H     H_    0.899747 0.733210 0.725386 0.246946
H97   H     H_    0.793579 0.696345 0.795081 0.236258
H98   H     H_    0.815933 0.800861 0.770056 0.269155
C95   C     C_3   0.142357 0.867258 0.067865 -1.041664
H99   H     H_    0.136198 0.923500 0.108806 0.252204
H100  H     H_    0.163757 0.880672 0.984617 0.236329
H101  H     H_    0.078683 0.839785 0.115051 0.255391
C96   C     C_3   0.326610 0.247862 0.801065 -1.057813
H102  H     H_    0.394167 0.238003 0.733773 0.250451
H103  H     H_    0.289143 0.198242 0.802689 0.234876
H104  H     H_    0.307727 0.303493 0.783692 0.263629

loop_
_geom_bond_atom_site_label_1
_geom_bond_atom_site_label_2
_ccdc_geom_bond_type
C61   C70   A    
N8    N15   A    
C49   H25   S    
C64   H48   S    
N13   Ni7   S    
C88   H64   S    
C89   H73   S    
C48   C76   A    
C39   C51   S    
C32   H24   S    
N6    Ni1   S    
C81   N21   A    
N5    Ni2   S    
C2    N2    A    
C6    C9    A    
C82   N22   A    
C68   N16   A    
C25   H17   S    
N19   Ni3   S    
C92   H82   S    
C68   C75   A    
N18   Ni2   S    
N14   Ni7   S    
N17   Ni1   S    
C30   H22   S    
C24   H10   S    
C80   N20   A    
C45   C73   A    
C8    N32   A    
C38   C42   S    
N11   Ni6   S    
C78   H54   S    
C21   H11   S    
C5    H65   S    
C58   C71   S    
C92   H84   S    
C48   H40   S    
C13   C81   A    
C16   C84   A    
C91   H81   S    
C37   C49   S    
C42   C90   S    
C3    H3    S    
N7    Ni4   S    
C64   C71   A    
C2    H2    S    
C32   C52   S    
C15   C88   A    
C93   H94   S    
C63   N11   A    
C26   C34   S    
C23   H15   S    
N19   N32   A    
C20   C24   S    
C45   H37   S    
C78   N18   A    
C80   H56   S    
N8    Ni3   S    
C66   H50   S    
C13   C86   A    
C16   C87   A    
C24   C38   S    
C4    N4    A    
N26   Ni5   S    
N12   Ni6   S    
C9    C55   S    
N3    Ni3   S    
C67   H51   S    
C95   H99   S    
C40   C44   S    
C13   C37   S    
C85   H61   S    
C11   C53   S    
C3    N3    A    
C30   H86   S    
C57   C93   S    
N29   Ni7   S    
C7    H67   S    
C29   H85   S    
C20   H8    S    
C1    N1    A    
N2    Ni2   S    
C87   H63   S    
C96   H102  S    
C1    C69   A    
C37   C41   S    
C89   H74   S    
C7    N31   A    
C59   C95   S    
C17   C33   S    
C65   H49   S    
N16   Ni8   S    
C62   N10   A    
C18   C34   S    
C82   H58   S    
N30   Ni7   S    
C91   H79   S    
C31   H87   S    
C52   H28   S    
C85   N25   A    
C7    C12   A    
C54   H42   S    
C49   H29   S    
C35   C76   S    
C22   H12   S    
N27   Ni6   S    
C26   C44   S    
C44   C92   S    
C84   N24   A    
N31   Ni8   S    
C41   H89   S    
C10   C56   S    
C61   H45   S    
C43   C91   S    
C67   N15   A    
C19   H7    S    
N18   N29   A    
C27   H35   S    
C19   C23   S    
C20   C36   S    
C54   C60   D    
C34   C73   S    
C27   C35   S    
N5    N14   A    
C40   C52   S    
C66   C73   A    
C51   H27   S    
C65   C74   A    
C62   C69   A    
C77   N17   A    
C24   H16   S    
N22   N25   A    
C32   C34   S    
C64   N12   A    
C84   H60   S    
C43   H91   S    
C94   H96   S    
C18   H70   S    
C36   C75   S    
C79   H55   S    
C26   H18   S    
C14   C38   S    
C47   N7    A    
C27   C41   S    
C51   H31   S    
C48   N8    A    
C27   H19   S    
C22   C40   S    
C6    N30   A    
C4    C72   A    
C31   C33   S    
C93   H93   S    
C83   N23   A    
N22   Ni1   S    
C32   H88   S    
C29   C49   S    
N21   Ni2   S    
C95   H100  S    
C86   H62   S    
C15   C39   S    
C56   H44   S    
C11   C79   A    
C16   C40   S    
C83   H59   S    
N1    N10   A    
C52   H32   S    
C25   C43   S    
C23   H9    S    
C86   N26   A    
C81   H57   S    
C50   H30   S    
C55   C57   D    
N4    Ni4   S    
C18   H6    S    
C89   H75   S    
C79   N19   A    
C68   H52   S    
C61   N9    A    
C14   C82   A    
C41   C89   S    
N23   Ni4   S    
C46   C74   A    
C17   H69   S    
N9    Ni5   S    
C90   H78   S    
C29   H21   S    
C90   H76   S    
C96   H104  S    
N6    N13   A    
C1    H1    S    
N17   N30   A    
C46   N6    A    
C65   N13   A    
C18   C22   S    
C21   C39   S    
C46   H38   S    
N3    N12   A    
C14   C85   A    
C31   C51   S    
N20   N31   A    
N20   Ni4   S    
N28   Ni6   S    
C87   N27   A    
N21   N26   A    
C28   H36   S    
C47   H39   S    
C3    C71   A    
C38   C50   S    
C94   H98   S    
N24   Ni3   S    
C25   H33   S    
C53   C59   D    
C29   C35   S    
C55   H43   S    
C22   H14   S    
N24   N27   A    
C30   C36   S    
C19   H71   S    
C62   H46   S    
C96   H103  S    
C9    C77   A    
C92   H83   S    
C21   H13   S    
C5    C10   A    
C94   H97   S    
C58   C94   S    
C23   C37   S    
N23   N28   A    
C6    H66   S    
N2    N9    A    
C2    C70   A    
C60   C69   S    
C28   H20   S    
C8    C11   A    
C15   C83   A    
C12   C80   A    
C28   C42   S    
C91   H80   S    
C56   C58   D    
C10   C78   A    
N32   Ni8   S    
C57   C72   S    
C30   C50   S    
C8    H68   S    
C95   H101  S    
C77   H53   S    
N15   Ni8   S    
N1    Ni1   S    
C59   C70   S    
C47   C75   A    
C53   H41   S    
C33   C74   S    
C88   N28   A    
C17   H5    S    
C63   C72   A    
C28   C36   S    
C20   H72   S    
C39   C43   S    
C25   C33   S    
N25   Ni5   S    
C31   H23   S    
C5    N29   A    
C66   N14   A    
N4    N11   A    
C19   C35   S    
C60   C96   S    
C26   H34   S    
C50   H26   S    
C93   H95   S    
C42   H90   S    
C90   H77   S    
C45   N5    A    
N10   Ni5   S    
C12   C54   S    
C44   H92   S    
C67   C76   A    
C63   H47   S    
N7    N16   A    
C4    H4    S    
C17   C21   S    
