data_mof_unit_33701.cif
_audit_creation_date              2012-12-10T16:51:14-0500
_audit_creation_method            fapswitch 2.2
_symmetry_space_group_name_H-M    P1
_symmetry_Int_Tables_number       1
_space_group_crystal_system       triclinic
_cell_length_a                    27.757666
_cell_length_b                    8.672186
_cell_length_c                    7.436697
_cell_angle_alpha                 102.977143
_cell_angle_beta                  94.182078
_cell_angle_gamma                 92.560052
_cell_volume                      1736.35781308

loop_
_atom_site_label
_atom_site_type_symbol
_atom_type_description
_atom_site_fract_x
_atom_site_fract_y
_atom_site_fract_z
_atom_type_partial_charge
C1    C     C_R   0.498534 0.199644 0.453182 0.892460
C2    C     C_R   0.501466 0.800356 0.546817 0.892482
C3    C     C_R   0.102136 0.496769 0.520347 -0.047094
C4    C     C_R   0.897859 0.502743 0.479626 -0.047096
C5    C     C_R   0.124556 0.351720 0.483134 -0.022767
C6    C     C_R   0.875441 0.647795 0.516833 -0.022764
C7    C     C_R   0.096261 0.210018 0.455555 -0.101670
C8    C     C_R   0.903737 0.789494 0.544422 -0.101664
C9    C     C_R   0.131133 0.639319 0.569464 -0.064116
C10   C     C_R   0.868861 0.360196 0.430497 -0.064113
C11   C     C_R   0.354525 0.496873 0.507877 -0.036797
C12   C     C_R   0.645473 0.502992 0.492095 -0.036776
C13   C     C_R   0.971034 0.353404 0.438007 -0.003733
C14   C     C_R   0.028961 0.646104 0.561983 -0.003732
C15   C     C_R   0.977677 0.646432 0.538177 0.070410
C16   C     C_R   0.022318 0.353076 0.461812 0.070409
C17   C     C_R   0.949111 0.500531 0.487638 0.039185
C18   C     C_R   0.050884 0.498978 0.512347 0.039186
C19   C     C_R   0.940177 0.214649 0.358461 0.212290
C20   C     C_R   0.059818 0.784859 0.641528 0.212288
C21   C     C_R   0.890339 0.217872 0.368296 -0.154932
C22   C     C_R   0.109654 0.781641 0.631677 -0.154934
C23   C     C_R   0.407459 0.499175 0.502409 0.798848
C24   C     C_R   0.592540 0.500802 0.497588 0.798854
C25   C     C_R   0.046231 0.211650 0.452488 -0.086755
C26   C     C_R   0.953767 0.787859 0.547499 -0.086757
C27   C     C_2   0.497837 0.031709 0.426787 -0.362414
C28   C     C_2   0.502163 0.968291 0.573212 -0.362422
C29   C     C_R   0.175123 0.352485 0.483362 0.549135
C30   C     C_R   0.824874 0.647037 0.516588 0.549136
C31   C     C_R   0.181568 0.635047 0.567362 0.563081
C32   C     C_R   0.818425 0.364475 0.432576 0.563091
C33   C     C_R   0.274144 0.471935 0.347809 -0.099017
C34   C     C_R   0.725854 0.527753 0.652141 -0.099027
C35   C     C_R   0.324254 0.474626 0.342841 -0.204470
C36   C     C_R   0.675747 0.525221 0.657127 -0.204464
C37   C     C_R   0.333710 0.516011 0.677737 -0.211523
C38   C     C_R   0.666284 0.483706 0.322204 -0.211537
C39   C     C_R   0.283557 0.513796 0.682260 -0.096079
C40   C     C_R   0.716435 0.485759 0.317663 -0.096102
C41   C     C_R   0.253742 0.491867 0.517368 0.356982
C42   C     C_R   0.746251 0.507684 0.482559 0.356995
Cu1   Cu    Cu3+1 0.505380 0.517380 0.684380 0.956799
Cu2   Cu    Cu3+1 0.494620 0.482620 0.315620 0.956798
H1    H     H_    0.356100 0.533104 0.807000 0.158620
H2    H     H_    0.643894 0.466615 0.192930 0.158624
H3    H     H_    0.462124 0.377821 0.948446 0.225540
H4    H     H_    0.537876 0.622179 0.051554 0.225547
H5    H     H_    0.267808 0.529397 0.813684 0.136295
H6    H     H_    0.732175 0.470057 0.186205 0.136309
H7    H     H_    0.112696 0.097350 0.441109 0.193102
H8    H     H_    0.887304 0.902165 0.558866 0.193103
H9    H     H_    0.660791 0.540575 0.790061 0.158305
H10   H     H_    0.339216 0.459384 0.209941 0.158311
H11   H     H_    0.748877 0.544216 0.779831 0.140048
H12   H     H_    0.251118 0.455479 0.220132 0.140042
H13   H     H_    0.867980 0.109487 0.313055 0.215103
H14   H     H_    0.132013 0.890028 0.686913 0.215100
H15   H     H_    0.027038 0.101107 0.451846 0.188128
H16   H     H_    0.972961 0.898402 0.548145 0.188128
H17   H     H_    0.493766 0.959954 0.285749 0.179908
H18   H     H_    0.506234 0.040046 0.714251 0.179907
N1    N     N_R   0.202333 0.493048 0.522156 -0.474573
N2    N     N_R   0.797663 0.506479 0.477776 -0.474567
N3    N     N_2   0.486510 0.456430 0.038510 -0.218299
N4    N     N_2   0.513490 0.543570 0.961490 -0.218296
O1    O     O_R   0.503500 0.286120 0.619780 -0.582912
O2    O     O_R   0.496500 0.713880 0.380220 -0.582905
O3    O     O_R   0.494410 0.256780 0.308360 -0.583188
O4    O     O_R   0.505590 0.743220 0.691640 -0.583181
O5    O     O_R   0.434810 0.514700 0.655690 -0.591625
O6    O     O_R   0.565190 0.485300 0.344310 -0.591629
O7    O     O_R   0.425720 0.485350 0.344280 -0.584213
O8    O     O_R   0.574280 0.514650 0.655720 -0.584216
O9    O     O_2   0.196955 0.214263 0.445526 -0.507887
O10   O     O_2   0.803045 0.785263 0.554421 -0.507898
O11   O     O_2   0.790321 0.228034 0.390009 -0.509375
O12   O     O_2   0.209670 0.771493 0.609915 -0.509359
Br1   Br    Br    0.958788 0.028840 0.187910 -0.490841
Br2   Br    Br    0.041208 0.970660 0.812095 -0.490831

loop_
_geom_bond_atom_site_label_1
_geom_bond_atom_site_label_2
_ccdc_geom_bond_type
C29   N1    A    
C30   N2    A    
C8    C26   A    
C14   C18   A    
C34   C42   A    
C39   C41   A    
C19   C21   A    
C2    O2    A    
C9    C22   A    
C3    C18   A    
C11   C37   A    
C36   H9    S    
C27   H17   S    
C1    O1    A    
C32   O11   S    
C12   C36   A    
C8    H8    S    
C33   H12   S    
C40   C42   A    
C34   H11   S    
C35   H10   S    
Cu2   N3    S    
C23   O7    A    
C5    C29   A    
C10   C21   A    
C20   Br2   S    
C14   C20   A    
C32   N2    A    
C4    C6    A    
C5    C7    A    
C13   C19   A    
C15   C26   A    
C6    C8    A    
C1    O3    A    
Cu1   Cu2   S    
C21   H13   S    
C3    C9    A    
C23   O5    A    
C30   O10   S    
Cu2   O3    S    
C19   Br1   S    
C4    C17   A    
C16   C18   A    
C39   H5    S    
C20   C22   A    
Cu1   O4    S    
Cu2   O2    S    
C41   N1    S    
C37   H1    S    
C42   N2    S    
C24   O6    A    
C31   O12   S    
C16   C25   A    
C15   C17   A    
Cu1   O5    S    
C6    C30   A    
C4    C10   A    
C3    C5    A    
C22   H14   S    
C29   O9    S    
C31   N1    A    
C12   C24   S    
C7    C25   A    
C13   C17   A    
C33   C41   A    
C11   C35   A    
C7    H7    S    
C37   C39   A    
C38   C40   A    
C24   O8    A    
Cu1   O8    S    
Cu1   N4    S    
C40   H6    S    
C11   C23   S    
C33   C35   A    
Cu2   O6    S    
C34   C36   A    
C12   C38   A    
Cu2   O7    S    
C38   H2    S    
C9    C31   A    
C10   C32   A    
Cu1   O1    S    
N3    N4    D    
C13   C16   A    
C27   C28   D    
C1    C27   S    
C14   C15   A    
C2    C28   S    
C25   H15   S    
H4    N4    S    
C2    O4    A    
C26   H16   S    
H3    N3    S    
C28   H18   S    
