data_mof_unit_66670.cif
_audit_creation_date              2012-12-11T14:19:17-0500
_audit_creation_method            fapswitch 2.2
_symmetry_space_group_name_H-M    P1
_symmetry_Int_Tables_number       1
_space_group_crystal_system       triclinic
_cell_length_a                    8.265742
_cell_length_b                    12.721325
_cell_length_c                    15.204738
_cell_angle_alpha                 94.678285
_cell_angle_beta                  100.079364
_cell_angle_gamma                 98.685766
_cell_volume                      1546.45985851

loop_
_atom_site_label
_atom_site_type_symbol
_atom_type_description
_atom_site_fract_x
_atom_site_fract_y
_atom_site_fract_z
_atom_type_partial_charge
Ba1   Ba    Ba6+2 0.153570 0.551840 0.456200 1.643329
Ba2   Ba    Ba6+2 0.656590 0.448150 0.543720 1.633378
C1    C     C_3   0.397417 0.849299 0.131994 -0.358830
C2    C     C_3   0.452022 0.832556 0.229898 0.504743
C3    C     C_3   0.558505 0.774551 0.701916 0.253236
C4    C     C_3   0.548294 0.887899 0.737274 -0.123397
C5    C     C_3   0.920045 0.161114 0.742410 0.377411
C6    C     C_3   0.977662 0.069677 0.790298 -0.416791
C7    C     C_3   0.434445 0.213660 0.791198 0.370745
C8    C     C_3   0.475889 0.180716 0.885394 -0.360875
C9    C     C_R   0.082361 0.185112 0.533879 -0.282814
C10   C     C_R   0.702656 0.826615 0.505058 -0.295566
C11   C     C_R   0.676553 0.000290 0.454368 -0.067545
C12   C     C_3   0.918631 0.805834 0.151486 0.308699
C13   C     C_R   0.603180 0.895889 0.462953 0.007021
C14   C     C_R   0.876454 0.856024 0.530901 0.039879
C15   C     C_R   0.946816 0.966686 0.531611 -0.054280
C16   C     C_R   0.845660 0.039901 0.491656 -0.055124
C17   C     C_R   0.917957 0.150063 0.490126 0.051969
C18   C     C_R   0.180743 0.114718 0.572155 -0.008882
C19   C     C_R   0.114402 0.006713 0.571227 -0.105316
C20   C     C_R   0.233513 0.439950 0.765796 -0.290519
C21   C     C_R   0.131834 0.410973 0.826694 0.019864
C22   C     C_R   0.195481 0.427087 0.919454 -0.133129
C23   C     C_3   0.982071 0.886962 0.090652 0.166837
C24   C     C_R   0.363994 0.475058 0.952974 0.004757
C25   C     C_R   0.462276 0.506108 0.888521 -0.113741
C26   C     C_R   0.395255 0.491991 0.796537 0.050257
C27   C     C_R   0.595033 0.559518 0.085117 -0.125045
C28   C     C_R   0.663523 0.577586 0.176525 -0.006191
C29   C     C_R   0.411966 0.479680 0.211001 0.059309
C30   C     C_R   0.344138 0.458648 0.118488 -0.114948
C31   C     C_R   0.433485 0.499205 0.053087 0.015814
C32   C     C_R   0.569811 0.540983 0.239270 -0.268491
C33   C     C_3   0.718287 0.310193 0.271733 0.312795
C34   C     C_3   0.668612 0.278895 0.170722 -0.384165
C35   C     C_3   0.090292 0.671817 0.721391 0.291707
C36   C     C_3   0.143451 0.693317 0.822906 -0.394273
C37   C     C_3   0.225569 0.226681 0.347994 0.288137
C38   C     C_3   0.197030 0.105582 0.327520 -0.361583
H1    H     H_    0.437816 0.744050 0.230880 0.036509
H2    H     H_    0.555226 0.216340 0.155394 0.117020
H3    H     H_    0.642316 0.349292 0.135958 0.076460
H4    H     H_    0.771638 0.247440 0.144877 0.135951
H5    H     H_    0.192198 0.645668 0.691844 0.028989
H6    H     H_    0.979871 0.607214 0.705885 0.079450
H7    H     H_    0.237043 0.767683 0.841376 0.135288
H8    H     H_    0.200278 0.627754 0.851044 0.071123
H9    H     H_    0.032458 0.699673 0.853404 0.126016
H10   H     H_    0.110993 0.251569 0.364451 0.007155
H11   H     H_    0.330062 0.249980 0.406346 0.071469
H12   H     H_    0.275130 0.798697 0.104170 0.146658
H13   H     H_    0.090225 0.079122 0.271008 0.108484
H14   H     H_    0.169576 0.066714 0.387016 0.082952
H15   H     H_    0.310467 0.080128 0.309004 0.145248
H16   H     H_    0.487462 0.823670 0.091772 0.067666
H17   H     H_    0.687727 0.769837 0.692247 0.018281
H18   H     H_    0.469321 0.753250 0.636867 0.050584
H19   H     H_    0.635082 0.911535 0.802709 0.113151
H20   H     H_    0.419804 0.892294 0.748322 0.122729
H21   H     H_    0.392238 0.935092 0.125371 0.106596
H22   H     H_    0.820220 0.130162 0.683473 0.095007
H23   H     H_    0.028189 0.201371 0.716472 -0.067157
H24   H     H_    0.010556 0.009893 0.742078 0.077016
H25   H     H_    0.089084 0.101247 0.843075 0.103540
H26   H     H_    0.877658 0.030680 0.822391 0.139038
H27   H     H_    0.300688 0.220624 0.777059 -0.073372
H28   H     H_    0.511330 0.292514 0.789420 0.084430
H29   H     H_    0.445997 0.240558 0.934818 0.067716
H30   H     H_    0.610594 0.176024 0.902847 0.155823
H31   H     H_    0.949926 0.853110 0.218112 0.020576
H32   H     H_    0.401890 0.101269 0.889155 0.100597
H33   H     H_    0.600109 0.048076 0.415587 0.098530
H34   H     H_    0.194086 0.955732 0.603622 0.091688
H35   H     H_    0.137196 0.268101 0.534887 0.062610
H36   H     H_    0.646620 0.744607 0.507698 0.067072
H37   H     H_    0.675361 0.589836 0.041286 0.065144
H38   H     H_    0.109622 0.405906 0.963443 0.077666
H39   H     H_    0.225034 0.406782 0.099394 0.077451
H40   H     H_    0.588397 0.547812 0.907013 0.084908
H41   H     H_    0.625662 0.551858 0.309968 0.067756
H42   H     H_    0.782694 0.780201 0.125638 -0.040337
H43   H     H_    0.182181 0.432044 0.694581 0.059168
H44   H     H_    0.110004 0.926115 0.123198 0.104246
H45   H     H_    0.612093 0.336834 0.297132 0.002499
H46   H     H_    0.826203 0.376474 0.285056 0.084789
O1    O     O_2   0.168170 0.764170 0.543850 -0.468558
O2    O     O_3   0.262643 0.272218 0.271662 -0.632482
O3    O     O_3   0.000314 0.716426 0.158772 -0.584503
O4    O     O_2   0.642110 0.235770 0.456130 -0.469678
O5    O     O_3   0.911620 0.370210 0.454030 -0.499165
O6    O     O_3   0.444310 0.304480 0.619110 -0.486588
O7    O     O_3   0.760176 0.220725 0.312235 -0.645299
O8    O     O_3   0.400800 0.556680 0.607590 -0.487600
O9    O     O_3   0.875770 0.359510 0.664420 -0.483202
O10   O     O_2   0.792133 0.423994 0.820389 -0.498201
O11   O     O_3   0.857152 0.227745 0.802147 -0.585861
O12   O     O_3   0.898670 0.629780 0.545890 -0.489459
O13   O     O_3   0.409490 0.443300 0.392340 -0.498500
O14   O     O_2   0.674250 0.555830 0.719690 -0.461467
O15   O     O_3   0.516750 0.708936 0.766114 -0.657489
O16   O     O_2   0.514613 0.121105 0.562947 -0.484235
O17   O     O_3   0.470305 0.136746 0.729205 -0.566665
O18   O     O_3   0.365980 0.695510 0.380810 -0.479418
O19   O     O_2   0.250998 0.872631 0.433262 -0.477033
O20   O     O_3   0.053021 0.766658 0.688393 -0.647890
O21   O     O_3   0.351905 0.876316 0.284071 -0.601519
O22   O     O_2   0.136040 0.444100 0.280280 -0.444968
O23   O     O_3   0.934510 0.640480 0.335500 -0.478692
O24   O     O_2   0.950225 0.516884 0.182291 -0.474243
P1    P     P_3+3 0.998660 0.747790 0.570900 0.976234
P2    P     P_3+3 0.306970 0.411860 0.294270 0.985234
P3    P     P_3+3 0.890051 0.618973 0.214472 0.967443
P4    P     P_3+3 0.811620 0.252200 0.429030 0.960878
P5    P     P_3+3 0.912165 0.359561 0.780835 0.964897
P6    P     P_3+3 0.394763 0.836415 0.393005 0.976095
P7    P     P_3+3 0.493409 0.575974 0.722106 0.943936
P8    P     P_3+3 0.400447 0.167255 0.620253 0.960573
N1    N     N_2   0.622773 0.884642 0.258698 -0.477492
H47   H     H_    0.645160 0.966312 0.275664 0.195601
C39   C     C_3   0.728700 0.821961 0.308302 -0.248560
H48   H     H_    0.746178 0.762803 0.261153 0.066538
H49   H     H_    0.665545 0.766654 0.347790 0.067528
H50   H     H_    0.847568 0.870836 0.345019 0.112864
N2    N     N_3   0.589916 0.961160 0.673405 -0.451338
H51   H     H_    0.705946 0.951637 0.658856 0.148122
H52   H     H_    0.500515 0.939552 0.614524 0.185853
N3    N     N_3   0.877523 0.970765 0.082796 -0.513800
H53   H     H_    0.755068 0.936394 0.052950 0.174034
H54   H     H_    0.874587 0.006132 0.146899 0.162723
N4    N     N_2   0.983351 0.836487 0.001851 -0.402354
H55   H     H_    0.867753 0.797718 0.967955 0.200770
C40   C     C_3   0.073237 0.904568 0.948103 -0.249559
H56   H     H_    0.025860 0.878800 0.875555 0.117237
H57   H     H_    0.208023 0.900294 0.964368 0.108102
H58   H     H_    0.057384 0.989216 0.960953 0.138588

loop_
_geom_bond_atom_site_label_1
_geom_bond_atom_site_label_2
_ccdc_geom_bond_type
Ba1   O1    S    
C37   H11   S    
C6    H26   S    
Ba2   P4    S    
C12   H31   S    
O19   P6    D    
C34   H2    S    
C33   C34   S    
N3    H53   S    
Ba1   O13   S    
C18   P8    S    
C5    C6    S    
C5    H22   S    
C36   H9    S    
C9    C17   A    
C24   C25   A    
C35   C36   S    
C11   C16   A    
Ba2   O9    S    
C23   N3    S    
C22   C24   A    
C16   C17   A    
C26   P7    S    
Ba1   P2    S    
C3    C4    S    
C33   H46   S    
O1    P1    D    
C2    H1    S    
C27   C31   A    
Ba1   Ba2   S    
Ba2   O4    S    
O6    P8    S    
C39   H50   S    
Ba1   O23   S    
O18   P6    S    
C10   C14   A    
O9    P5    S    
Ba1   O8    S    
C23   H44   S    
C21   C22   A    
C2    N1    S    
C32   H41   S    
O11   P5    S    
C7    C8    S    
C36   H8    S    
O16   P8    D    
O23   P3    S    
C1    H21   S    
Ba2   O14   S    
C6    H25   S    
Ba1   O5    S    
C20   C26   A    
C37   O2    S    
C3    O15   S    
O20   P1    S    
C33   O7    S    
C2    O21   S    
O3    P3    S    
C9    C18   A    
C28   C32   A    
C4    H20   S    
Ba2   O8    S    
C25   H40   S    
C37   C38   S    
C14   C15   A    
C17   P4    S    
C19   H34   S    
C15   C19   A    
O22   P2    D    
C7    H27   S    
C12   O3    S    
C27   C28   A    
C40   H58   S    
C1    H16   S    
C24   C31   S    
C29   C30   A    
O24   P3    D    
C10   C13   A    
C29   P2    S    
C38   H15   S    
C15   C16   A    
C39   H48   S    
C29   C32   A    
O10   P5    D    
N1    H47   S    
Ba2   O6    S    
Ba1   O18   S    
C5    H23   S    
C36   H7    S    
N1    C39   S    
C6    H24   S    
C3    H18   S    
C22   H38   S    
C11   H33   S    
Ba2   O13   S    
C38   H14   S    
C11   C13   A    
N2    H51   S    
C34   H4    S    
O17   P8    S    
C12   H42   S    
C35   H5    S    
N4    H55   S    
C23   N4    S    
C8    H30   S    
C40   H57   S    
O12   P1    S    
C5    O11   S    
C20   C21   A    
C4    H19   S    
C4    N2    S    
N4    C40   S    
N3    H54   S    
Ba1   O12   S    
C1    H12   S    
O5    P4    S    
C3    H17   S    
O15   P7    S    
C20   H43   S    
C10   H36   S    
C7    H28   S    
C35   O20   S    
C9    H35   S    
C30   C31   A    
C30   H39   S    
C33   H45   S    
C40   H56   S    
O13   P2    S    
C7    O17   S    
O8    P7    S    
O7    P4    S    
O4    P4    D    
C12   C23   S    
Ba2   O5    S    
O21   P6    S    
C39   H49   S    
Ba1   O22   S    
C21   P5    S    
O2    P2    S    
C8    H29   S    
C37   H10   S    
C27   H37   S    
C18   C19   A    
Ba2   O12   S    
C38   H13   S    
C25   C26   A    
N2    H52   S    
C13   P6    S    
C34   H3    S    
O14   P7    D    
C35   H6    S    
Ba1   P1    S    
C1    C2    S    
C14   P1    S    
C28   P3    S    
C8    H32   S    
