data_mof_unit_10518.cif
_audit_creation_date              2012-10-26T20:08:11-0400
_audit_creation_method            fapswitch 2.2
_symmetry_space_group_name_H-M    P1
_symmetry_Int_Tables_number       1
_space_group_crystal_system       triclinic
_cell_length_a                    10.844446
_cell_length_b                    10.839807
_cell_length_c                    9.518835
_cell_angle_alpha                 89.84655
_cell_angle_beta                  90.899694
_cell_angle_gamma                 89.887625
_cell_volume                      1118.81104495

loop_
_atom_site_label
_atom_site_type_symbol
_atom_type_description
_atom_site_fract_x
_atom_site_fract_y
_atom_site_fract_z
_atom_type_partial_charge
C1    C     C_R   0.500359 0.262098 0.500367 0.580144
C2    C     C_R   0.514599 0.062278 0.627835 0.381429
C3    C     C_R   0.499527 0.871744 0.498765 -0.031157
C4    C     C_R   0.500513 0.128256 0.501238 -0.031127
C5    C     C_R   0.570575 0.417592 0.075596 0.463582
C6    C     C_R   0.429418 0.582403 0.924404 0.463631
C7    C     C_R   0.570462 0.417700 0.926860 0.018892
C8    C     C_R   0.429532 0.582296 0.073139 0.018920
C9    C     C_R   0.262231 0.498119 0.498682 0.549455
C10   C     C_R   0.737769 0.501879 0.501317 0.549429
C11   C     C_R   0.163386 0.428125 0.007736 -0.150122
C12   C     C_R   0.499655 0.737902 0.499633 0.580121
C13   C     C_R   0.836481 0.571951 0.992216 -0.150190
C14   C     C_R   0.121388 0.475287 0.134159 -0.117379
C15   C     C_R   0.878470 0.524741 0.865808 -0.117338
C16   C     C_R   0.114998 0.399846 0.253409 0.026115
C17   C     C_R   0.884997 0.600188 0.746566 0.026107
C18   C     C_R   0.152902 0.275321 0.245866 -0.000638
C19   C     C_R   0.847232 0.724764 0.754098 -0.000716
C20   C     C_R   0.194625 0.227319 0.116998 -0.024000
C21   C     C_R   0.805511 0.772813 0.882946 -0.023998
C22   C     C_R   0.199120 0.304646 0.997722 -0.023654
C23   C     C_R   0.871605 0.502225 0.503544 0.013826
C24   C     C_R   0.800884 0.695481 0.002218 -0.023633
C25   C     C_R   0.931492 0.453964 0.386850 -0.133017
C26   C     C_R   0.068506 0.546034 0.613144 -0.133022
C27   C     C_1   0.236647 0.258461 0.862865 0.243661
C28   C     C_1   0.763359 0.741705 0.137060 0.243687
C29   C     C_1   0.145956 0.196687 0.368753 0.201784
C30   C     C_1   0.854333 0.803403 0.631221 0.201789
C31   C     C_1   0.228795 0.098452 0.105712 0.225545
C32   C     C_1   0.771488 0.901730 0.894213 0.225607
C33   C     C_R   0.128394 0.497764 0.496456 0.013839
C34   C     C_R   0.940852 0.548495 0.618500 -0.024902
C35   C     C_R   0.059147 0.451496 0.381498 -0.024887
C36   C     C_R   0.486135 0.065191 0.373924 -0.118734
C37   C     C_R   0.513921 0.934809 0.626077 -0.118765
C38   C     C_R   0.485451 0.937722 0.372167 0.381437
Cu1   Cu    Cu3+1 0.500000 0.500020 0.640660 1.069663
Cu2   Cu    Cu3+1 0.500000 0.499980 0.359340 1.069634
F1    F     F_    0.470335 0.879982 0.246701 -0.587810
F2    F     F_    0.529715 0.120019 0.753301 -0.587827
F3    F     F_    0.642603 0.335372 0.146355 -0.615393
F4    F     F_    0.357385 0.664619 0.853644 -0.615385
H1    H     H_    0.627423 0.352261 0.871784 0.188672
H2    H     H_    0.525288 0.885682 0.724713 0.198991
H3    H     H_    0.372569 0.647733 0.128216 0.188663
H4    H     H_    0.166467 0.487994 0.916839 0.147534
H5    H     H_    0.833306 0.512080 0.083115 0.147556
H6    H     H_    0.092041 0.570782 0.138765 0.140765
H7    H     H_    0.907711 0.429206 0.861211 0.140782
H8    H     H_    0.878634 0.415507 0.299951 0.167348
H9    H     H_    0.121364 0.584518 0.700025 0.167334
H10   H     H_    0.474780 0.114318 0.275287 0.199007
N1    N     N_R   0.500030 0.500030 0.852070 -0.272819
N2    N     N_R   0.499970 0.499970 0.147930 -0.272826
N3    N     N_1   0.266039 0.221370 0.754590 -0.198797
N4    N     N_1   0.733969 0.778820 0.245326 -0.198823
N5    N     N_1   0.140382 0.133705 0.466780 -0.243800
N6    N     N_1   0.860041 0.866387 0.533203 -0.243756
N7    N     N_1   0.255646 0.995476 0.096255 -0.170132
N8    N     N_1   0.744761 0.004748 0.903647 -0.170282
O1    O     O_R   0.499990 0.319660 0.618740 -0.440838
O2    O     O_R   0.500010 0.680340 0.381260 -0.440848
O3    O     O_R   0.499990 0.319630 0.381170 -0.473822
O4    O     O_R   0.500010 0.680370 0.618830 -0.473807
O5    O     O_R   0.319650 0.500020 0.618780 -0.469666
O6    O     O_R   0.680350 0.499980 0.381220 -0.469700
O7    O     O_R   0.319640 0.500000 0.381210 -0.520672
O8    O     O_R   0.680360 0.500000 0.618790 -0.520667

loop_
_geom_bond_atom_site_label_1
_geom_bond_atom_site_label_2
_ccdc_geom_bond_type
C2    C4    A    
C9    O5    A    
C15   H7    S    
C10   C23   S    
Cu1   O1    S    
C31   N7    T    
C11   C22   A    
C1    O3    A    
Cu2   O2    S    
C7    N1    A    
C6    N1    A    
C2    F2    S    
C1    C4    S    
C28   N4    T    
C23   C34   A    
Cu2   N2    S    
C36   C38   A    
C5    F3    S    
C8    H3    S    
C32   N8    T    
Cu1   O4    S    
C18   C29   S    
C6    F4    S    
C21   C32   S    
C9    C33   S    
C2    C37   A    
C8    N2    A    
C11   H4    S    
C14   H6    S    
Cu1   O5    S    
C25   C35   A    
C13   H5    S    
C7    H1    S    
C19   C21   A    
Cu1   O8    S    
C9    O7    A    
C5    N2    A    
C18   C20   A    
Cu2   O3    S    
C13   C15   A    
C16   C35   S    
C27   N3    T    
C22   C27   S    
C12   O2    A    
C11   C14   A    
C14   C16   A    
C25   H8    S    
C36   H10   S    
C17   C34   S    
C20   C22   A    
C26   H9    S    
C1    O1    A    
C23   C25   A    
C30   N6    T    
C4    C36   A    
C3    C37   A    
C38   F1    S    
C16   C18   A    
Cu2   O6    S    
C21   C24   A    
Cu1   Cu2   S    
C15   C17   A    
C29   N5    T    
C5    C7    A    
C17   C19   A    
Cu2   O7    S    
C6    C8    A    
C3    C12   S    
C26   C33   A    
C33   C35   A    
C37   H2    S    
C19   C30   S    
C12   O4    A    
C26   C34   A    
Cu1   N1    S    
C24   C28   S    
C13   C24   A    
C3    C38   A    
C10   O6    A    
C20   C31   S    
C10   O8    A    
