data_mof_unit_6252.cif
_audit_creation_date              2013-03-05T15:41:13-0500
_audit_creation_method            fapswitch 2.2
_symmetry_space_group_name_H-M    P1
_symmetry_Int_Tables_number       1
_space_group_crystal_system       triclinic
_cell_length_a                    16.806355
_cell_length_b                    16.772675
_cell_length_c                    16.765358
_cell_angle_alpha                 68.243699
_cell_angle_beta                  68.324771
_cell_angle_gamma                 68.201852
_cell_volume                      3925.60016326

loop_
_atom_site_label
_atom_site_type_symbol
_atom_site_description
_atom_site_fract_x
_atom_site_fract_y
_atom_site_fract_z
_atom_type_partial_charge
O1    O     O_R   0.124540 0.978640 0.385460 -0.591416
O2    O     O_R   0.875460 0.021360 0.614540 -0.587974
O3    O     O_R   0.978640 0.385460 0.124540 -0.598729
O4    O     O_R   0.021360 0.614540 0.875460 -0.589966
O5    O     O_R   0.385460 0.124540 0.978640 -0.591841
O6    O     O_R   0.614540 0.875460 0.021360 -0.588104
O7    O     O_R   0.614540 0.021360 0.875460 -0.601663
O8    O     O_R   0.385460 0.978640 0.124540 -0.584604
O9    O     O_R   0.875460 0.614540 0.021360 -0.586476
O10   O     O_R   0.124540 0.385460 0.978640 -0.586515
O11   O     O_R   0.021360 0.875460 0.614540 -0.601867
O12   O     O_R   0.978640 0.124540 0.385460 -0.584419
C1    C     C_R   0.320825 0.962170 0.451569 0.010024
C2    C     C_R   0.677233 0.047436 0.546301 0.012307
C3    C     C_R   0.956571 0.452927 0.322425 0.014728
C4    C     C_R   0.047048 0.546801 0.676870 0.011848
C5    C     C_R   0.451960 0.321339 0.959834 0.009055
C6    C     C_R   0.547309 0.676560 0.047265 0.010669
C7    C     C_R   0.546854 0.051786 0.674708 0.005784
C8    C     C_R   0.451163 0.957743 0.323098 0.017236
C9    C     C_R   0.675894 0.546004 0.050499 0.006032
C10   C     C_R   0.322948 0.451626 0.957647 0.017147
C11   C     C_R   0.050588 0.675334 0.546204 0.006381
C12   C     C_R   0.954947 0.323470 0.452672 0.015961
Cu1   Cu    Cu3+1 0.995180 0.995180 0.424630 0.956082
Cu2   Cu    Cu3+1 0.004820 0.004820 0.575370 0.989313
Cu3   Cu    Cu3+1 0.995180 0.424630 0.995180 0.956194
Cu4   Cu    Cu3+1 0.004820 0.575370 0.004820 1.024078
Cu5   Cu    Cu3+1 0.424630 0.995180 0.995180 0.957277
Cu6   Cu    Cu3+1 0.575370 0.004820 0.004820 0.991675
C13   C     C_R   0.027441 0.828218 0.564946 0.826877
C14   C     C_R   0.973325 0.171722 0.434804 0.842866
C15   C     C_R   0.828312 0.564944 0.027430 0.829597
C16   C     C_R   0.171649 0.434607 0.973775 0.837668
C17   C     C_R   0.565057 0.027265 0.828223 0.824397
C18   C     C_R   0.434682 0.973626 0.171664 0.843449
C19   C     C_R   0.434632 0.171366 0.974134 0.815850
C20   C     C_R   0.565295 0.828461 0.026497 0.837188
C21   C     C_R   0.973705 0.434789 0.171518 0.827757
C22   C     C_R   0.026516 0.565227 0.828477 0.833206
C23   C     C_R   0.171354 0.974474 0.434534 0.816602
C24   C     C_R   0.828567 0.026315 0.565271 0.835193
O13   O     O_R   0.013780 0.867370 0.487190 -0.587185
O14   O     O_R   0.986220 0.132630 0.512810 -0.529363
O15   O     O_R   0.867370 0.487190 0.013780 -0.589616
O16   O     O_R   0.132630 0.512810 0.986220 -0.532306
O17   O     O_R   0.487190 0.013780 0.867370 -0.585974
O18   O     O_R   0.512810 0.986220 0.132630 -0.533042
O19   O     O_R   0.512810 0.132630 0.986220 -0.573083
O20   O     O_R   0.487190 0.867370 0.013780 -0.567697
O21   O     O_R   0.986220 0.512810 0.132630 -0.528860
O22   O     O_R   0.013780 0.487190 0.867370 -0.570045
O23   O     O_R   0.132630 0.986220 0.512810 -0.573308
O24   O     O_R   0.867370 0.013780 0.487190 -0.568714
C25   C     C_R   0.408368 0.969818 0.409226 -0.034000
C26   C     C_R   0.588922 0.042222 0.587632 -0.028917
C27   C     C_R   0.964862 0.410545 0.410061 -0.033338
C28   C     C_R   0.040765 0.588425 0.588638 -0.028968
C29   C     C_R   0.409626 0.408796 0.968330 -0.034212
C30   C     C_R   0.588868 0.588240 0.041164 -0.029881
H1    H     H_    0.269995 0.965615 0.270282 0.192775
H2    H     H_    0.731345 0.028994 0.731318 0.188035
H3    H     H_    0.966507 0.270157 0.269848 0.193475
H4    H     H_    0.030339 0.730983 0.730942 0.187936
H5    H     H_    0.270433 0.269852 0.965957 0.192644
H6    H     H_    0.730919 0.730901 0.030416 0.188731
C31   C     C_R   0.269399 0.961885 0.400160 -0.107836
C32   C     C_R   0.730247 0.040913 0.599484 -0.120880
C33   C     C_R   0.959711 0.400656 0.270017 -0.118458
C34   C     C_R   0.041187 0.599575 0.729924 -0.117238
C35   C     C_R   0.400299 0.269632 0.960877 -0.106585
C36   C     C_R   0.599831 0.729785 0.041242 -0.116902
C37   C     C_R   0.599701 0.042889 0.729116 -0.097541
C38   C     C_R   0.399633 0.960542 0.270342 -0.118876
C39   C     C_R   0.729512 0.599120 0.042954 -0.099470
C40   C     C_R   0.270248 0.399820 0.960640 -0.119359
C41   C     C_R   0.042920 0.729255 0.599216 -0.099923
C42   C     C_R   0.959160 0.270521 0.400390 -0.120803
C43   C     C_R   0.452680 0.075640 0.702038 0.288575
C44   C     C_R   0.545024 0.939890 0.294463 0.313689
C45   C     C_R   0.073257 0.702768 0.451633 0.283844
C46   C     C_R   0.939995 0.293662 0.546696 0.313769
C47   C     C_R   0.703903 0.451443 0.072584 0.287874
C48   C     C_R   0.293836 0.545697 0.941228 0.314406
C49   C     C_R   0.288814 0.954514 0.544587 0.314480
C50   C     C_R   0.707360 0.062549 0.452119 0.277630
C51   C     C_R   0.545181 0.289509 0.950287 0.313575
C52   C     C_R   0.453450 0.706664 0.062968 0.280097
C53   C     C_R   0.945675 0.546583 0.291340 0.317303
C54   C     C_R   0.062847 0.452664 0.706982 0.278442
C55   C     C_R   0.309804 0.961879 0.310379 -0.296904
C56   C     C_R   0.690467 0.037765 0.690041 -0.301630
C57   C     C_R   0.961054 0.310566 0.310198 -0.300007
C58   C     C_R   0.038423 0.689961 0.690051 -0.303016
C59   C     C_R   0.310460 0.309891 0.961712 -0.296629
C60   C     C_R   0.690085 0.689958 0.038501 -0.305293
C61   C     C_R   0.670929 0.029073 0.411003 -0.153715
C62   C     C_R   0.323624 0.993522 0.581146 -0.124767
C63   C     C_R   0.029536 0.411127 0.670843 -0.146598
C64   C     C_R   0.985227 0.583860 0.325276 -0.158319
C65   C     C_R   0.412047 0.670506 0.029619 -0.151115
C66   C     C_R   0.582916 0.324056 0.988416 -0.122852
C67   C     C_R   0.587195 0.973167 0.329823 -0.143975
C68   C     C_R   0.405706 0.052872 0.661545 -0.131996
C69   C     C_R   0.329883 0.587161 0.974573 -0.142111
C70   C     C_R   0.663809 0.405030 0.048519 -0.131867
C71   C     C_R   0.973968 0.329547 0.587523 -0.137606
C72   C     C_R   0.048921 0.662696 0.405245 -0.129175
C73   C     C_R   0.716086 0.010004 0.327121 0.356498
C74   C     C_R   0.275426 0.019740 0.660255 0.413993
C75   C     C_R   0.012682 0.326217 0.715681 0.347685
C76   C     C_R   0.014270 0.661210 0.274964 0.380012
C77   C     C_R   0.328031 0.715981 0.011332 0.351558
C78   C     C_R   0.662888 0.275526 0.012924 0.413489
C79   C     C_R   0.671514 0.988801 0.283523 0.388209
C80   C     C_R   0.314623 0.053753 0.697833 0.372046
C81   C     C_R   0.283584 0.671045 0.991727 0.382824
C82   C     C_R   0.700675 0.314011 0.047601 0.370753
C83   C     C_R   0.993456 0.281906 0.670153 0.375065
C84   C     C_R   0.050443 0.697837 0.313542 0.376573
C85   C     C_R   0.542505 0.992030 0.413059 -0.050070
C86   C     C_R   0.452483 0.028137 0.580799 -0.060503
C87   C     C_R   0.989709 0.414000 0.543351 -0.049478
C88   C     C_R   0.023273 0.582620 0.452988 -0.057991
C89   C     C_R   0.413778 0.542458 0.991660 -0.049414
C90   C     C_R   0.582600 0.452187 0.024879 -0.059676
C91   C     C_R   0.585389 0.016401 0.455013 -0.041815
C92   C     C_R   0.409795 0.003792 0.538443 -0.061324
C93   C     C_R   0.456070 0.585055 0.015948 -0.042049
C94   C     C_R   0.540011 0.409925 0.000287 -0.061619
C95   C     C_R   0.014726 0.455831 0.585782 -0.041837
C96   C     C_R   0.997108 0.540847 0.411212 -0.050567
C97   C     C_R   0.454515 0.986069 0.454684 0.038099
C98   C     C_R   0.541579 0.030738 0.540415 0.041116
C99   C     C_R   0.980857 0.456443 0.456074 0.035101
C100  C     C_R   0.027850 0.541663 0.541823 0.037496
C101  C     C_R   0.455553 0.454728 0.984234 0.037749
C102  C     C_R   0.541837 0.541109 0.029115 0.040945
O25   O     O_3   0.266270 0.076347 0.776603 -0.624862
C103  C     C_3   0.208504 0.162600 0.757424 -0.306158
H7    H     H_    0.161256 0.166580 0.723545 0.252862
H8    H     H_    0.245791 0.213165 0.715589 0.163112
H9    H     H_    0.169488 0.179124 0.821541 0.208016
O26   O     O_3   0.696811 0.005731 0.191076 -0.553399
C104  C     C_3   0.782270 0.952240 0.159535 -0.275212
H10   H     H_    0.795622 0.884618 0.205975 0.109575
H11   H     H_    0.834018 0.985630 0.144620 0.211783
H12   H     H_    0.785798 0.943679 0.095693 0.162848
O27   O     O_3   0.078019 0.773617 0.263214 -0.626089
C105  C     C_3   0.164885 0.748909 0.208821 -0.309966
H13   H     H_    0.168687 0.712520 0.163706 0.249520
H14   H     H_    0.213084 0.707470 0.249027 0.166269
H15   H     H_    0.184360 0.810991 0.167141 0.212723
O28   O     O_3   0.015383 0.189064 0.691105 -0.554764
C106  C     C_3   0.976267 0.149676 0.780550 -0.234706
H16   H     H_    0.910834 0.192712 0.806657 0.118800
H17   H     H_    0.021493 0.131579 0.822519 0.211677
H18   H     H_    0.965395 0.086972 0.784196 0.154998
O29   O     O_3   0.779781 0.265373 0.069536 -0.629931
C107  C     C_3   0.762185 0.204604 0.154298 -0.286592
H19   H     H_    0.741891 0.150006 0.152045 0.263652
H20   H     H_    0.710702 0.237864 0.205293 0.156094
H21   H     H_    0.824658 0.174102 0.175319 0.197006
O30   O     O_3   0.191095 0.695052 0.011584 -0.550460
C108  C     C_3   0.156874 0.781862 0.961955 -0.278080
H22   H     H_    0.201177 0.797530 0.894319 0.116489
H23   H     H_    0.143963 0.831926 0.996736 0.204117
H24   H     H_    0.092249 0.785946 0.954996 0.163559
O31   O     O_3   0.185799 0.023549 0.693866 -0.543311
C109  C     C_3   0.172952 0.956126 0.774284 -0.341677
H25   H     H_    0.170985 0.976390 0.831030 0.209226
H26   H     H_    0.224945 0.892353 0.768750 0.146075
H27   H     H_    0.107674 0.944367 0.788703 0.158936
O32   O     O_3   0.804802 0.008243 0.288591 -0.626674
C110  C     C_3   0.857008 0.927538 0.332298 -0.308689
H28   H     H_    0.839322 0.868341 0.335938 0.125370
H29   H     H_    0.850616 0.927140 0.400633 0.199362
H30   H     H_    0.927867 0.920848 0.294323 0.211473
O33   O     O_3   0.695987 0.185751 0.016147 -0.549134
C111  C     C_3   0.776289 0.172156 0.948985 -0.338135
H31   H     H_    0.832754 0.170781 0.969121 0.210348
H32   H     H_    0.771193 0.223147 0.884340 0.144290
H33   H     H_    0.790942 0.106022 0.938558 0.163980
O34   O     O_3   0.289964 0.804973 0.009666 -0.630927
C112  C     C_3   0.331917 0.857345 0.928101 -0.298597
H34   H     H_    0.327199 0.844324 0.869822 0.133562
H35   H     H_    0.402852 0.846255 0.922712 0.190655
H36   H     H_    0.297889 0.928707 0.924969 0.213078
O35   O     O_3   0.020494 0.690958 0.184107 -0.541543
C113  C     C_3   0.976398 0.782582 0.158482 -0.267768
H37   H     H_    0.025366 0.822155 0.122872 0.205195
H38   H     H_    0.929237 0.808935 0.215354 0.129670
H39   H     H_    0.938828 0.792878 0.111623 0.141952
O36   O     O_3   0.011460 0.287479 0.804555 -0.635402
C114  C     C_3   0.930492 0.329708 0.857364 -0.300110
H40   H     H_    0.871838 0.326566 0.843876 0.133764
H41   H     H_    0.925878 0.400339 0.847297 0.192615
H42   H     H_    0.927451 0.294643 0.928535 0.215713
N1    N     N_2   0.409095 0.137728 0.754748 -0.398556
H43   H     H_    0.354253 0.129881 0.807599 0.314666
C115  C     C_3   0.416079 0.227948 0.710135 -0.749125
H44   H     H_    0.388612 0.267043 0.759721 0.223180
H45   H     H_    0.378808 0.259728 0.658679 0.231035
H46   H     H_    0.486787 0.228406 0.677867 0.237369
N2    N     N_2   0.596254 0.873457 0.246804 -0.380793
H47   H     H_    0.663510 0.865217 0.224636 0.273208
C116  C     C_3   0.577044 0.787510 0.287699 -0.758562
H48   H     H_    0.615584 0.744206 0.241999 0.226036
H49   H     H_    0.505695 0.793896 0.300322 0.235617
H50   H     H_    0.596078 0.755063 0.351505 0.225071
N3    N     N_2   0.134401 0.756272 0.406781 -0.395224
H51   H     H_    0.125515 0.809560 0.352232 0.314980
C117  C     C_3   0.224165 0.714522 0.415662 -0.740291
H52   H     H_    0.261866 0.765353 0.386373 0.221821
H53   H     H_    0.257858 0.661012 0.380969 0.229697
H54   H     H_    0.223822 0.685348 0.486997 0.233960
N4    N     N_2   0.877447 0.242119 0.600654 -0.374137
H55   H     H_    0.870457 0.222000 0.668136 0.269346
C118  C     C_3   0.791183 0.276082 0.582608 -0.751968
H56   H     H_    0.753593 0.225245 0.620099 0.225671
H57   H     H_    0.797123 0.289660 0.511065 0.231124
H58   H     H_    0.753395 0.338332 0.603742 0.224899
N5    N     N_2   0.756614 0.406566 0.134659 -0.395329
H59   H     H_    0.809317 0.351659 0.126040 0.313904
C119  C     C_3   0.711659 0.410863 0.225561 -0.740189
H60   H     H_    0.761331 0.384274 0.264397 0.221567
H61   H     H_    0.662582 0.371078 0.256125 0.230048
H62   H     H_    0.676903 0.481001 0.227981 0.236527
N6    N     N_2   0.244182 0.598402 0.876593 -0.376979
H63   H     H_    0.223577 0.665886 0.868477 0.270869
C120  C     C_3   0.280699 0.579196 0.790608 -0.756063
H64   H     H_    0.231852 0.616850 0.750573 0.225033
H65   H     H_    0.293843 0.507574 0.797206 0.233561
H66   H     H_    0.343463 0.599359 0.754647 0.225308
N7    N     N_2   0.247623 0.885368 0.604346 -0.417199
H67   H     H_    0.182367 0.903065 0.640366 0.305015
C121  C     C_3   0.277823 0.800548 0.583953 -0.720800
H68   H     H_    0.256733 0.749208 0.645235 0.224574
H69   H     H_    0.351577 0.779906 0.559728 0.235428
H70   H     H_    0.247837 0.804549 0.533309 0.224256
N8    N     N_2   0.758669 0.125441 0.399213 -0.373618
H71   H     H_    0.779705 0.132971 0.331842 0.286635
C122  C     C_3   0.723985 0.211516 0.417962 -0.738813
H72   H     H_    0.772690 0.251178 0.378251 0.225473
H73   H     H_    0.713661 0.204787 0.489077 0.232375
H74   H     H_    0.659952 0.247671 0.400137 0.222486
N9    N     N_2   0.603501 0.247684 0.881092 -0.416316
H75   H     H_    0.639699 0.182298 0.898790 0.306633
C123  C     C_3   0.580843 0.276899 0.797522 -0.720309
H76   H     H_    0.641000 0.255582 0.745437 0.224889
H77   H     H_    0.556005 0.350784 0.776512 0.235341
H78   H     H_    0.530130 0.246139 0.803535 0.225456
N10   N     N_2   0.401510 0.757508 0.126530 -0.375732
H79   H     H_    0.334608 0.781782 0.132622 0.288232
C124  C     C_3   0.419049 0.719947 0.213285 -0.742711
H80   H     H_    0.379880 0.767930 0.254047 0.225978
H81   H     H_    0.490166 0.707479 0.207812 0.235080
H82   H     H_    0.399691 0.656506 0.247610 0.222550
N11   N     N_2   0.881912 0.604221 0.241746 -0.369952
H83   H     H_    0.873311 0.671358 0.228605 0.265585
C125  C     C_3   0.796157 0.585697 0.272753 -0.731594
H84   H     H_    0.754612 0.633078 0.227334 0.225786
H85   H     H_    0.761753 0.593729 0.341176 0.219301
H86   H     H_    0.802797 0.517684 0.272264 0.230378
N12   N     N_2   0.126186 0.400615 0.758085 -0.376580
H87   H     H_    0.132379 0.333565 0.782528 0.288802
C126  C     C_3   0.212636 0.418144 0.720943 -0.743234
H88   H     H_    0.253055 0.379101 0.769275 0.226100
H89   H     H_    0.206986 0.489473 0.708322 0.234803
H90   H     H_    0.247184 0.398491 0.657649 0.223187

loop_
_geom_bond_atom_site_label_1
_geom_bond_atom_site_label_2
_geom_bond_distance
_ccdc_geom_bond_type
C7    C26   1.408452 A    
O10   Cu3   1.965715 S    
C11   C28   1.407641 A    
C2    C26   1.407974 A    
C124  H81   1.108274 S    
C4    C54   1.419552 A    
C113  H37   1.105996 S    
C62   C74   1.408112 A    
O5    C19   1.302859 A    
C106  H17   1.109199 S    
C15   O15   1.287854 A    
C115  H44   1.109044 S    
C72   C84   1.422027 A    
C21   O21   1.285467 A    
N5    H59   1.025592 S    
C53   N11   1.437774 S    
C91   C98   1.412447 A    
C71   C87   1.407409 A    
C61   C91   1.408349 A    
C17   O17   1.292222 A    
Cu1   O13   1.967489 S    
C52   C65   1.420115 A    
C115  H45   1.109515 S    
Cu2   O14   1.967488 S    
C51   N9    1.432238 S    
C23   C31   1.490710 S    
C117  H52   1.109261 S    
Cu3   O22   1.967808 S    
Cu4   O16   1.971320 S    
C123  H76   1.106045 S    
C108  H22   1.100015 S    
C13   O13   1.287572 A    
C78   O33   1.385462 S    
Cu5   O17   1.969293 S    
O8    Cu5   1.961849 S    
Cu6   O18   1.969291 S    
O30   C108  1.405915 S    
C34   C58   1.402396 A    
C103  H8    1.110422 S    
C85   C91   1.409843 A    
C33   C57   1.403170 A    
C96   C99   1.410867 A    
C40   C59   1.401416 A    
O8    C18   1.302868 A    
C125  H84   1.109489 S    
C126  H90   1.110782 S    
C62   C92   1.402689 A    
C112  H35   1.110052 S    
C77   O34   1.382439 S    
C35   C59   1.403583 A    
C109  H25   1.108984 S    
C90   C94   1.412875 A    
C42   C57   1.402139 A    
C122  H72   1.108753 S    
C41   C58   1.402564 A    
C119  H62   1.110988 S    
C65   C77   1.419896 A    
O34   C112  1.412803 S    
C88   C96   1.412414 A    
C75   C83   1.421425 A    
N8    H71   1.024278 S    
O31   C109  1.406852 S    
C50   C61   1.421028 A    
C12   C46   1.419306 A    
O32   C110  1.413034 S    
C86   C98   1.407190 A    
C49   C62   1.411539 A    
C113  H39   1.109313 S    
C119  H61   1.109624 S    
C76   O35   1.392064 S    
C68   C80   1.419692 A    
O27   C105  1.407849 S    
C15   C39   1.495971 S    
C90   C102  1.408041 A    
C93   C102  1.412488 A    
C9    C47   1.418853 A    
H1    C55   1.083178 S    
C12   C27   1.410841 A    
C122  H73   1.107391 S    
C105  H15   1.106543 S    
H2    C56   1.083141 S    
N7    C121  1.447262 S    
C116  H50   1.111191 S    
N7    H67   1.028322 S    
C103  H9    1.107934 S    
C16   O16   1.287261 A    
C10   C40   1.431231 A    
C21   C33   1.490762 S    
Cu5   Cu6   2.663902 S    
N12   H87   1.022955 S    
C111  H33   1.109373 S    
C80   O25   1.377510 S    
C47   N5    1.428115 S    
Cu3   O15   1.971321 S    
N9    C123  1.447324 S    
O36   C114  1.412936 S    
C124  H82   1.110912 S    
O11   C13   1.301968 A    
N1    H43   1.025832 S    
C108  H23   1.107424 S    
O7    Cu6   1.961851 S    
C49   N7    1.431997 S    
C121  H68   1.106593 S    
O12   C14   1.302622 A    
C106  H18   1.109078 S    
O1    Cu1   1.966540 S    
C3    C27   1.409546 A    
C69   C81   1.410418 A    
C82   O29   1.378961 S    
O35   C113  1.412599 S    
C72   C88   1.417219 A    
C8    C25   1.408833 A    
C71   C83   1.408927 A    
C104  H11   1.108958 S    
C111  H32   1.113753 S    
C39   C60   1.402997 A    
C13   C41   1.495225 S    
C110  H30   1.108951 S    
O5    Cu5   1.961108 S    
Cu5   O20   1.967465 S    
N2    C116  1.449783 S    
C81   O30   1.393348 S    
C6    C36   1.427902 A    
C3    C33   1.430351 A    
C20   C36   1.492136 S    
C123  H77   1.111258 S    
C43   N1    1.428109 S    
C8    C44   1.415943 A    
C44   C67   1.419396 A    
C116  H48   1.109358 S    
C107  H21   1.108635 S    
O4    C22   1.300535 A    
C7    C37   1.429074 A    
C54   N12   1.434708 S    
C4    C34   1.427777 A    
Cu1   O24   1.972829 S    
C2    C50   1.421914 A    
C9    C30   1.408152 A    
C110  H29   1.108185 S    
C95   C100  1.411941 A    
C32   C56   1.404189 A    
C10   C29   1.410808 A    
C125  H85   1.111364 S    
C88   C100  1.408167 A    
C73   O32   1.382448 S    
C112  H36   1.108909 S    
C53   C64   1.417121 A    
O11   Cu2   1.961333 S    
C28   C100  1.409578 A    
N4    H55   1.027577 S    
C22   O22   1.287032 A    
C87   C95   1.408944 A    
O6    Cu6   1.961109 S    
C6    C52   1.418728 A    
C114  H40   1.112540 S    
C87   C99   1.407095 A    
N8    C122  1.448789 S    
C10   C48   1.417344 A    
C38   C55   1.402757 A    
C67   C79   1.411379 A    
C114  H41   1.109572 S    
N3    H51   1.026310 S    
N6    H63   1.024267 S    
C66   C78   1.409027 A    
C118  H57   1.107429 S    
C51   C66   1.411924 A    
C19   O19   1.286291 A    
N10   C124  1.448719 S    
O29   C107  1.409058 S    
N9    H75   1.028354 S    
C122  H74   1.110726 S    
C63   C75   1.422051 A    
Cu3   Cu4   2.659175 S    
C31   C55   1.404221 A    
C119  H60   1.108818 S    
C84   O27   1.376906 S    
C8    C38   1.428056 A    
C3    C53   1.422210 A    
O10   C16   1.303911 A    
C4    C28   1.407762 A    
C46   C71   1.416367 A    
C11   C41   1.431478 A    
C7    C43   1.415965 A    
C48   N6    1.435996 S    
N12   C126  1.448556 S    
C23   O23   1.284560 A    
O28   C106  1.406155 S    
C78   C82   1.418918 A    
C18   C38   1.496347 S    
O9    C15   1.302852 A    
C77   C81   1.420295 A    
C12   C42   1.430589 A    
C45   N3    1.428496 S    
Cu6   O19   1.967465 S    
C5    C29   1.408258 A    
C5    C35   1.429351 A    
C83   O28   1.395703 S    
C121  H69   1.111268 S    
C115  H46   1.110724 S    
C105  H14   1.109731 S    
C43   C68   1.428984 A    
C48   C69   1.419346 A    
C1    C49   1.421621 A    
C124  H80   1.109065 S    
C67   C85   1.410031 A    
Cu2   O23   1.972829 S    
C74   C80   1.417208 A    
C104  H10   1.108315 S    
C118  H56   1.109358 S    
C104  H12   1.109283 S    
C126  H89   1.108119 S    
C111  H31   1.108895 S    
C76   C84   1.423951 A    
C1    C31   1.430478 A    
C117  H54   1.110387 S    
O1    C23   1.302127 A    
C54   C63   1.420926 A    
N2    H47   1.023037 S    
C79   O26   1.392923 S    
C17   C37   1.498115 S    
C123  H78   1.107828 S    
C113  H38   1.107555 S    
C11   C45   1.419122 A    
N3    C117  1.446550 S    
C5    C51   1.422010 A    
O7    C17   1.302219 A    
C107  H20   1.113290 S    
C66   C94   1.403250 A    
C37   C56   1.403459 A    
C116  H49   1.108204 S    
O26   C104  1.407514 S    
N11   C125  1.450282 S    
O2    Cu2   1.966540 S    
C125  H86   1.107047 S    
C26   C98   1.410296 A    
O25   C103  1.407647 S    
C64   C96   1.403951 A    
C64   C76   1.409912 A    
C52   N10   1.434753 S    
C20   O20   1.289113 A    
C69   C89   1.409344 A    
C108  H24   1.109209 S    
H6    C60   1.083161 S    
C70   C90   1.418058 A    
C22   C34   1.490505 S    
C47   C70   1.430417 A    
C63   C95   1.410248 A    
O12   Cu1   1.961333 S    
C126  H88   1.108935 S    
C89   C101  1.406269 A    
C107  H19   1.106131 S    
C114  H42   1.108730 S    
C19   C35   1.488534 S    
C61   C73   1.421528 A    
Cu1   Cu2   2.657818 S    
C117  H53   1.109389 S    
H4    C58   1.083184 S    
N6    C120  1.449974 S    
C110  H28   1.113004 S    
C25   C97   1.415703 A    
C92   C97   1.410339 A    
C24   O24   1.286351 A    
C118  H58   1.111114 S    
N5    C119  1.445355 S    
C112  H34   1.112161 S    
N10   H79   1.022962 S    
C46   N4    1.436486 S    
C109  H26   1.111684 S    
O2    C24   1.300630 A    
C50   N8    1.435275 S    
C103  H7    1.106014 S    
O3    Cu3   1.961245 S    
Cu4   O21   1.967807 S    
C18   O18   1.290635 A    
C120  H66   1.111088 S    
C24   C32   1.490938 S    
C86   C92   1.412286 A    
N4    C118  1.449419 S    
C44   N2    1.435496 S    
C45   C72   1.431944 A    
C73   C79   1.420185 A    
C75   O36   1.382871 S    
C14   C42   1.495108 S    
O33   C111  1.407306 S    
C36   C60   1.402811 A    
C74   O31   1.385193 S    
C89   C93   1.410006 A    
H5    C59   1.083204 S    
C68   C86   1.417993 A    
C14   O14   1.286618 A    
C6    C30   1.408506 A    
C120  H65   1.107518 S    
C9    C39   1.431860 A    
O4    Cu4   1.961247 S    
C121  H70   1.108213 S    
C30   C102  1.410977 A    
C120  H64   1.109528 S    
N1    C115  1.446065 S    
C29   C101  1.416465 A    
C105  H13   1.107374 S    
C27   C99   1.416721 A    
C85   C97   1.406984 A    
H3    C57   1.083208 S    
C106  H16   1.100474 S    
C94   C101  1.411379 A    
O6    C20   1.302056 A    
C2    C32   1.429313 A    
C70   C82   1.422178 A    
O3    C21   1.302157 A    
N11   H83   1.027717 S    
O9    Cu4   1.965715 S    
C16   C40   1.497490 S    
C1    C25   1.409318 A    
C109  H27   1.109224 S    
C65   C93   1.408832 A    
